MODEL 1
REMARK VINA RESULT:      -7.1      0.000      0.000
REMARK  Name = 
REMARK  9 active torsions:
REMARK  status: ('A' for Active; 'I' for Inactive)
REMARK    1  A    between atoms: C_1  and  C_2
REMARK    2  A    between atoms: C_2  and  C_3
REMARK    3  A    between atoms: C_3  and  C_4
REMARK    4  A    between atoms: C_3  and  N_5
REMARK    5  A    between atoms: C_9  and  C_10
REMARK    6  A    between atoms: C_14  and  N_15
REMARK    7  A    between atoms: C_16  and  C_18
REMARK    8  A    between atoms: C_18  and  N_19
REMARK    9  A    between atoms: N_19  and  C_20
REMARK                            x       y       z     vdW  Elec       q    Type
REMARK                         _______ _______ _______ _____ _____    ______ ____
ROOT
ATOM      1  C   UNL     1       3.146   6.125  18.582  0.00  0.00    +0.000 A 
ATOM      2  C   UNL     1       3.060   5.036  19.466  0.00  0.00    +0.000 A 
ATOM      3  C   UNL     1       3.692   3.824  19.191  0.00  0.00    +0.000 A 
ATOM      4  C   UNL     1       4.411   3.661  18.012  0.00  0.00    +0.000 A 
ATOM      5  C   UNL     1       4.517   4.707  17.096  0.00  0.00    +0.000 A 
ATOM      6  C   UNL     1       3.894   5.938  17.397  0.00  0.00    +0.000 A 
ENDROOT
BRANCH   1  11
ATOM      7  N   UNL     1       0.305  10.857  19.695  0.00  0.00    +0.000 N 
ATOM      8  C   UNL     1       1.020   9.689  19.470  0.00  0.00    +0.000 A 
ATOM      9  N   UNL     1       1.272   8.829  20.464  0.00  0.00    +0.000 NA
ATOM     10  C   UNL     1       1.979   7.717  20.154  0.00  0.00    +0.000 A 
ATOM     11  C   UNL     1       2.448   7.388  18.893  0.00  0.00    +0.000 A 
ATOM     12  C   UNL     1       2.135   8.357  17.957  0.00  0.00    +0.000 A 
ATOM     13  N   UNL     1       1.446   9.498  18.215  0.00  0.00    +0.000 NA
ATOM     14  H   UNL     1       0.487  11.471  18.912  0.00  0.00    +0.000 HD
BRANCH   7  15
ATOM     15  C   UNL     1       0.388  11.455  21.024  0.00  0.00    +0.000 C 
ATOM     16  C   UNL     1       0.690  12.956  20.925  0.00  0.00    +0.000 C 
BRANCH  15  18
ATOM     17  C   UNL     1      -0.875  10.422  23.030  0.00  0.00    +0.000 C 
ATOM     18  C   UNL     1      -0.949  11.284  21.779  0.00  0.00    +0.000 C 
ENDBRANCH  15  18
ENDBRANCH   7  15
ENDBRANCH   1  11
BRANCH   5  19
ATOM     19  N   UNL     1       5.220   4.593  15.876  0.00  0.00    +0.000 N 
ATOM     20  C   UNL     1       6.551   4.926  15.654  0.00  0.00    +0.000 C 
ATOM     21  O   UNL     1       7.350   5.340  16.491  0.00  0.00    +0.000 OA
ATOM     22  H   UNL     1       4.728   4.144  15.113  0.00  0.00    +0.000 HD
BRANCH  20  23
ATOM     23  C   UNL     1       7.023   4.648  14.218  0.00  0.00    +0.000 C 
BRANCH  23  24
ATOM     24  N   UNL     1       6.309   3.493  13.645  0.00  0.00    +0.000 NA
ATOM     25  C   UNL     1       6.366   3.478  12.189  0.00  0.00    +0.000 C 
ATOM     26  H   UNL     1       5.328   3.565  13.934  0.00  0.00    +0.000 HD
ENDBRANCH  23  24
ENDBRANCH  20  23
ENDBRANCH   5  19
TORSDOF 6
ENDMDL
MODEL 2
REMARK VINA RESULT:      -7.1      1.343      1.995
REMARK  Name = 
REMARK  9 active torsions:
REMARK  status: ('A' for Active; 'I' for Inactive)
REMARK    1  A    between atoms: C_1  and  C_2
REMARK    2  A    between atoms: C_2  and  C_3
REMARK    3  A    between atoms: C_3  and  C_4
REMARK    4  A    between atoms: C_3  and  N_5
REMARK    5  A    between atoms: C_9  and  C_10
REMARK    6  A    between atoms: C_14  and  N_15
REMARK    7  A    between atoms: C_16  and  C_18
REMARK    8  A    between atoms: C_18  and  N_19
REMARK    9  A    between atoms: N_19  and  C_20
REMARK                            x       y       z     vdW  Elec       q    Type
REMARK                         _______ _______ _______ _____ _____    ______ ____
ROOT
ATOM      1  C   UNL     1       3.368   6.167  18.615  0.00  0.00    +0.000 A 
ATOM      2  C   UNL     1       3.567   5.194  19.608  0.00  0.00    +0.000 A 
ATOM      3  C   UNL     1       4.352   4.066  19.375  0.00  0.00    +0.000 A 
ATOM      4  C   UNL     1       4.945   3.870  18.133  0.00  0.00    +0.000 A 
ATOM      5  C   UNL     1       4.769   4.801  17.109  0.00  0.00    +0.000 A 
ATOM      6  C   UNL     1       3.993   5.951  17.365  0.00  0.00    +0.000 A 
ENDROOT
BRANCH   1  11
ATOM      7  N   UNL     1       0.274  10.733  19.744  0.00  0.00    +0.000 N 
ATOM      8  C   UNL     1       1.024   9.613  19.416  0.00  0.00    +0.000 A 
ATOM      9  N   UNL     1       1.529   9.454  18.187  0.00  0.00    +0.000 NA
ATOM     10  C   UNL     1       2.246   8.329  17.955  0.00  0.00    +0.000 A 
ATOM     11  C   UNL     1       2.514   7.340  18.887  0.00  0.00    +0.000 A 
ATOM     12  C   UNL     1       1.931   7.612  20.111  0.00  0.00    +0.000 A 
ATOM     13  N   UNL     1       1.188   8.713  20.394  0.00  0.00    +0.000 NA
ATOM     14  H   UNL     1      -0.236  10.512  20.590  0.00  0.00    +0.000 HD
BRANCH   7  15
ATOM     15  C   UNL     1      -0.486  11.375  18.675  0.00  0.00    +0.000 C 
ATOM     16  C   UNL     1      -1.730  10.548  18.324  0.00  0.00    +0.000 C 
BRANCH  15  18
ATOM     17  C   UNL     1      -0.185  13.936  18.487  0.00  0.00    +0.000 C 
ATOM     18  C   UNL     1      -0.953  12.781  19.113  0.00  0.00    +0.000 C 
ENDBRANCH  15  18
ENDBRANCH   7  15
ENDBRANCH   1  11
BRANCH   5  19
ATOM     19  N   UNL     1       5.334   4.644  15.824  0.00  0.00    +0.000 N 
ATOM     20  C   UNL     1       6.535   5.182  15.376  0.00  0.00    +0.000 C 
ATOM     21  O   UNL     1       7.326   5.852  16.037  0.00  0.00    +0.000 OA
ATOM     22  H   UNL     1       4.856   4.008  15.196  0.00  0.00    +0.000 HD
BRANCH  20  23
ATOM     23  C   UNL     1       6.882   4.794  13.931  0.00  0.00    +0.000 C 
BRANCH  23  24
ATOM     24  N   UNL     1       6.389   3.440  13.618  0.00  0.00    +0.000 NA
ATOM     25  C   UNL     1       5.828   3.356  12.276  0.00  0.00    +0.000 C 
ATOM     26  H   UNL     1       5.654   3.218  14.296  0.00  0.00    +0.000 HD
ENDBRANCH  23  24
ENDBRANCH  20  23
ENDBRANCH   5  19
TORSDOF 6
ENDMDL
MODEL 3
REMARK VINA RESULT:      -6.6      3.775      5.480
REMARK  Name = 
REMARK  9 active torsions:
REMARK  status: ('A' for Active; 'I' for Inactive)
REMARK    1  A    between atoms: C_1  and  C_2
REMARK    2  A    between atoms: C_2  and  C_3
REMARK    3  A    between atoms: C_3  and  C_4
REMARK    4  A    between atoms: C_3  and  N_5
REMARK    5  A    between atoms: C_9  and  C_10
REMARK    6  A    between atoms: C_14  and  N_15
REMARK    7  A    between atoms: C_16  and  C_18
REMARK    8  A    between atoms: C_18  and  N_19
REMARK    9  A    between atoms: N_19  and  C_20
REMARK                            x       y       z     vdW  Elec       q    Type
REMARK                         _______ _______ _______ _____ _____    ______ ____
ROOT
ATOM      1  C   UNL     1       1.012   9.187  20.012  0.00  0.00    +0.000 A 
ATOM      2  C   UNL     1       1.290   9.705  18.736  0.00  0.00    +0.000 A 
ATOM      3  C   UNL     1       2.071   9.002  17.819  0.00  0.00    +0.000 A 
ATOM      4  C   UNL     1       2.611   7.768  18.161  0.00  0.00    +0.000 A 
ATOM      5  C   UNL     1       2.375   7.215  19.419  0.00  0.00    +0.000 A 
ATOM      6  C   UNL     1       1.563   7.924  20.330  0.00  0.00    +0.000 A 
ENDROOT
BRANCH   1  11
ATOM      7  N   UNL     1      -1.922  12.289  23.682  0.00  0.00    +0.000 N 
ATOM      8  C   UNL     1      -1.236  11.532  22.743  0.00  0.00    +0.000 A 
ATOM      9  N   UNL     1      -1.432  11.713  21.431  0.00  0.00    +0.000 NA
ATOM     10  C   UNL     1      -0.722  10.927  20.587  0.00  0.00    +0.000 A 
ATOM     11  C   UNL     1       0.200   9.966  20.967  0.00  0.00    +0.000 A 
ATOM     12  C   UNL     1       0.304   9.866  22.343  0.00  0.00    +0.000 A 
ATOM     13  N   UNL     1      -0.394  10.613  23.235  0.00  0.00    +0.000 NA
ATOM     14  H   UNL     1      -1.850  11.801  24.566  0.00  0.00    +0.000 HD
BRANCH   7  15
ATOM     15  C   UNL     1      -3.246  12.782  23.316  0.00  0.00    +0.000 C 
ATOM     16  C   UNL     1      -4.261  12.483  24.427  0.00  0.00    +0.000 C 
BRANCH  15  18
ATOM     17  C   UNL     1      -4.562  14.948  22.800  0.00  0.00    +0.000 C 
ATOM     18  C   UNL     1      -3.212  14.311  23.098  0.00  0.00    +0.000 C 
ENDBRANCH  15  18
ENDBRANCH   7  15
ENDBRANCH   1  11
BRANCH   5  19
ATOM     19  N   UNL     1       2.912   5.973  19.826  0.00  0.00    +0.000 N 
ATOM     20  C   UNL     1       2.543   4.718  19.358  0.00  0.00    +0.000 C 
ATOM     21  O   UNL     1       1.713   4.480  18.482  0.00  0.00    +0.000 OA
ATOM     22  H   UNL     1       3.703   6.010  20.459  0.00  0.00    +0.000 HD
BRANCH  20  23
ATOM     23  C   UNL     1       3.347   3.568  19.982  0.00  0.00    +0.000 C 
BRANCH  23  24
ATOM     24  N   UNL     1       2.459   2.462  20.384  0.00  0.00    +0.000 NA
ATOM     25  C   UNL     1       1.729   2.761  21.610  0.00  0.00    +0.000 C 
ATOM     26  H   UNL     1       3.047   1.639  20.545  0.00  0.00    +0.000 HD
ENDBRANCH  23  24
ENDBRANCH  20  23
ENDBRANCH   5  19
TORSDOF 6
ENDMDL
MODEL 4
REMARK VINA RESULT:      -6.6      1.633      2.005
REMARK  Name = 
REMARK  9 active torsions:
REMARK  status: ('A' for Active; 'I' for Inactive)
REMARK    1  A    between atoms: C_1  and  C_2
REMARK    2  A    between atoms: C_2  and  C_3
REMARK    3  A    between atoms: C_3  and  C_4
REMARK    4  A    between atoms: C_3  and  N_5
REMARK    5  A    between atoms: C_9  and  C_10
REMARK    6  A    between atoms: C_14  and  N_15
REMARK    7  A    between atoms: C_16  and  C_18
REMARK    8  A    between atoms: C_18  and  N_19
REMARK    9  A    between atoms: N_19  and  C_20
REMARK                            x       y       z     vdW  Elec       q    Type
REMARK                         _______ _______ _______ _____ _____    ______ ____
ROOT
ATOM      1  C   UNL     1       2.441   6.278  19.931  0.00  0.00    +0.000 A 
ATOM      2  C   UNL     1       1.883   5.172  20.593  0.00  0.00    +0.000 A 
ATOM      3  C   UNL     1       2.424   3.894  20.456  0.00  0.00    +0.000 A 
ATOM      4  C   UNL     1       3.527   3.684  19.637  0.00  0.00    +0.000 A 
ATOM      5  C   UNL     1       4.111   4.747  18.949  0.00  0.00    +0.000 A 
ATOM      6  C   UNL     1       3.571   6.041  19.115  0.00  0.00    +0.000 A 
ENDROOT
BRANCH   1  11
ATOM      7  N   UNL     1      -0.056  11.303  20.402  0.00  0.00    +0.000 N 
ATOM      8  C   UNL     1       0.566  10.064  20.337  0.00  0.00    +0.000 A 
ATOM      9  N   UNL     1       0.580   9.240  21.391  0.00  0.00    +0.000 NA
ATOM     10  C   UNL     1       1.212   8.052  21.239  0.00  0.00    +0.000 A 
ATOM     11  C   UNL     1       1.832   7.615  20.080  0.00  0.00    +0.000 A 
ATOM     12  C   UNL     1       1.761   8.556  19.069  0.00  0.00    +0.000 A 
ATOM     13  N   UNL     1       1.157   9.767  19.172  0.00  0.00    +0.000 NA
ATOM     14  H   UNL     1       0.302  11.855  19.633  0.00  0.00    +0.000 HD
BRANCH   7  15
ATOM     15  C   UNL     1      -0.116  11.961  21.703  0.00  0.00    +0.000 C 
ATOM     16  C   UNL     1       0.251  13.445  21.577  0.00  0.00    +0.000 C 
BRANCH  15  18
ATOM     17  C   UNL     1      -2.148  13.197  22.720  0.00  0.00    +0.000 C 
ATOM     18  C   UNL     1      -1.542  11.869  22.290  0.00  0.00    +0.000 C 
ENDBRANCH  15  18
ENDBRANCH   7  15
ENDBRANCH   1  11
BRANCH   5  19
ATOM     19  N   UNL     1       5.222   4.590  18.091  0.00  0.00    +0.000 N 
ATOM     20  C   UNL     1       6.546   4.894  18.386  0.00  0.00    +0.000 C 
ATOM     21  O   UNL     1       6.977   5.314  19.458  0.00  0.00    +0.000 OA
ATOM     22  H   UNL     1       5.046   4.131  17.205  0.00  0.00    +0.000 HD
BRANCH  20  23
ATOM     23  C   UNL     1       7.520   4.572  17.243  0.00  0.00    +0.000 C 
BRANCH  23  24
ATOM     24  N   UNL     1       7.392   5.554  16.151  0.00  0.00    +0.000 NA
ATOM     25  C   UNL     1       6.910   4.946  14.918  0.00  0.00    +0.000 C 
ATOM     26  H   UNL     1       8.323   5.947  15.981  0.00  0.00    +0.000 HD
ENDBRANCH  23  24
ENDBRANCH  20  23
ENDBRANCH   5  19
TORSDOF 6
ENDMDL
MODEL 5
REMARK VINA RESULT:      -6.6      3.753      8.630
REMARK  Name = 
REMARK  9 active torsions:
REMARK  status: ('A' for Active; 'I' for Inactive)
REMARK    1  A    between atoms: C_1  and  C_2
REMARK    2  A    between atoms: C_2  and  C_3
REMARK    3  A    between atoms: C_3  and  C_4
REMARK    4  A    between atoms: C_3  and  N_5
REMARK    5  A    between atoms: C_9  and  C_10
REMARK    6  A    between atoms: C_14  and  N_15
REMARK    7  A    between atoms: C_16  and  C_18
REMARK    8  A    between atoms: C_18  and  N_19
REMARK    9  A    between atoms: N_19  and  C_20
REMARK                            x       y       z     vdW  Elec       q    Type
REMARK                         _______ _______ _______ _____ _____    ______ ____
ROOT
ATOM      1  C   UNL     1       0.863   9.401  19.435  0.00  0.00    +0.000 A 
ATOM      2  C   UNL     1       0.933  10.021  20.694  0.00  0.00    +0.000 A 
ATOM      3  C   UNL     1       0.028  11.013  21.068  0.00  0.00    +0.000 A 
ATOM      4  C   UNL     1      -0.963  11.427  20.184  0.00  0.00    +0.000 A 
ATOM      5  C   UNL     1      -1.068  10.851  18.918  0.00  0.00    +0.000 A 
ATOM      6  C   UNL     1      -0.161   9.830  18.560  0.00  0.00    +0.000 A 
ENDROOT
BRANCH   1  11
ATOM      7  N   UNL     1       4.469   5.339  17.952  0.00  0.00    +0.000 N 
ATOM      8  C   UNL     1       3.604   6.372  18.286  0.00  0.00    +0.000 A 
ATOM      9  N   UNL     1       3.391   7.394  17.448  0.00  0.00    +0.000 NA
ATOM     10  C   UNL     1       2.534   8.359  17.858  0.00  0.00    +0.000 A 
ATOM     11  C   UNL     1       1.850   8.369  19.062  0.00  0.00    +0.000 A 
ATOM     12  C   UNL     1       2.162   7.270  19.842  0.00  0.00    +0.000 A 
ATOM     13  N   UNL     1       3.025   6.284  19.490  0.00  0.00    +0.000 NA
ATOM     14  H   UNL     1       4.701   4.857  18.811  0.00  0.00    +0.000 HD
BRANCH   7  15
ATOM     15  C   UNL     1       5.580   5.649  17.058  0.00  0.00    +0.000 C 
ATOM     16  C   UNL     1       6.904   5.682  17.832  0.00  0.00    +0.000 C 
BRANCH  15  18
ATOM     17  C   UNL     1       6.689   4.908  14.843  0.00  0.00    +0.000 C 
ATOM     18  C   UNL     1       5.699   4.579  15.951  0.00  0.00    +0.000 C 
ENDBRANCH  15  18
ENDBRANCH   7  15
ENDBRANCH   1  11
BRANCH   5  19
ATOM     19  N   UNL     1      -2.043  11.244  17.974  0.00  0.00    +0.000 N 
ATOM     20  C   UNL     1      -3.109  10.478  17.518  0.00  0.00    +0.000 C 
ATOM     21  O   UNL     1      -3.405   9.344  17.890  0.00  0.00    +0.000 OA
ATOM     22  H   UNL     1      -2.008  12.208  17.665  0.00  0.00    +0.000 HD
BRANCH  20  23
ATOM     23  C   UNL     1      -4.009  11.213  16.514  0.00  0.00    +0.000 C 
BRANCH  23  24
ATOM     24  N   UNL     1      -3.313  11.410  15.230  0.00  0.00    +0.000 NA
ATOM     25  C   UNL     1      -3.112  10.156  14.515  0.00  0.00    +0.000 C 
ATOM     26  H   UNL     1      -2.397  11.819  15.438  0.00  0.00    +0.000 HD
ENDBRANCH  23  24
ENDBRANCH  20  23
ENDBRANCH   5  19
TORSDOF 6
ENDMDL
MODEL 6
REMARK VINA RESULT:      -6.6      2.000      2.711
REMARK  Name = 
REMARK  9 active torsions:
REMARK  status: ('A' for Active; 'I' for Inactive)
REMARK    1  A    between atoms: C_1  and  C_2
REMARK    2  A    between atoms: C_2  and  C_3
REMARK    3  A    between atoms: C_3  and  C_4
REMARK    4  A    between atoms: C_3  and  N_5
REMARK    5  A    between atoms: C_9  and  C_10
REMARK    6  A    between atoms: C_14  and  N_15
REMARK    7  A    between atoms: C_16  and  C_18
REMARK    8  A    between atoms: C_18  and  N_19
REMARK    9  A    between atoms: N_19  and  C_20
REMARK                            x       y       z     vdW  Elec       q    Type
REMARK                         _______ _______ _______ _____ _____    ______ ____
ROOT
ATOM      1  C   UNL     1       4.893   6.095  17.587  0.00  0.00    +0.000 A 
ATOM      2  C   UNL     1       5.853   5.676  18.524  0.00  0.00    +0.000 A 
ATOM      3  C   UNL     1       6.913   4.847  18.159  0.00  0.00    +0.000 A 
ATOM      4  C   UNL     1       7.031   4.397  16.849  0.00  0.00    +0.000 A 
ATOM      5  C   UNL     1       6.098   4.774  15.883  0.00  0.00    +0.000 A 
ATOM      6  C   UNL     1       5.043   5.634  16.259  0.00  0.00    +0.000 A 
ENDROOT
BRANCH   1  11
ATOM      7  N   UNL     1       0.739   9.461  19.351  0.00  0.00    +0.000 N 
ATOM      8  C   UNL     1       1.757   8.651  18.869  0.00  0.00    +0.000 A 
ATOM      9  N   UNL     1       2.459   8.994  17.782  0.00  0.00    +0.000 NA
ATOM     10  C   UNL     1       3.432   8.142  17.381  0.00  0.00    +0.000 A 
ATOM     11  C   UNL     1       3.771   6.955  18.011  0.00  0.00    +0.000 A 
ATOM     12  C   UNL     1       2.970   6.707  19.111  0.00  0.00    +0.000 A 
ATOM     13  N   UNL     1       1.970   7.515  19.546  0.00  0.00    +0.000 NA
ATOM     14  H   UNL     1       0.172   8.892  19.966  0.00  0.00    +0.000 HD
BRANCH   7  15
ATOM     15  C   UNL     1       0.022  10.291  18.388  0.00  0.00    +0.000 C 
ATOM     16  C   UNL     1      -1.490  10.048  18.483  0.00  0.00    +0.000 C 
BRANCH  15  18
ATOM     17  C   UNL     1      -0.866  12.718  18.309  0.00  0.00    +0.000 C 
ATOM     18  C   UNL     1       0.285  11.788  18.662  0.00  0.00    +0.000 C 
ENDBRANCH  15  18
ENDBRANCH   7  15
ENDBRANCH   1  11
BRANCH   5  19
ATOM     19  N   UNL     1       6.159   4.334  14.542  0.00  0.00    +0.000 N 
ATOM     20  C   UNL     1       7.068   4.748  13.576  0.00  0.00    +0.000 C 
ATOM     21  O   UNL     1       7.997   5.537  13.738  0.00  0.00    +0.000 OA
ATOM     22  H   UNL     1       5.531   3.581  14.286  0.00  0.00    +0.000 HD
BRANCH  20  23
ATOM     23  C   UNL     1       6.885   4.049  12.221  0.00  0.00    +0.000 C 
BRANCH  23  24
ATOM     24  N   UNL     1       6.005   2.873  12.350  0.00  0.00    +0.000 NA
ATOM     25  C   UNL     1       4.803   2.993  11.535  0.00  0.00    +0.000 C 
ATOM     26  H   UNL     1       5.730   2.804  13.334  0.00  0.00    +0.000 HD
ENDBRANCH  23  24
ENDBRANCH  20  23
ENDBRANCH   5  19
TORSDOF 6
ENDMDL
MODEL 7
REMARK VINA RESULT:      -6.6      4.098      9.220
REMARK  Name = 
REMARK  9 active torsions:
REMARK  status: ('A' for Active; 'I' for Inactive)
REMARK    1  A    between atoms: C_1  and  C_2
REMARK    2  A    between atoms: C_2  and  C_3
REMARK    3  A    between atoms: C_3  and  C_4
REMARK    4  A    between atoms: C_3  and  N_5
REMARK    5  A    between atoms: C_9  and  C_10
REMARK    6  A    between atoms: C_14  and  N_15
REMARK    7  A    between atoms: C_16  and  C_18
REMARK    8  A    between atoms: C_18  and  N_19
REMARK    9  A    between atoms: N_19  and  C_20
REMARK                            x       y       z     vdW  Elec       q    Type
REMARK                         _______ _______ _______ _____ _____    ______ ____
ROOT
ATOM      1  C   UNL     1       0.663  10.547  18.706  0.00  0.00    +0.000 A 
ATOM      2  C   UNL     1       1.367  11.762  18.774  0.00  0.00    +0.000 A 
ATOM      3  C   UNL     1       0.723  12.986  18.600  0.00  0.00    +0.000 A 
ATOM      4  C   UNL     1      -0.641  13.029  18.332  0.00  0.00    +0.000 A 
ATOM      5  C   UNL     1      -1.382  11.851  18.242  0.00  0.00    +0.000 A 
ATOM      6  C   UNL     1      -0.724  10.618  18.446  0.00  0.00    +0.000 A 
ENDROOT
BRANCH   1  11
ATOM      7  N   UNL     1       3.206   5.564  19.339  0.00  0.00    +0.000 N 
ATOM      8  C   UNL     1       2.609   6.801  19.143  0.00  0.00    +0.000 A 
ATOM      9  N   UNL     1       2.603   7.383  17.937  0.00  0.00    +0.000 NA
ATOM     10  C   UNL     1       2.001   8.592  17.838  0.00  0.00    +0.000 A 
ATOM     11  C   UNL     1       1.378   9.267  18.875  0.00  0.00    +0.000 A 
ATOM     12  C   UNL     1       1.461   8.572  20.068  0.00  0.00    +0.000 A 
ATOM     13  N   UNL     1       2.067   7.368  20.229  0.00  0.00    +0.000 NA
ATOM     14  H   UNL     1       3.352   5.460  20.335  0.00  0.00    +0.000 HD
BRANCH   7  15
ATOM     15  C   UNL     1       4.327   5.209  18.475  0.00  0.00    +0.000 C 
ATOM     16  C   UNL     1       5.641   5.210  19.267  0.00  0.00    +0.000 C 
BRANCH  15  18
ATOM     17  C   UNL     1       3.962   2.686  18.907  0.00  0.00    +0.000 C 
ATOM     18  C   UNL     1       4.126   3.797  17.881  0.00  0.00    +0.000 C 
ENDBRANCH  15  18
ENDBRANCH   7  15
ENDBRANCH   1  11
BRANCH   5  19
ATOM     19  N   UNL     1      -2.765  11.833  17.955  0.00  0.00    +0.000 N 
ATOM     20  C   UNL     1      -3.359  11.434  16.763  0.00  0.00    +0.000 C 
ATOM     21  O   UNL     1      -2.781  10.991  15.772  0.00  0.00    +0.000 OA
ATOM     22  H   UNL     1      -3.387  12.053  18.724  0.00  0.00    +0.000 HD
BRANCH  20  23
ATOM     23  C   UNL     1      -4.893  11.502  16.787  0.00  0.00    +0.000 C 
BRANCH  23  24
ATOM     24  N   UNL     1      -5.356  12.596  17.661  0.00  0.00    +0.000 NA
ATOM     25  C   UNL     1      -6.555  13.244  17.143  0.00  0.00    +0.000 C 
ATOM     26  H   UNL     1      -4.603  13.289  17.709  0.00  0.00    +0.000 HD
ENDBRANCH  23  24
ENDBRANCH  20  23
ENDBRANCH   5  19
TORSDOF 6
ENDMDL
MODEL 8
REMARK VINA RESULT:      -6.5      2.958      5.025
REMARK  Name = 
REMARK  9 active torsions:
REMARK  status: ('A' for Active; 'I' for Inactive)
REMARK    1  A    between atoms: C_1  and  C_2
REMARK    2  A    between atoms: C_2  and  C_3
REMARK    3  A    between atoms: C_3  and  C_4
REMARK    4  A    between atoms: C_3  and  N_5
REMARK    5  A    between atoms: C_9  and  C_10
REMARK    6  A    between atoms: C_14  and  N_15
REMARK    7  A    between atoms: C_16  and  C_18
REMARK    8  A    between atoms: C_18  and  N_19
REMARK    9  A    between atoms: N_19  and  C_20
REMARK                            x       y       z     vdW  Elec       q    Type
REMARK                         _______ _______ _______ _____ _____    ______ ____
ROOT
ATOM      1  C   UNL     1       0.986   9.247  19.969  0.00  0.00    +0.000 A 
ATOM      2  C   UNL     1       1.193   9.764  18.679  0.00  0.00    +0.000 A 
ATOM      3  C   UNL     1       1.968   9.086  17.739  0.00  0.00    +0.000 A 
ATOM      4  C   UNL     1       2.576   7.880  18.071  0.00  0.00    +0.000 A 
ATOM      5  C   UNL     1       2.412   7.331  19.343  0.00  0.00    +0.000 A 
ATOM      6  C   UNL     1       1.604   8.014  20.278  0.00  0.00    +0.000 A 
ENDROOT
BRANCH   1  11
ATOM      7  N   UNL     1      -1.937  12.249  23.730  0.00  0.00    +0.000 N 
ATOM      8  C   UNL     1      -1.254  11.518  22.769  0.00  0.00    +0.000 A 
ATOM      9  N   UNL     1      -1.454  11.734  21.463  0.00  0.00    +0.000 NA
ATOM     10  C   UNL     1      -0.746  10.972  20.596  0.00  0.00    +0.000 A 
ATOM     11  C   UNL     1       0.177  10.000  20.947  0.00  0.00    +0.000 A 
ATOM     12  C   UNL     1       0.285   9.863  22.319  0.00  0.00    +0.000 A 
ATOM     13  N   UNL     1      -0.411  10.586  23.233  0.00  0.00    +0.000 NA
ATOM     14  H   UNL     1      -1.863  11.738  24.600  0.00  0.00    +0.000 HD
BRANCH   7  15
ATOM     15  C   UNL     1      -3.262  12.752  23.382  0.00  0.00    +0.000 C 
ATOM     16  C   UNL     1      -4.275  12.418  24.485  0.00  0.00    +0.000 C 
BRANCH  15  18
ATOM     17  C   UNL     1      -4.408  15.027  23.826  0.00  0.00    +0.000 C 
ATOM     18  C   UNL     1      -3.230  14.286  23.209  0.00  0.00    +0.000 C 
ENDBRANCH  15  18
ENDBRANCH   7  15
ENDBRANCH   1  11
BRANCH   5  19
ATOM     19  N   UNL     1       3.019   6.119  19.740  0.00  0.00    +0.000 N 
ATOM     20  C   UNL     1       2.841   4.872  19.153  0.00  0.00    +0.000 C 
ATOM     21  O   UNL     1       2.155   4.622  18.163  0.00  0.00    +0.000 OA
ATOM     22  H   UNL     1       3.717   6.183  20.472  0.00  0.00    +0.000 HD
BRANCH  20  23
ATOM     23  C   UNL     1       3.675   3.760  19.805  0.00  0.00    +0.000 C 
BRANCH  23  24
ATOM     24  N   UNL     1       4.700   3.256  18.873  0.00  0.00    +0.000 NA
ATOM     25  C   UNL     1       5.660   4.287  18.500  0.00  0.00    +0.000 C 
ATOM     26  H   UNL     1       4.215   2.938  18.028  0.00  0.00    +0.000 HD
ENDBRANCH  23  24
ENDBRANCH  20  23
ENDBRANCH   5  19
TORSDOF 6
ENDMDL
MODEL 9
REMARK VINA RESULT:      -6.5      2.311      3.028
REMARK  Name = 
REMARK  9 active torsions:
REMARK  status: ('A' for Active; 'I' for Inactive)
REMARK    1  A    between atoms: C_1  and  C_2
REMARK    2  A    between atoms: C_2  and  C_3
REMARK    3  A    between atoms: C_3  and  C_4
REMARK    4  A    between atoms: C_3  and  N_5
REMARK    5  A    between atoms: C_9  and  C_10
REMARK    6  A    between atoms: C_14  and  N_15
REMARK    7  A    between atoms: C_16  and  C_18
REMARK    8  A    between atoms: C_18  and  N_19
REMARK    9  A    between atoms: N_19  and  C_20
REMARK                            x       y       z     vdW  Elec       q    Type
REMARK                         _______ _______ _______ _____ _____    ______ ____
ROOT
ATOM      1  C   UNL     1       2.247   6.636  20.053  0.00  0.00    +0.000 A 
ATOM      2  C   UNL     1       1.696   5.527  20.716  0.00  0.00    +0.000 A 
ATOM      3  C   UNL     1       2.259   4.257  20.602  0.00  0.00    +0.000 A 
ATOM      4  C   UNL     1       3.379   4.057  19.803  0.00  0.00    +0.000 A 
ATOM      5  C   UNL     1       3.957   5.122  19.113  0.00  0.00    +0.000 A 
ATOM      6  C   UNL     1       3.393   6.409  19.257  0.00  0.00    +0.000 A 
ENDROOT
BRANCH   1  11
ATOM      7  N   UNL     1       0.015  11.775  20.612  0.00  0.00    +0.000 N 
ATOM      8  C   UNL     1       0.554  10.510  20.424  0.00  0.00    +0.000 A 
ATOM      9  N   UNL     1       1.001  10.119  19.225  0.00  0.00    +0.000 NA
ATOM     10  C   UNL     1       1.508   8.866  19.133  0.00  0.00    +0.000 A 
ATOM     11  C   UNL     1       1.615   7.964  20.178  0.00  0.00    +0.000 A 
ATOM     12  C   UNL     1       1.110   8.478  21.359  0.00  0.00    +0.000 A 
ATOM     13  N   UNL     1       0.575   9.717  21.504  0.00  0.00    +0.000 NA
ATOM     14  H   UNL     1      -0.510  11.748  21.476  0.00  0.00    +0.000 HD
BRANCH   7  15
ATOM     15  C   UNL     1      -0.639  12.407  19.471  0.00  0.00    +0.000 C 
ATOM     16  C   UNL     1      -2.164  12.353  19.623  0.00  0.00    +0.000 C 
BRANCH  15  18
ATOM     17  C   UNL     1      -1.021  14.850  20.230  0.00  0.00    +0.000 C 
ATOM     18  C   UNL     1      -0.221  13.890  19.361  0.00  0.00    +0.000 C 
ENDBRANCH  15  18
ENDBRANCH   7  15
ENDBRANCH   1  11
BRANCH   5  19
ATOM     19  N   UNL     1       5.084   4.974  18.274  0.00  0.00    +0.000 N 
ATOM     20  C   UNL     1       6.417   5.083  18.652  0.00  0.00    +0.000 C 
ATOM     21  O   UNL     1       6.840   5.287  19.789  0.00  0.00    +0.000 OA
ATOM     22  H   UNL     1       4.902   4.675  17.324  0.00  0.00    +0.000 HD
BRANCH  20  23
ATOM     23  C   UNL     1       7.405   4.831  17.503  0.00  0.00    +0.000 C 
BRANCH  23  24
ATOM     24  N   UNL     1       7.466   5.994  16.599  0.00  0.00    +0.000 NA
ATOM     25  C   UNL     1       7.499   7.256  17.327  0.00  0.00    +0.000 C 
ATOM     26  H   UNL     1       6.624   5.973  16.016  0.00  0.00    +0.000 HD
ENDBRANCH  23  24
ENDBRANCH  20  23
ENDBRANCH   5  19
TORSDOF 6
ENDMDL
