MODEL 1
REMARK VINA RESULT:      -7.8      0.000      0.000
REMARK  Name = 
REMARK  16 active torsions:
REMARK  status: ('A' for Active; 'I' for Inactive)
REMARK    1  A    between atoms: C_1  and  O_2
REMARK    2  A    between atoms: O_2  and  C_3
REMARK    3  A    between atoms: C_6  and  C_7
REMARK    4  A    between atoms: C_15  and  C_16
REMARK    5  A    between atoms: C_16  and  C_17
REMARK    6  A    between atoms: C_17  and  N_18
REMARK    7  A    between atoms: N_18  and  C_19
REMARK    8  A    between atoms: C_19  and  C_20
REMARK    9  A    between atoms: C_20  and  C_21
REMARK   10  A    between atoms: C_21  and  C_22
REMARK   11  A    between atoms: C_22  and  C_23
REMARK   12  A    between atoms: C_23  and  C_24
REMARK   13  A    between atoms: C_24  and  C_25
REMARK   14  A    between atoms: C_28  and  O_29
REMARK   15  A    between atoms: C_33  and  O_34
REMARK   16  A    between atoms: O_34  and  C_35
REMARK                            x       y       z     vdW  Elec       q    Type
REMARK                         _______ _______ _______ _____ _____    ______ ____
ROOT
ATOM      1  C   UNL     1       4.417   4.526  18.486  0.00  0.00    +0.000 A 
ATOM      2  N   UNL     1       4.550   3.507  19.395  0.00  0.00    +0.000 N 
ATOM      3  C   UNL     1       3.407   3.351  20.127  0.00  0.00    +0.000 A 
ATOM      4  C   UNL     1       3.104   2.363  21.074  0.00  0.00    +0.000 A 
ATOM      5  C   UNL     1       1.813   2.340  21.592  0.00  0.00    +0.000 A 
ATOM      6  C   UNL     1       0.872   3.274  21.170  0.00  0.00    +0.000 A 
ATOM      7  C   UNL     1       1.212   4.293  20.255  0.00  0.00    +0.000 A 
ATOM      8  C   UNL     1       2.520   4.353  19.722  0.00  0.00    +0.000 A 
ATOM      9  C   UNL     1       3.223   5.199  18.783  0.00  0.00    +0.000 A 
ATOM     10  H   UNL     1       5.321   2.857  19.418  0.00  0.00    +0.000 HD
ENDROOT
BRANCH   1  14
ATOM     11  C   UNL     1       7.044   5.190  15.163  0.00  0.00    +0.000 A 
ATOM     12  C   UNL     1       6.218   4.053  15.207  0.00  0.00    +0.000 A 
ATOM     13  C   UNL     1       5.389   3.811  16.304  0.00  0.00    +0.000 A 
ATOM     14  C   UNL     1       5.382   4.683  17.387  0.00  0.00    +0.000 A 
ATOM     15  C   UNL     1       6.266   5.771  17.363  0.00  0.00    +0.000 A 
ATOM     16  C   UNL     1       7.120   6.025  16.282  0.00  0.00    +0.000 A 
BRANCH  11  18
ATOM     17  C   UNL     1       7.383   4.794  12.854  0.00  0.00    +0.000 C 
ATOM     18  O   UNL     1       7.792   5.469  14.046  0.00  0.00    +0.000 OA
ENDBRANCH  11  18
BRANCH  16  19
ATOM     19  O   UNL     1       7.905   7.125  16.501  0.00  0.00    +0.000 OA
ATOM     20  C   UNL     1       7.750   7.847  17.711  0.00  0.00    +0.000 C 
ENDBRANCH  16  19
ENDBRANCH   1  14
BRANCH   9  21
ATOM     21  C   UNL     1       2.809   6.458  18.052  0.00  0.00    +0.000 C 
BRANCH  21  22
ATOM     22  C   UNL     1       2.080   7.607  18.760  0.00  0.00    +0.000 C 
BRANCH  22  23
ATOM     23  N   UNL     1       2.599   8.875  18.183  0.00  0.00    +0.000 NA
ATOM     24  H   UNL     1       3.178   8.670  17.368  0.00  0.00    +0.000 HD
BRANCH  23  25
ATOM     25  C   UNL     1       1.562   9.838  17.826  0.00  0.00    +0.000 C 
BRANCH  25  26
ATOM     26  C   UNL     1       0.409   9.824  18.857  0.00  0.00    +0.000 C 
BRANCH  26  27
ATOM     27  C   UNL     1      -0.339  11.165  18.838  0.00  0.00    +0.000 C 
BRANCH  27  28
ATOM     28  C   UNL     1      -1.801  11.073  18.373  0.00  0.00    +0.000 C 
BRANCH  28  29
ATOM     29  C   UNL     1      -2.688  11.945  19.276  0.00  0.00    +0.000 C 
BRANCH  29  30
ATOM     30  C   UNL     1      -2.033  12.311  20.610  0.00  0.00    +0.000 C 
BRANCH  30  31
ATOM     31  C   UNL     1      -3.074  12.479  21.696  0.00  0.00    +0.000 A 
ATOM     32  C   UNL     1      -4.359  12.953  21.386  0.00  0.00    +0.000 A 
ATOM     33  C   UNL     1      -5.304  13.165  22.393  0.00  0.00    +0.000 A 
ATOM     34  C   UNL     1      -4.961  12.904  23.718  0.00  0.00    +0.000 A 
ATOM     35  C   UNL     1      -3.694  12.429  24.047  0.00  0.00    +0.000 A 
ATOM     36  C   UNL     1      -2.752  12.219  23.037  0.00  0.00    +0.000 A 
BRANCH  34  37
ATOM     37  O   UNL     1      -5.843  13.102  24.736  0.00  0.00    +0.000 OA
ATOM     38  H   UNL     1      -6.518  13.736  24.436  0.00  0.00    +0.000 HD
ENDBRANCH  34  37
ENDBRANCH  30  31
ENDBRANCH  29  30
ENDBRANCH  28  29
ENDBRANCH  27  28
ENDBRANCH  26  27
ENDBRANCH  25  26
ENDBRANCH  23  25
ENDBRANCH  22  23
ENDBRANCH  21  22
ENDBRANCH   9  21
TORSDOF 14
ENDMDL
MODEL 2
REMARK VINA RESULT:      -7.8      2.329      3.404
REMARK  Name = 
REMARK  16 active torsions:
REMARK  status: ('A' for Active; 'I' for Inactive)
REMARK    1  A    between atoms: C_1  and  O_2
REMARK    2  A    between atoms: O_2  and  C_3
REMARK    3  A    between atoms: C_6  and  C_7
REMARK    4  A    between atoms: C_15  and  C_16
REMARK    5  A    between atoms: C_16  and  C_17
REMARK    6  A    between atoms: C_17  and  N_18
REMARK    7  A    between atoms: N_18  and  C_19
REMARK    8  A    between atoms: C_19  and  C_20
REMARK    9  A    between atoms: C_20  and  C_21
REMARK   10  A    between atoms: C_21  and  C_22
REMARK   11  A    between atoms: C_22  and  C_23
REMARK   12  A    between atoms: C_23  and  C_24
REMARK   13  A    between atoms: C_24  and  C_25
REMARK   14  A    between atoms: C_28  and  O_29
REMARK   15  A    between atoms: C_33  and  O_34
REMARK   16  A    between atoms: O_34  and  C_35
REMARK                            x       y       z     vdW  Elec       q    Type
REMARK                         _______ _______ _______ _____ _____    ______ ____
ROOT
ATOM      1  C   UNL     1       4.442   4.586  18.540  0.00  0.00    +0.000 A 
ATOM      2  N   UNL     1       4.580   3.603  19.487  0.00  0.00    +0.000 N 
ATOM      3  C   UNL     1       3.420   3.435  20.191  0.00  0.00    +0.000 A 
ATOM      4  C   UNL     1       3.121   2.469  21.162  0.00  0.00    +0.000 A 
ATOM      5  C   UNL     1       1.816   2.421  21.644  0.00  0.00    +0.000 A 
ATOM      6  C   UNL     1       0.859   3.310  21.163  0.00  0.00    +0.000 A 
ATOM      7  C   UNL     1       1.195   4.307  20.223  0.00  0.00    +0.000 A 
ATOM      8  C   UNL     1       2.515   4.393  19.726  0.00  0.00    +0.000 A 
ATOM      9  C   UNL     1       3.219   5.229  18.780  0.00  0.00    +0.000 A 
ATOM     10  H   UNL     1       5.370   2.980  19.555  0.00  0.00    +0.000 HD
ENDROOT
BRANCH   1  14
ATOM     11  C   UNL     1       7.146   5.225  15.276  0.00  0.00    +0.000 A 
ATOM     12  C   UNL     1       6.350   4.067  15.330  0.00  0.00    +0.000 A 
ATOM     13  C   UNL     1       5.497   3.835  16.410  0.00  0.00    +0.000 A 
ATOM     14  C   UNL     1       5.434   4.737  17.466  0.00  0.00    +0.000 A 
ATOM     15  C   UNL     1       6.288   5.849  17.434  0.00  0.00    +0.000 A 
ATOM     16  C   UNL     1       7.166   6.094  16.370  0.00  0.00    +0.000 A 
BRANCH  11  18
ATOM     17  C   UNL     1       7.494   4.859  12.963  0.00  0.00    +0.000 C 
ATOM     18  O   UNL     1       7.919   5.492  14.172  0.00  0.00    +0.000 OA
ENDBRANCH  11  18
BRANCH  16  19
ATOM     19  O   UNL     1       7.915   7.222  16.578  0.00  0.00    +0.000 OA
ATOM     20  C   UNL     1       7.967   7.779  17.881  0.00  0.00    +0.000 C 
ENDBRANCH  16  19
ENDBRANCH   1  14
BRANCH   9  21
ATOM     21  C   UNL     1       2.787   6.448  17.994  0.00  0.00    +0.000 C 
BRANCH  21  22
ATOM     22  C   UNL     1       1.631   7.346  18.455  0.00  0.00    +0.000 C 
BRANCH  22  23
ATOM     23  N   UNL     1       2.066   8.008  19.712  0.00  0.00    +0.000 NA
ATOM     24  H   UNL     1       2.049   9.020  19.592  0.00  0.00    +0.000 HD
BRANCH  23  25
ATOM     25  C   UNL     1       1.284   7.633  20.886  0.00  0.00    +0.000 C 
BRANCH  25  26
ATOM     26  C   UNL     1       1.244   8.782  21.921  0.00  0.00    +0.000 C 
BRANCH  26  27
ATOM     27  C   UNL     1      -0.202   9.055  22.360  0.00  0.00    +0.000 C 
BRANCH  27  28
ATOM     28  C   UNL     1      -0.367  10.256  23.303  0.00  0.00    +0.000 C 
BRANCH  28  29
ATOM     29  C   UNL     1      -1.609  11.067  22.899  0.00  0.00    +0.000 C 
BRANCH  29  30
ATOM     30  C   UNL     1      -1.281  12.357  22.145  0.00  0.00    +0.000 C 
BRANCH  30  31
ATOM     31  C   UNL     1      -0.437  12.070  20.922  0.00  0.00    +0.000 A 
ATOM     32  C   UNL     1      -0.954  11.311  19.860  0.00  0.00    +0.000 A 
ATOM     33  C   UNL     1      -0.160  10.993  18.756  0.00  0.00    +0.000 A 
ATOM     34  C   UNL     1       1.161  11.436  18.714  0.00  0.00    +0.000 A 
ATOM     35  C   UNL     1       1.693  12.194  19.754  0.00  0.00    +0.000 A 
ATOM     36  C   UNL     1       0.894  12.508  20.857  0.00  0.00    +0.000 A 
BRANCH  34  37
ATOM     37  O   UNL     1       1.979  11.146  17.664  0.00  0.00    +0.000 OA
ATOM     38  H   UNL     1       2.518  11.933  17.472  0.00  0.00    +0.000 HD
ENDBRANCH  34  37
ENDBRANCH  30  31
ENDBRANCH  29  30
ENDBRANCH  28  29
ENDBRANCH  27  28
ENDBRANCH  26  27
ENDBRANCH  25  26
ENDBRANCH  23  25
ENDBRANCH  22  23
ENDBRANCH  21  22
ENDBRANCH   9  21
TORSDOF 14
ENDMDL
MODEL 3
REMARK VINA RESULT:      -7.8      0.592      1.014
REMARK  Name = 
REMARK  16 active torsions:
REMARK  status: ('A' for Active; 'I' for Inactive)
REMARK    1  A    between atoms: C_1  and  O_2
REMARK    2  A    between atoms: O_2  and  C_3
REMARK    3  A    between atoms: C_6  and  C_7
REMARK    4  A    between atoms: C_15  and  C_16
REMARK    5  A    between atoms: C_16  and  C_17
REMARK    6  A    between atoms: C_17  and  N_18
REMARK    7  A    between atoms: N_18  and  C_19
REMARK    8  A    between atoms: C_19  and  C_20
REMARK    9  A    between atoms: C_20  and  C_21
REMARK   10  A    between atoms: C_21  and  C_22
REMARK   11  A    between atoms: C_22  and  C_23
REMARK   12  A    between atoms: C_23  and  C_24
REMARK   13  A    between atoms: C_24  and  C_25
REMARK   14  A    between atoms: C_28  and  O_29
REMARK   15  A    between atoms: C_33  and  O_34
REMARK   16  A    between atoms: O_34  and  C_35
REMARK                            x       y       z     vdW  Elec       q    Type
REMARK                         _______ _______ _______ _____ _____    ______ ____
ROOT
ATOM      1  C   UNL     1       4.387   4.467  18.522  0.00  0.00    +0.000 A 
ATOM      2  N   UNL     1       4.510   3.493  19.480  0.00  0.00    +0.000 N 
ATOM      3  C   UNL     1       3.340   3.334  20.169  0.00  0.00    +0.000 A 
ATOM      4  C   UNL     1       3.024   2.378  21.145  0.00  0.00    +0.000 A 
ATOM      5  C   UNL     1       1.713   2.337  21.608  0.00  0.00    +0.000 A 
ATOM      6  C   UNL     1       0.765   3.224  21.105  0.00  0.00    +0.000 A 
ATOM      7  C   UNL     1       1.116   4.211  20.161  0.00  0.00    +0.000 A 
ATOM      8  C   UNL     1       2.443   4.289  19.682  0.00  0.00    +0.000 A 
ATOM      9  C   UNL     1       3.162   5.115  18.737  0.00  0.00    +0.000 A 
ATOM     10  H   UNL     1       5.297   2.869  19.565  0.00  0.00    +0.000 HD
ENDROOT
BRANCH   1  14
ATOM     11  C   UNL     1       7.134   5.063  15.285  0.00  0.00    +0.000 A 
ATOM     12  C   UNL     1       6.359   3.892  15.360  0.00  0.00    +0.000 A 
ATOM     13  C   UNL     1       5.491   3.675  16.431  0.00  0.00    +0.000 A 
ATOM     14  C   UNL     1       5.394   4.606  17.459  0.00  0.00    +0.000 A 
ATOM     15  C   UNL     1       6.229   5.732  17.410  0.00  0.00    +0.000 A 
ATOM     16  C   UNL     1       7.121   5.963  16.354  0.00  0.00    +0.000 A 
BRANCH  11  18
ATOM     17  C   UNL     1       7.344   4.954  12.930  0.00  0.00    +0.000 C 
ATOM     18  O   UNL     1       7.921   5.312  14.187  0.00  0.00    +0.000 OA
ENDBRANCH  11  18
BRANCH  16  19
ATOM     19  O   UNL     1       7.845   7.110  16.542  0.00  0.00    +0.000 OA
ATOM     20  C   UNL     1       7.551   7.930  17.661  0.00  0.00    +0.000 C 
ENDBRANCH  16  19
ENDBRANCH   1  14
BRANCH   9  21
ATOM     21  C   UNL     1       2.744   6.328  17.934  0.00  0.00    +0.000 C 
BRANCH  21  22
ATOM     22  C   UNL     1       2.673   7.729  18.554  0.00  0.00    +0.000 C 
BRANCH  22  23
ATOM     23  N   UNL     1       1.809   8.554  17.670  0.00  0.00    +0.000 NA
ATOM     24  H   UNL     1       1.214   7.948  17.106  0.00  0.00    +0.000 HD
BRANCH  23  25
ATOM     25  C   UNL     1       0.991   9.533  18.380  0.00  0.00    +0.000 C 
BRANCH  25  26
ATOM     26  C   UNL     1      -0.332   9.807  17.626  0.00  0.00    +0.000 C 
BRANCH  26  27
ATOM     27  C   UNL     1      -1.176  10.839  18.387  0.00  0.00    +0.000 C 
BRANCH  27  28
ATOM     28  C   UNL     1      -2.693  10.687  18.200  0.00  0.00    +0.000 C 
BRANCH  28  29
ATOM     29  C   UNL     1      -3.425  11.813  18.947  0.00  0.00    +0.000 C 
BRANCH  29  30
ATOM     30  C   UNL     1      -2.505  12.660  19.831  0.00  0.00    +0.000 C 
BRANCH  30  31
ATOM     31  C   UNL     1      -2.989  12.669  21.264  0.00  0.00    +0.000 A 
ATOM     32  C   UNL     1      -2.220  12.083  22.281  0.00  0.00    +0.000 A 
ATOM     33  C   UNL     1      -2.690  12.037  23.596  0.00  0.00    +0.000 A 
ATOM     34  C   UNL     1      -3.938  12.578  23.895  0.00  0.00    +0.000 A 
ATOM     35  C   UNL     1      -4.716  13.168  22.902  0.00  0.00    +0.000 A 
ATOM     36  C   UNL     1      -4.243  13.212  21.588  0.00  0.00    +0.000 A 
BRANCH  34  37
ATOM     37  O   UNL     1      -4.445  12.551  25.159  0.00  0.00    +0.000 OA
ATOM     38  H   UNL     1      -4.484  11.624  25.451  0.00  0.00    +0.000 HD
ENDBRANCH  34  37
ENDBRANCH  30  31
ENDBRANCH  29  30
ENDBRANCH  28  29
ENDBRANCH  27  28
ENDBRANCH  26  27
ENDBRANCH  25  26
ENDBRANCH  23  25
ENDBRANCH  22  23
ENDBRANCH  21  22
ENDBRANCH   9  21
TORSDOF 14
ENDMDL
MODEL 4
REMARK VINA RESULT:      -7.8      1.065      1.364
REMARK  Name = 
REMARK  16 active torsions:
REMARK  status: ('A' for Active; 'I' for Inactive)
REMARK    1  A    between atoms: C_1  and  O_2
REMARK    2  A    between atoms: O_2  and  C_3
REMARK    3  A    between atoms: C_6  and  C_7
REMARK    4  A    between atoms: C_15  and  C_16
REMARK    5  A    between atoms: C_16  and  C_17
REMARK    6  A    between atoms: C_17  and  N_18
REMARK    7  A    between atoms: N_18  and  C_19
REMARK    8  A    between atoms: C_19  and  C_20
REMARK    9  A    between atoms: C_20  and  C_21
REMARK   10  A    between atoms: C_21  and  C_22
REMARK   11  A    between atoms: C_22  and  C_23
REMARK   12  A    between atoms: C_23  and  C_24
REMARK   13  A    between atoms: C_24  and  C_25
REMARK   14  A    between atoms: C_28  and  O_29
REMARK   15  A    between atoms: C_33  and  O_34
REMARK   16  A    between atoms: O_34  and  C_35
REMARK                            x       y       z     vdW  Elec       q    Type
REMARK                         _______ _______ _______ _____ _____    ______ ____
ROOT
ATOM      1  C   UNL     1       4.271   4.472  18.423  0.00  0.00    +0.000 A 
ATOM      2  N   UNL     1       4.507   3.557  19.417  0.00  0.00    +0.000 N 
ATOM      3  C   UNL     1       3.383   3.348  20.166  0.00  0.00    +0.000 A 
ATOM      4  C   UNL     1       3.181   2.420  21.198  0.00  0.00    +0.000 A 
ATOM      5  C   UNL     1       1.897   2.309  21.723  0.00  0.00    +0.000 A 
ATOM      6  C   UNL     1       0.866   3.100  21.226  0.00  0.00    +0.000 A 
ATOM      7  C   UNL     1       1.102   4.064  20.223  0.00  0.00    +0.000 A 
ATOM      8  C   UNL     1       2.398   4.213  19.680  0.00  0.00    +0.000 A 
ATOM      9  C   UNL     1       3.012   5.041  18.666  0.00  0.00    +0.000 A 
ATOM     10  H   UNL     1       5.341   2.995  19.493  0.00  0.00    +0.000 HD
ENDROOT
BRANCH   1  14
ATOM     11  C   UNL     1       6.857   5.159  15.073  0.00  0.00    +0.000 A 
ATOM     12  C   UNL     1       5.968   4.069  15.080  0.00  0.00    +0.000 A 
ATOM     13  C   UNL     1       5.151   3.818  16.183  0.00  0.00    +0.000 A 
ATOM     14  C   UNL     1       5.219   4.631  17.309  0.00  0.00    +0.000 A 
ATOM     15  C   UNL     1       6.163   5.668  17.318  0.00  0.00    +0.000 A 
ATOM     16  C   UNL     1       7.006   5.929  16.230  0.00  0.00    +0.000 A 
BRANCH  11  18
ATOM     17  C   UNL     1       7.391   4.577  12.841  0.00  0.00    +0.000 C 
ATOM     18  O   UNL     1       7.595   5.453  13.952  0.00  0.00    +0.000 OA
ENDBRANCH  11  18
BRANCH  16  19
ATOM     19  O   UNL     1       7.858   6.971  16.484  0.00  0.00    +0.000 OA
ATOM     20  C   UNL     1       7.685   7.722  17.674  0.00  0.00    +0.000 C 
ENDBRANCH  16  19
ENDBRANCH   1  14
BRANCH   9  21
ATOM     21  C   UNL     1       2.472   6.181  17.830  0.00  0.00    +0.000 C 
BRANCH  21  22
ATOM     22  C   UNL     1       3.011   7.611  17.960  0.00  0.00    +0.000 C 
BRANCH  22  23
ATOM     23  N   UNL     1       1.900   8.451  18.480  0.00  0.00    +0.000 NA
ATOM     24  H   UNL     1       1.889   8.413  19.499  0.00  0.00    +0.000 HD
BRANCH  23  25
ATOM     25  C   UNL     1       1.942   9.840  18.034  0.00  0.00    +0.000 C 
BRANCH  25  26
ATOM     26  C   UNL     1       0.737  10.639  18.584  0.00  0.00    +0.000 C 
BRANCH  26  27
ATOM     27  C   UNL     1       0.577  10.395  20.091  0.00  0.00    +0.000 C 
BRANCH  27  28
ATOM     28  C   UNL     1      -0.747  10.903  20.683  0.00  0.00    +0.000 C 
BRANCH  28  29
ATOM     29  C   UNL     1      -0.465  11.757  21.929  0.00  0.00    +0.000 C 
BRANCH  29  30
ATOM     30  C   UNL     1      -1.397  11.453  23.105  0.00  0.00    +0.000 C 
BRANCH  30  31
ATOM     31  C   UNL     1      -2.506  12.478  23.194  0.00  0.00    +0.000 A 
ATOM     32  C   UNL     1      -3.658  12.221  23.956  0.00  0.00    +0.000 A 
ATOM     33  C   UNL     1      -4.709  13.139  23.994  0.00  0.00    +0.000 A 
ATOM     34  C   UNL     1      -4.610  14.322  23.264  0.00  0.00    +0.000 A 
ATOM     35  C   UNL     1      -3.476  14.600  22.505  0.00  0.00    +0.000 A 
ATOM     36  C   UNL     1      -2.427  13.678  22.470  0.00  0.00    +0.000 A 
BRANCH  34  37
ATOM     37  O   UNL     1      -5.611  15.246  23.261  0.00  0.00    +0.000 OA
ATOM     38  H   UNL     1      -6.421  14.819  23.592  0.00  0.00    +0.000 HD
ENDBRANCH  34  37
ENDBRANCH  30  31
ENDBRANCH  29  30
ENDBRANCH  28  29
ENDBRANCH  27  28
ENDBRANCH  26  27
ENDBRANCH  25  26
ENDBRANCH  23  25
ENDBRANCH  22  23
ENDBRANCH  21  22
ENDBRANCH   9  21
TORSDOF 14
ENDMDL
MODEL 5
REMARK VINA RESULT:      -7.7      2.956      4.081
REMARK  Name = 
REMARK  16 active torsions:
REMARK  status: ('A' for Active; 'I' for Inactive)
REMARK    1  A    between atoms: C_1  and  O_2
REMARK    2  A    between atoms: O_2  and  C_3
REMARK    3  A    between atoms: C_6  and  C_7
REMARK    4  A    between atoms: C_15  and  C_16
REMARK    5  A    between atoms: C_16  and  C_17
REMARK    6  A    between atoms: C_17  and  N_18
REMARK    7  A    between atoms: N_18  and  C_19
REMARK    8  A    between atoms: C_19  and  C_20
REMARK    9  A    between atoms: C_20  and  C_21
REMARK   10  A    between atoms: C_21  and  C_22
REMARK   11  A    between atoms: C_22  and  C_23
REMARK   12  A    between atoms: C_23  and  C_24
REMARK   13  A    between atoms: C_24  and  C_25
REMARK   14  A    between atoms: C_28  and  O_29
REMARK   15  A    between atoms: C_33  and  O_34
REMARK   16  A    between atoms: O_34  and  C_35
REMARK                            x       y       z     vdW  Elec       q    Type
REMARK                         _______ _______ _______ _____ _____    ______ ____
ROOT
ATOM      1  C   UNL     1       4.283   4.450  18.454  0.00  0.00    +0.000 A 
ATOM      2  N   UNL     1       4.500   3.533  19.450  0.00  0.00    +0.000 N 
ATOM      3  C   UNL     1       3.359   3.315  20.171  0.00  0.00    +0.000 A 
ATOM      4  C   UNL     1       3.138   2.382  21.194  0.00  0.00    +0.000 A 
ATOM      5  C   UNL     1       1.843   2.261  21.688  0.00  0.00    +0.000 A 
ATOM      6  C   UNL     1       0.819   3.048  21.169  0.00  0.00    +0.000 A 
ATOM      7  C   UNL     1       1.074   4.017  20.176  0.00  0.00    +0.000 A 
ATOM      8  C   UNL     1       2.382   4.175  19.664  0.00  0.00    +0.000 A 
ATOM      9  C   UNL     1       3.016   5.011  18.669  0.00  0.00    +0.000 A 
ATOM     10  H   UNL     1       5.335   2.975  19.544  0.00  0.00    +0.000 HD
ENDROOT
BRANCH   1  14
ATOM     11  C   UNL     1       6.937   5.152  15.160  0.00  0.00    +0.000 A 
ATOM     12  C   UNL     1       6.101   4.022  15.178  0.00  0.00    +0.000 A 
ATOM     13  C   UNL     1       5.263   3.768  16.265  0.00  0.00    +0.000 A 
ATOM     14  C   UNL     1       5.257   4.619  17.364  0.00  0.00    +0.000 A 
ATOM     15  C   UNL     1       6.150   5.699  17.366  0.00  0.00    +0.000 A 
ATOM     16  C   UNL     1       7.014   5.965  16.295  0.00  0.00    +0.000 A 
BRANCH  11  18
ATOM     17  C   UNL     1       7.329   4.746  12.862  0.00  0.00    +0.000 C 
ATOM     18  O   UNL     1       7.695   5.446  14.053  0.00  0.00    +0.000 OA
ENDBRANCH  11  18
BRANCH  16  19
ATOM     19  O   UNL     1       7.808   7.054  16.539  0.00  0.00    +0.000 OA
ATOM     20  C   UNL     1       7.729   7.689  17.805  0.00  0.00    +0.000 C 
ENDBRANCH  16  19
ENDBRANCH   1  14
BRANCH   9  21
ATOM     21  C   UNL     1       2.490   6.151  17.824  0.00  0.00    +0.000 C 
BRANCH  21  22
ATOM     22  C   UNL     1       2.161   7.524  18.423  0.00  0.00    +0.000 C 
BRANCH  22  23
ATOM     23  N   UNL     1       2.577   7.489  19.849  0.00  0.00    +0.000 NA
ATOM     24  H   UNL     1       3.391   8.088  19.985  0.00  0.00    +0.000 HD
BRANCH  23  25
ATOM     25  C   UNL     1       1.523   7.862  20.788  0.00  0.00    +0.000 C 
BRANCH  25  26
ATOM     26  C   UNL     1       0.899   9.227  20.415  0.00  0.00    +0.000 C 
BRANCH  26  27
ATOM     27  C   UNL     1      -0.408   9.446  21.189  0.00  0.00    +0.000 C 
BRANCH  27  28
ATOM     28  C   UNL     1      -0.866  10.911  21.267  0.00  0.00    +0.000 C 
BRANCH  28  29
ATOM     29  C   UNL     1       0.360  11.835  21.332  0.00  0.00    +0.000 C 
BRANCH  29  30
ATOM     30  C   UNL     1       0.094  13.246  20.801  0.00  0.00    +0.000 C 
BRANCH  30  31
ATOM     31  C   UNL     1       1.174  13.672  19.832  0.00  0.00    +0.000 A 
ATOM     32  C   UNL     1       1.798  12.730  18.998  0.00  0.00    +0.000 A 
ATOM     33  C   UNL     1       2.836  13.109  18.143  0.00  0.00    +0.000 A 
ATOM     34  C   UNL     1       3.255  14.438  18.125  0.00  0.00    +0.000 A 
ATOM     35  C   UNL     1       2.648  15.389  18.941  0.00  0.00    +0.000 A 
ATOM     36  C   UNL     1       1.611  15.006  19.794  0.00  0.00    +0.000 A 
BRANCH  34  37
ATOM     37  O   UNL     1       4.269  14.856  17.316  0.00  0.00    +0.000 OA
ATOM     38  H   UNL     1       4.747  14.071  16.997  0.00  0.00    +0.000 HD
ENDBRANCH  34  37
ENDBRANCH  30  31
ENDBRANCH  29  30
ENDBRANCH  28  29
ENDBRANCH  27  28
ENDBRANCH  26  27
ENDBRANCH  25  26
ENDBRANCH  23  25
ENDBRANCH  22  23
ENDBRANCH  21  22
ENDBRANCH   9  21
TORSDOF 14
ENDMDL
MODEL 6
REMARK VINA RESULT:      -7.7      1.047      1.557
REMARK  Name = 
REMARK  16 active torsions:
REMARK  status: ('A' for Active; 'I' for Inactive)
REMARK    1  A    between atoms: C_1  and  O_2
REMARK    2  A    between atoms: O_2  and  C_3
REMARK    3  A    between atoms: C_6  and  C_7
REMARK    4  A    between atoms: C_15  and  C_16
REMARK    5  A    between atoms: C_16  and  C_17
REMARK    6  A    between atoms: C_17  and  N_18
REMARK    7  A    between atoms: N_18  and  C_19
REMARK    8  A    between atoms: C_19  and  C_20
REMARK    9  A    between atoms: C_20  and  C_21
REMARK   10  A    between atoms: C_21  and  C_22
REMARK   11  A    between atoms: C_22  and  C_23
REMARK   12  A    between atoms: C_23  and  C_24
REMARK   13  A    between atoms: C_24  and  C_25
REMARK   14  A    between atoms: C_28  and  O_29
REMARK   15  A    between atoms: C_33  and  O_34
REMARK   16  A    between atoms: O_34  and  C_35
REMARK                            x       y       z     vdW  Elec       q    Type
REMARK                         _______ _______ _______ _____ _____    ______ ____
ROOT
ATOM      1  C   UNL     1       4.321   4.441  18.547  0.00  0.00    +0.000 A 
ATOM      2  N   UNL     1       4.510   3.491  19.519  0.00  0.00    +0.000 N 
ATOM      3  C   UNL     1       3.363   3.288  20.235  0.00  0.00    +0.000 A 
ATOM      4  C   UNL     1       3.113   2.336  21.232  0.00  0.00    +0.000 A 
ATOM      5  C   UNL     1       1.814   2.241  21.723  0.00  0.00    +0.000 A 
ATOM      6  C   UNL     1       0.815   3.072  21.225  0.00  0.00    +0.000 A 
ATOM      7  C   UNL     1       1.099   4.058  20.258  0.00  0.00    +0.000 A 
ATOM      8  C   UNL     1       2.412   4.191  19.750  0.00  0.00    +0.000 A 
ATOM      9  C   UNL     1       3.071   5.033  18.777  0.00  0.00    +0.000 A 
ATOM     10  H   UNL     1       5.328   2.906  19.598  0.00  0.00    +0.000 HD
ENDROOT
BRANCH   1  14
ATOM     11  C   UNL     1       7.003   5.157  15.280  0.00  0.00    +0.000 A 
ATOM     12  C   UNL     1       6.103   4.077  15.244  0.00  0.00    +0.000 A 
ATOM     13  C   UNL     1       5.255   3.816  16.321  0.00  0.00    +0.000 A 
ATOM     14  C   UNL     1       5.300   4.609  17.463  0.00  0.00    +0.000 A 
ATOM     15  C   UNL     1       6.255   5.635  17.515  0.00  0.00    +0.000 A 
ATOM     16  C   UNL     1       7.129   5.905  16.454  0.00  0.00    +0.000 A 
BRANCH  11  18
ATOM     17  C   UNL     1       7.282   4.969  12.937  0.00  0.00    +0.000 C 
ATOM     18  O   UNL     1       7.774   5.463  14.185  0.00  0.00    +0.000 OA
ENDBRANCH  11  18
BRANCH  16  19
ATOM     19  O   UNL     1       7.985   6.933  16.749  0.00  0.00    +0.000 OA
ATOM     20  C   UNL     1       7.494   8.043  17.482  0.00  0.00    +0.000 C 
ENDBRANCH  16  19
ENDBRANCH   1  14
BRANCH   9  21
ATOM     21  C   UNL     1       2.580   6.210  17.963  0.00  0.00    +0.000 C 
BRANCH  21  22
ATOM     22  C   UNL     1       2.254   7.565  18.605  0.00  0.00    +0.000 C 
BRANCH  22  23
ATOM     23  N   UNL     1       2.411   7.402  20.073  0.00  0.00    +0.000 NA
ATOM     24  H   UNL     1       3.169   7.996  20.407  0.00  0.00    +0.000 HD
BRANCH  23  25
ATOM     25  C   UNL     1       1.196   7.669  20.837  0.00  0.00    +0.000 C 
BRANCH  25  26
ATOM     26  C   UNL     1       1.292   9.021  21.583  0.00  0.00    +0.000 C 
BRANCH  26  27
ATOM     27  C   UNL     1       0.385  10.065  20.915  0.00  0.00    +0.000 C 
BRANCH  27  28
ATOM     28  C   UNL     1       0.970  11.485  20.872  0.00  0.00    +0.000 C 
BRANCH  28  29
ATOM     29  C   UNL     1      -0.169  12.513  20.781  0.00  0.00    +0.000 C 
BRANCH  29  30
ATOM     30  C   UNL     1      -1.550  11.883  20.584  0.00  0.00    +0.000 C 
BRANCH  30  31
ATOM     31  C   UNL     1      -2.533  12.401  21.610  0.00  0.00    +0.000 A 
ATOM     32  C   UNL     1      -2.450  11.990  22.950  0.00  0.00    +0.000 A 
ATOM     33  C   UNL     1      -3.391  12.420  23.889  0.00  0.00    +0.000 A 
ATOM     34  C   UNL     1      -4.423  13.265  23.484  0.00  0.00    +0.000 A 
ATOM     35  C   UNL     1      -4.522  13.688  22.161  0.00  0.00    +0.000 A 
ATOM     36  C   UNL     1      -3.579  13.255  21.226  0.00  0.00    +0.000 A 
BRANCH  34  37
ATOM     37  O   UNL     1      -5.370  13.706  24.359  0.00  0.00    +0.000 OA
ATOM     38  H   UNL     1      -6.232  13.687  23.909  0.00  0.00    +0.000 HD
ENDBRANCH  34  37
ENDBRANCH  30  31
ENDBRANCH  29  30
ENDBRANCH  28  29
ENDBRANCH  27  28
ENDBRANCH  26  27
ENDBRANCH  25  26
ENDBRANCH  23  25
ENDBRANCH  22  23
ENDBRANCH  21  22
ENDBRANCH   9  21
TORSDOF 14
ENDMDL
MODEL 7
REMARK VINA RESULT:      -7.6      1.832      2.449
REMARK  Name = 
REMARK  16 active torsions:
REMARK  status: ('A' for Active; 'I' for Inactive)
REMARK    1  A    between atoms: C_1  and  O_2
REMARK    2  A    between atoms: O_2  and  C_3
REMARK    3  A    between atoms: C_6  and  C_7
REMARK    4  A    between atoms: C_15  and  C_16
REMARK    5  A    between atoms: C_16  and  C_17
REMARK    6  A    between atoms: C_17  and  N_18
REMARK    7  A    between atoms: N_18  and  C_19
REMARK    8  A    between atoms: C_19  and  C_20
REMARK    9  A    between atoms: C_20  and  C_21
REMARK   10  A    between atoms: C_21  and  C_22
REMARK   11  A    between atoms: C_22  and  C_23
REMARK   12  A    between atoms: C_23  and  C_24
REMARK   13  A    between atoms: C_24  and  C_25
REMARK   14  A    between atoms: C_28  and  O_29
REMARK   15  A    between atoms: C_33  and  O_34
REMARK   16  A    between atoms: O_34  and  C_35
REMARK                            x       y       z     vdW  Elec       q    Type
REMARK                         _______ _______ _______ _____ _____    ______ ____
ROOT
ATOM      1  C   UNL     1       4.442   4.530  18.531  0.00  0.00    +0.000 A 
ATOM      2  N   UNL     1       4.570   3.514  19.444  0.00  0.00    +0.000 N 
ATOM      3  C   UNL     1       3.424   3.362  20.172  0.00  0.00    +0.000 A 
ATOM      4  C   UNL     1       3.115   2.377  21.121  0.00  0.00    +0.000 A 
ATOM      5  C   UNL     1       1.822   2.359  21.634  0.00  0.00    +0.000 A 
ATOM      6  C   UNL     1       0.885   3.294  21.206  0.00  0.00    +0.000 A 
ATOM      7  C   UNL     1       1.231   4.309  20.289  0.00  0.00    +0.000 A 
ATOM      8  C   UNL     1       2.540   4.365  19.760  0.00  0.00    +0.000 A 
ATOM      9  C   UNL     1       3.249   5.206  18.822  0.00  0.00    +0.000 A 
ATOM     10  H   UNL     1       5.340   2.862  19.472  0.00  0.00    +0.000 HD
ENDROOT
BRANCH   1  14
ATOM     11  C   UNL     1       7.082   5.176  15.215  0.00  0.00    +0.000 A 
ATOM     12  C   UNL     1       6.262   4.035  15.266  0.00  0.00    +0.000 A 
ATOM     13  C   UNL     1       5.429   3.799  16.361  0.00  0.00    +0.000 A 
ATOM     14  C   UNL     1       5.412   4.681  17.436  0.00  0.00    +0.000 A 
ATOM     15  C   UNL     1       6.291   5.774  17.406  0.00  0.00    +0.000 A 
ATOM     16  C   UNL     1       7.149   6.021  16.326  0.00  0.00    +0.000 A 
BRANCH  11  18
ATOM     17  C   UNL     1       7.297   4.960  12.868  0.00  0.00    +0.000 C 
ATOM     18  O   UNL     1       7.835   5.448  14.099  0.00  0.00    +0.000 OA
ENDBRANCH  11  18
BRANCH  16  19
ATOM     19  O   UNL     1       7.927   7.128  16.539  0.00  0.00    +0.000 OA
ATOM     20  C   UNL     1       7.694   7.919  17.692  0.00  0.00    +0.000 C 
ENDBRANCH  16  19
ENDBRANCH   1  14
BRANCH   9  21
ATOM     21  C   UNL     1       2.840   6.463  18.085  0.00  0.00    +0.000 C 
BRANCH  21  22
ATOM     22  C   UNL     1       1.822   7.453  18.667  0.00  0.00    +0.000 C 
BRANCH  22  23
ATOM     23  N   UNL     1       2.331   7.871  19.999  0.00  0.00    +0.000 NA
ATOM     24  H   UNL     1       2.823   8.760  19.916  0.00  0.00    +0.000 HD
BRANCH  23  25
ATOM     25  C   UNL     1       1.301   7.966  21.029  0.00  0.00    +0.000 C 
BRANCH  25  26
ATOM     26  C   UNL     1       0.182   8.949  20.611  0.00  0.00    +0.000 C 
BRANCH  26  27
ATOM     27  C   UNL     1       0.750  10.366  20.444  0.00  0.00    +0.000 C 
BRANCH  27  28
ATOM     28  C   UNL     1       0.181  11.145  19.249  0.00  0.00    +0.000 C 
BRANCH  28  29
ATOM     29  C   UNL     1      -1.133  10.496  18.784  0.00  0.00    +0.000 C 
BRANCH  29  30
ATOM     30  C   UNL     1      -1.888  11.319  17.738  0.00  0.00    +0.000 C 
BRANCH  30  31
ATOM     31  C   UNL     1      -3.327  11.535  18.154  0.00  0.00    +0.000 A 
ATOM     32  C   UNL     1      -3.632  12.187  19.360  0.00  0.00    +0.000 A 
ATOM     33  C   UNL     1      -4.957  12.336  19.776  0.00  0.00    +0.000 A 
ATOM     34  C   UNL     1      -5.983  11.827  18.983  0.00  0.00    +0.000 A 
ATOM     35  C   UNL     1      -5.704  11.181  17.782  0.00  0.00    +0.000 A 
ATOM     36  C   UNL     1      -4.377  11.033  17.370  0.00  0.00    +0.000 A 
BRANCH  34  37
ATOM     37  O   UNL     1      -7.291  11.939  19.348  0.00  0.00    +0.000 OA
ATOM     38  H   UNL     1      -7.324  12.257  20.268  0.00  0.00    +0.000 HD
ENDBRANCH  34  37
ENDBRANCH  30  31
ENDBRANCH  29  30
ENDBRANCH  28  29
ENDBRANCH  27  28
ENDBRANCH  26  27
ENDBRANCH  25  26
ENDBRANCH  23  25
ENDBRANCH  22  23
ENDBRANCH  21  22
ENDBRANCH   9  21
TORSDOF 14
ENDMDL
MODEL 8
REMARK VINA RESULT:      -7.6      2.584      3.510
REMARK  Name = 
REMARK  16 active torsions:
REMARK  status: ('A' for Active; 'I' for Inactive)
REMARK    1  A    between atoms: C_1  and  O_2
REMARK    2  A    between atoms: O_2  and  C_3
REMARK    3  A    between atoms: C_6  and  C_7
REMARK    4  A    between atoms: C_15  and  C_16
REMARK    5  A    between atoms: C_16  and  C_17
REMARK    6  A    between atoms: C_17  and  N_18
REMARK    7  A    between atoms: N_18  and  C_19
REMARK    8  A    between atoms: C_19  and  C_20
REMARK    9  A    between atoms: C_20  and  C_21
REMARK   10  A    between atoms: C_21  and  C_22
REMARK   11  A    between atoms: C_22  and  C_23
REMARK   12  A    between atoms: C_23  and  C_24
REMARK   13  A    between atoms: C_24  and  C_25
REMARK   14  A    between atoms: C_28  and  O_29
REMARK   15  A    between atoms: C_33  and  O_34
REMARK   16  A    between atoms: O_34  and  C_35
REMARK                            x       y       z     vdW  Elec       q    Type
REMARK                         _______ _______ _______ _____ _____    ______ ____
ROOT
ATOM      1  C   UNL     1       4.330   4.427  18.474  0.00  0.00    +0.000 A 
ATOM      2  N   UNL     1       4.564   3.489  19.447  0.00  0.00    +0.000 N 
ATOM      3  C   UNL     1       3.443   3.275  20.201  0.00  0.00    +0.000 A 
ATOM      4  C   UNL     1       3.240   2.328  21.214  0.00  0.00    +0.000 A 
ATOM      5  C   UNL     1       1.959   2.218  21.747  0.00  0.00    +0.000 A 
ATOM      6  C   UNL     1       0.931   3.029  21.273  0.00  0.00    +0.000 A 
ATOM      7  C   UNL     1       1.170   4.011  20.289  0.00  0.00    +0.000 A 
ATOM      8  C   UNL     1       2.463   4.159  19.739  0.00  0.00    +0.000 A 
ATOM      9  C   UNL     1       3.079   5.002  18.738  0.00  0.00    +0.000 A 
ATOM     10  H   UNL     1       5.393   2.918  19.506  0.00  0.00    +0.000 HD
ENDROOT
BRANCH   1  14
ATOM     11  C   UNL     1       6.890   5.147  15.112  0.00  0.00    +0.000 A 
ATOM     12  C   UNL     1       6.036   4.030  15.135  0.00  0.00    +0.000 A 
ATOM     13  C   UNL     1       5.229   3.769  16.243  0.00  0.00    +0.000 A 
ATOM     14  C   UNL     1       5.272   4.600  17.357  0.00  0.00    +0.000 A 
ATOM     15  C   UNL     1       6.183   5.666  17.350  0.00  0.00    +0.000 A 
ATOM     16  C   UNL     1       7.016   5.938  16.258  0.00  0.00    +0.000 A 
BRANCH  11  18
ATOM     17  C   UNL     1       7.348   4.627  12.848  0.00  0.00    +0.000 C 
ATOM     18  O   UNL     1       7.618   5.449  13.986  0.00  0.00    +0.000 OA
ENDBRANCH  11  18
BRANCH  16  19
ATOM     19  O   UNL     1       7.835   7.009  16.496  0.00  0.00    +0.000 OA
ATOM     20  C   UNL     1       7.678   7.736  17.704  0.00  0.00    +0.000 C 
ENDBRANCH  16  19
ENDBRANCH   1  14
BRANCH   9  21
ATOM     21  C   UNL     1       2.543   6.164  17.929  0.00  0.00    +0.000 C 
BRANCH  21  22
ATOM     22  C   UNL     1       2.397   7.570  18.524  0.00  0.00    +0.000 C 
BRANCH  22  23
ATOM     23  N   UNL     1       2.355   7.418  20.002  0.00  0.00    +0.000 NA
ATOM     24  H   UNL     1       3.281   7.590  20.391  0.00  0.00    +0.000 HD
BRANCH  23  25
ATOM     25  C   UNL     1       1.371   8.269  20.662  0.00  0.00    +0.000 C 
BRANCH  25  26
ATOM     26  C   UNL     1       1.069   9.532  19.821  0.00  0.00    +0.000 C 
BRANCH  26  27
ATOM     27  C   UNL     1      -0.429   9.864  19.875  0.00  0.00    +0.000 C 
BRANCH  27  28
ATOM     28  C   UNL     1      -0.832  11.124  19.093  0.00  0.00    +0.000 C 
BRANCH  28  29
ATOM     29  C   UNL     1      -1.812  11.962  19.930  0.00  0.00    +0.000 C 
BRANCH  29  30
ATOM     30  C   UNL     1      -1.460  13.451  19.976  0.00  0.00    +0.000 C 
BRANCH  30  31
ATOM     31  C   UNL     1       0.036  13.657  19.878  0.00  0.00    +0.000 A 
ATOM     32  C   UNL     1       0.868  13.380  20.974  0.00  0.00    +0.000 A 
ATOM     33  C   UNL     1       2.242  13.624  20.908  0.00  0.00    +0.000 A 
ATOM     34  C   UNL     1       2.786  14.151  19.738  0.00  0.00    +0.000 A 
ATOM     35  C   UNL     1       1.980  14.430  18.638  0.00  0.00    +0.000 A 
ATOM     36  C   UNL     1       0.606  14.185  18.709  0.00  0.00    +0.000 A 
BRANCH  34  37
ATOM     37  O   UNL     1       4.118  14.415  19.626  0.00  0.00    +0.000 OA
ATOM     38  H   UNL     1       4.265  15.349  19.857  0.00  0.00    +0.000 HD
ENDBRANCH  34  37
ENDBRANCH  30  31
ENDBRANCH  29  30
ENDBRANCH  28  29
ENDBRANCH  27  28
ENDBRANCH  26  27
ENDBRANCH  25  26
ENDBRANCH  23  25
ENDBRANCH  22  23
ENDBRANCH  21  22
ENDBRANCH   9  21
TORSDOF 14
ENDMDL
MODEL 9
REMARK VINA RESULT:      -7.4      2.644      5.042
REMARK  Name = 
REMARK  16 active torsions:
REMARK  status: ('A' for Active; 'I' for Inactive)
REMARK    1  A    between atoms: C_1  and  O_2
REMARK    2  A    between atoms: O_2  and  C_3
REMARK    3  A    between atoms: C_6  and  C_7
REMARK    4  A    between atoms: C_15  and  C_16
REMARK    5  A    between atoms: C_16  and  C_17
REMARK    6  A    between atoms: C_17  and  N_18
REMARK    7  A    between atoms: N_18  and  C_19
REMARK    8  A    between atoms: C_19  and  C_20
REMARK    9  A    between atoms: C_20  and  C_21
REMARK   10  A    between atoms: C_21  and  C_22
REMARK   11  A    between atoms: C_22  and  C_23
REMARK   12  A    between atoms: C_23  and  C_24
REMARK   13  A    between atoms: C_24  and  C_25
REMARK   14  A    between atoms: C_28  and  O_29
REMARK   15  A    between atoms: C_33  and  O_34
REMARK   16  A    between atoms: O_34  and  C_35
REMARK                            x       y       z     vdW  Elec       q    Type
REMARK                         _______ _______ _______ _____ _____    ______ ____
ROOT
ATOM      1  C   UNL     1       1.726   8.258  20.160  0.00  0.00    +0.000 A 
ATOM      2  N   UNL     1       1.501   8.207  21.512  0.00  0.00    +0.000 N 
ATOM      3  C   UNL     1       0.633   9.188  21.902  0.00  0.00    +0.000 A 
ATOM      4  C   UNL     1       0.071   9.404  23.167  0.00  0.00    +0.000 A 
ATOM      5  C   UNL     1      -0.896  10.399  23.283  0.00  0.00    +0.000 A 
ATOM      6  C   UNL     1      -1.276  11.139  22.167  0.00  0.00    +0.000 A 
ATOM      7  C   UNL     1      -0.661  10.939  20.913  0.00  0.00    +0.000 A 
ATOM      8  C   UNL     1       0.336   9.948  20.766  0.00  0.00    +0.000 A 
ATOM      9  C   UNL     1       1.155   9.448  19.685  0.00  0.00    +0.000 A 
ATOM     10  H   UNL     1       1.803   7.457  22.115  0.00  0.00    +0.000 HD
ENDROOT
BRANCH   1  14
ATOM     11  C   UNL     1       3.844   5.026  18.302  0.00  0.00    +0.000 A 
ATOM     12  C   UNL     1       3.718   6.267  17.653  0.00  0.00    +0.000 A 
ATOM     13  C   UNL     1       2.997   7.311  18.235  0.00  0.00    +0.000 A 
ATOM     14  C   UNL     1       2.369   7.134  19.463  0.00  0.00    +0.000 A 
ATOM     15  C   UNL     1       2.439   5.868  20.063  0.00  0.00    +0.000 A 
ATOM     16  C   UNL     1       3.141   4.800  19.489  0.00  0.00    +0.000 A 
BRANCH  11  18
ATOM     17  C   UNL     1       6.031   4.292  17.772  0.00  0.00    +0.000 C 
ATOM     18  O   UNL     1       4.625   4.032  17.767  0.00  0.00    +0.000 OA
ENDBRANCH  11  18
BRANCH  16  19
ATOM     19  O   UNL     1       3.042   3.662  20.245  0.00  0.00    +0.000 OA
ATOM     20  C   UNL     1       2.157   3.650  21.352  0.00  0.00    +0.000 C 
ENDBRANCH  16  19
ENDBRANCH   1  14
BRANCH   9  21
ATOM     21  C   UNL     1       1.312   9.895  18.248  0.00  0.00    +0.000 C 
BRANCH  21  22
ATOM     22  C   UNL     1       2.209  11.077  17.857  0.00  0.00    +0.000 C 
BRANCH  22  23
ATOM     23  N   UNL     1       1.481  12.319  18.224  0.00  0.00    +0.000 NA
ATOM     24  H   UNL     1       0.755  12.103  18.906  0.00  0.00    +0.000 HD
BRANCH  23  25
ATOM     25  C   UNL     1       2.337  13.386  18.729  0.00  0.00    +0.000 C 
BRANCH  25  26
ATOM     26  C   UNL     1       2.049  13.675  20.221  0.00  0.00    +0.000 C 
BRANCH  26  27
ATOM     27  C   UNL     1       0.578  14.070  20.414  0.00  0.00    +0.000 C 
BRANCH  27  28
ATOM     28  C   UNL     1       0.350  15.562  20.703  0.00  0.00    +0.000 C 
BRANCH  28  29
ATOM     29  C   UNL     1      -0.885  15.733  21.603  0.00  0.00    +0.000 C 
BRANCH  29  30
ATOM     30  C   UNL     1      -2.170  15.166  20.995  0.00  0.00    +0.000 C 
BRANCH  30  31
ATOM     31  C   UNL     1      -2.937  14.352  22.013  0.00  0.00    +0.000 A 
ATOM     32  C   UNL     1      -2.554  14.354  23.364  0.00  0.00    +0.000 A 
ATOM     33  C   UNL     1      -3.222  13.558  24.298  0.00  0.00    +0.000 A 
ATOM     34  C   UNL     1      -4.278  12.752  23.877  0.00  0.00    +0.000 A 
ATOM     35  C   UNL     1      -4.677  12.737  22.543  0.00  0.00    +0.000 A 
ATOM     36  C   UNL     1      -4.006  13.535  21.613  0.00  0.00    +0.000 A 
BRANCH  34  37
ATOM     37  O   UNL     1      -4.957  11.952  24.746  0.00  0.00    +0.000 OA
ATOM     38  H   UNL     1      -5.503  12.518  25.319  0.00  0.00    +0.000 HD
ENDBRANCH  34  37
ENDBRANCH  30  31
ENDBRANCH  29  30
ENDBRANCH  28  29
ENDBRANCH  27  28
ENDBRANCH  26  27
ENDBRANCH  25  26
ENDBRANCH  23  25
ENDBRANCH  22  23
ENDBRANCH  21  22
ENDBRANCH   9  21
TORSDOF 14
ENDMDL
