MODEL 1
REMARK VINA RESULT:      -8.2      0.000      0.000
REMARK  Name = 
REMARK  8 active torsions:
REMARK  status: ('A' for Active; 'I' for Inactive)
REMARK    1  A    between atoms: C_1  and  C_2
REMARK    2  A    between atoms: C_2  and  N_3
REMARK    3  A    between atoms: N_3  and  N_4
REMARK    4  A    between atoms: N_4  and  C_5
REMARK    5  A    between atoms: C_8  and  N_9
REMARK    6  A    between atoms: C_13  and  N_14
REMARK    7  A    between atoms: N_20  and  C_21
REMARK    8  A    between atoms: N_24  and  C_25
REMARK                            x       y       z     vdW  Elec       q    Type
REMARK                         _______ _______ _______ _____ _____    ______ ____
ROOT
ATOM      1  N   UNL     1       2.218   7.604  19.232  0.00  0.00    +0.000 N 
ATOM      2  H   UNL     1       2.587   7.489  20.191  0.00  0.00    +0.000 HD
ENDROOT
BRANCH   1   4
ATOM      3  C   UNL     1       1.842   9.399  17.582  0.00  0.00    +0.000 C 
ATOM      4  C   UNL     1       1.677   8.876  19.000  0.00  0.00    +0.000 C 
ATOM      5  C   UNL     1       1.035   9.614  19.962  0.00  0.00    +0.000 C 
ATOM      6  C   UNL     1       0.896   9.050  21.338  0.00  0.00    +0.000 C 
ATOM      7  O   UNL     1       1.299   7.920  21.605  0.00  0.00    +0.000 OA
ATOM      8  N   UNL     1       0.296   9.862  22.284  0.00  0.00    +0.000 N 
ATOM      9  C   UNL     1       0.166   9.361  23.642  0.00  0.00    +0.000 C 
ATOM     10  C   UNL     1      -0.200  11.137  22.060  0.00  0.00    +0.000 C 
ATOM     11  O   UNL     1      -0.703  11.793  22.975  0.00  0.00    +0.000 OA
ATOM     12  N   UNL     1      -0.097  11.626  20.775  0.00  0.00    +0.000 N 
ATOM     13  C   UNL     1      -0.611  12.966  20.509  0.00  0.00    +0.000 C 
ATOM     14  C   UNL     1       0.482  10.973  19.699  0.00  0.00    +0.000 C 
ATOM     15  O   UNL     1       0.536  11.510  18.593  0.00  0.00    +0.000 OA
ENDBRANCH   1   4
BRANCH   1  16
ATOM     16  N   UNL     1       2.237   6.484  18.436  0.00  0.00    +0.000 N 
ATOM     17  H   UNL     1       1.545   5.754  18.649  0.00  0.00    +0.000 HD
BRANCH  16  18
ATOM     18  C   UNL     1       3.430   6.020  17.818  0.00  0.00    +0.000 A 
ATOM     19  C   UNL     1       4.422   6.976  17.517  0.00  0.00    +0.000 A 
ATOM     20  C   UNL     1       5.648   6.625  16.941  0.00  0.00    +0.000 A 
ATOM     21  C   UNL     1       5.921   5.285  16.673  0.00  0.00    +0.000 A 
ATOM     22  C   UNL     1       4.960   4.302  16.934  0.00  0.00    +0.000 A 
ATOM     23  C   UNL     1       3.712   4.676  17.487  0.00  0.00    +0.000 A 
BRANCH  21  24
ATOM     24  N   UNL     1       7.233   4.902  16.130  0.00  0.00    +0.000 N 
ATOM     25  O   UNL     1       7.969   4.210  16.844  0.00  0.00    +0.000 OA
ATOM     26  O   UNL     1       7.516   5.289  14.989  0.00  0.00    +0.000 OA
ENDBRANCH  21  24
BRANCH  23  27
ATOM     27  N   UNL     1       2.742   3.589  17.714  0.00  0.00    +0.000 N 
ATOM     28  O   UNL     1       3.133   2.573  18.309  0.00  0.00    +0.000 OA
ATOM     29  O   UNL     1       1.581   3.751  17.305  0.00  0.00    +0.000 OA
ENDBRANCH  23  27
ENDBRANCH  16  18
ENDBRANCH   1  16
TORSDOF 5
ENDMDL
MODEL 2
REMARK VINA RESULT:      -8.2      2.590      4.370
REMARK  Name = 
REMARK  8 active torsions:
REMARK  status: ('A' for Active; 'I' for Inactive)
REMARK    1  A    between atoms: C_1  and  C_2
REMARK    2  A    between atoms: C_2  and  N_3
REMARK    3  A    between atoms: N_3  and  N_4
REMARK    4  A    between atoms: N_4  and  C_5
REMARK    5  A    between atoms: C_8  and  N_9
REMARK    6  A    between atoms: C_13  and  N_14
REMARK    7  A    between atoms: N_20  and  C_21
REMARK    8  A    between atoms: N_24  and  C_25
REMARK                            x       y       z     vdW  Elec       q    Type
REMARK                         _______ _______ _______ _____ _____    ______ ____
ROOT
ATOM      1  N   UNL     1       1.248   8.710  20.470  0.00  0.00    +0.000 N 
ATOM      2  H   UNL     1       1.036   8.974  19.493  0.00  0.00    +0.000 HD
ENDROOT
BRANCH   1   4
ATOM      3  C   UNL     1       0.984   9.268  22.858  0.00  0.00    +0.000 C 
ATOM      4  C   UNL     1       0.583   9.507  21.412  0.00  0.00    +0.000 C 
ATOM      5  C   UNL     1      -0.360  10.447  21.079  0.00  0.00    +0.000 C 
ATOM      6  C   UNL     1      -0.713  10.645  19.641  0.00  0.00    +0.000 C 
ATOM      7  O   UNL     1      -0.136  10.019  18.754  0.00  0.00    +0.000 OA
ATOM      8  N   UNL     1      -1.713  11.560  19.368  0.00  0.00    +0.000 N 
ATOM      9  C   UNL     1      -2.106  11.761  17.983  0.00  0.00    +0.000 C 
ATOM     10  C   UNL     1      -2.398  12.316  20.307  0.00  0.00    +0.000 C 
ATOM     11  O   UNL     1      -3.291  13.096  19.966  0.00  0.00    +0.000 OA
ATOM     12  N   UNL     1      -2.033  12.148  21.625  0.00  0.00    +0.000 N 
ATOM     13  C   UNL     1      -2.735  12.932  22.636  0.00  0.00    +0.000 C 
ATOM     14  C   UNL     1      -1.068  11.273  22.098  0.00  0.00    +0.000 C 
ATOM     15  O   UNL     1      -0.829  11.191  23.303  0.00  0.00    +0.000 OA
ENDBRANCH   1   4
BRANCH   1  16
ATOM     16  N   UNL     1       2.191   7.725  20.641  0.00  0.00    +0.000 N 
ATOM     17  H   UNL     1       3.152   8.036  20.836  0.00  0.00    +0.000 HD
BRANCH  16  18
ATOM     18  C   UNL     1       2.086   6.462  19.999  0.00  0.00    +0.000 A 
ATOM     19  C   UNL     1       1.524   5.400  20.739  0.00  0.00    +0.000 A 
ATOM     20  C   UNL     1       1.342   4.125  20.193  0.00  0.00    +0.000 A 
ATOM     21  C   UNL     1       1.700   3.888  18.868  0.00  0.00    +0.000 A 
ATOM     22  C   UNL     1       2.282   4.903  18.100  0.00  0.00    +0.000 A 
ATOM     23  C   UNL     1       2.490   6.180  18.676  0.00  0.00    +0.000 A 
BRANCH  21  24
ATOM     24  N   UNL     1       1.449   2.569  18.268  0.00  0.00    +0.000 N 
ATOM     25  O   UNL     1       2.379   2.032  17.653  0.00  0.00    +0.000 OA
ATOM     26  O   UNL     1       0.325   2.073  18.424  0.00  0.00    +0.000 OA
ENDBRANCH  21  24
BRANCH  23  27
ATOM     27  N   UNL     1       3.127   7.192  17.814  0.00  0.00    +0.000 N 
ATOM     28  O   UNL     1       4.172   6.880  17.221  0.00  0.00    +0.000 OA
ATOM     29  O   UNL     1       2.580   8.302  17.718  0.00  0.00    +0.000 OA
ENDBRANCH  23  27
ENDBRANCH  16  18
ENDBRANCH   1  16
TORSDOF 5
ENDMDL
MODEL 3
REMARK VINA RESULT:      -8.1      1.234      1.462
REMARK  Name = 
REMARK  8 active torsions:
REMARK  status: ('A' for Active; 'I' for Inactive)
REMARK    1  A    between atoms: C_1  and  C_2
REMARK    2  A    between atoms: C_2  and  N_3
REMARK    3  A    between atoms: N_3  and  N_4
REMARK    4  A    between atoms: N_4  and  C_5
REMARK    5  A    between atoms: C_8  and  N_9
REMARK    6  A    between atoms: C_13  and  N_14
REMARK    7  A    between atoms: N_20  and  C_21
REMARK    8  A    between atoms: N_24  and  C_25
REMARK                            x       y       z     vdW  Elec       q    Type
REMARK                         _______ _______ _______ _____ _____    ______ ____
ROOT
ATOM      1  N   UNL     1       1.989   7.822  19.250  0.00  0.00    +0.000 N 
ATOM      2  H   UNL     1       1.992   7.564  20.251  0.00  0.00    +0.000 HD
ENDROOT
BRANCH   1   4
ATOM      3  C   UNL     1       1.928   9.703  17.655  0.00  0.00    +0.000 C 
ATOM      4  C   UNL     1       1.578   9.143  19.024  0.00  0.00    +0.000 C 
ATOM      5  C   UNL     1       0.901   9.895  19.950  0.00  0.00    +0.000 C 
ATOM      6  C   UNL     1       0.577   9.293  21.279  0.00  0.00    +0.000 C 
ATOM      7  O   UNL     1       0.860   8.124  21.532  0.00  0.00    +0.000 OA
ATOM      8  N   UNL     1      -0.051  10.116  22.196  0.00  0.00    +0.000 N 
ATOM      9  C   UNL     1      -0.358   9.577  23.511  0.00  0.00    +0.000 C 
ATOM     10  C   UNL     1      -0.418  11.435  21.983  0.00  0.00    +0.000 C 
ATOM     11  O   UNL     1      -0.959  12.096  22.873  0.00  0.00    +0.000 OA
ATOM     12  N   UNL     1      -0.146  11.962  20.739  0.00  0.00    +0.000 N 
ATOM     13  C   UNL     1      -0.522  13.349  20.484  0.00  0.00    +0.000 C 
ATOM     14  C   UNL     1       0.487  11.304  19.696  0.00  0.00    +0.000 C 
ATOM     15  O   UNL     1       0.696  11.876  18.627  0.00  0.00    +0.000 OA
ENDBRANCH   1   4
BRANCH   1  16
ATOM     16  N   UNL     1       2.281   6.813  18.363  0.00  0.00    +0.000 N 
ATOM     17  H   UNL     1       1.504   6.197  18.094  0.00  0.00    +0.000 HD
BRANCH  16  18
ATOM     18  C   UNL     1       3.570   6.221  18.294  0.00  0.00    +0.000 A 
ATOM     19  C   UNL     1       4.485   6.758  17.363  0.00  0.00    +0.000 A 
ATOM     20  C   UNL     1       5.791   6.274  17.236  0.00  0.00    +0.000 A 
ATOM     21  C   UNL     1       6.225   5.244  18.068  0.00  0.00    +0.000 A 
ATOM     22  C   UNL     1       5.349   4.664  18.992  0.00  0.00    +0.000 A 
ATOM     23  C   UNL     1       4.020   5.143  19.087  0.00  0.00    +0.000 A 
BRANCH  21  24
ATOM     24  N   UNL     1       7.617   4.777  17.986  0.00  0.00    +0.000 N 
ATOM     25  O   UNL     1       8.017   4.353  16.893  0.00  0.00    +0.000 OA
ATOM     26  O   UNL     1       8.306   4.844  19.012  0.00  0.00    +0.000 OA
ENDBRANCH  21  24
BRANCH  23  27
ATOM     27  N   UNL     1       3.149   4.469  20.066  0.00  0.00    +0.000 N 
ATOM     28  O   UNL     1       3.253   3.238  20.191  0.00  0.00    +0.000 OA
ATOM     29  O   UNL     1       2.362   5.169  20.723  0.00  0.00    +0.000 OA
ENDBRANCH  23  27
ENDBRANCH  16  18
ENDBRANCH   1  16
TORSDOF 5
ENDMDL
MODEL 4
REMARK VINA RESULT:      -8.0      1.027      1.124
REMARK  Name = 
REMARK  8 active torsions:
REMARK  status: ('A' for Active; 'I' for Inactive)
REMARK    1  A    between atoms: C_1  and  C_2
REMARK    2  A    between atoms: C_2  and  N_3
REMARK    3  A    between atoms: N_3  and  N_4
REMARK    4  A    between atoms: N_4  and  C_5
REMARK    5  A    between atoms: C_8  and  N_9
REMARK    6  A    between atoms: C_13  and  N_14
REMARK    7  A    between atoms: N_20  and  C_21
REMARK    8  A    between atoms: N_24  and  C_25
REMARK                            x       y       z     vdW  Elec       q    Type
REMARK                         _______ _______ _______ _____ _____    ______ ____
ROOT
ATOM      1  N   UNL     1       2.317   6.653  19.495  0.00  0.00    +0.000 N 
ATOM      2  H   UNL     1       1.456   6.153  19.777  0.00  0.00    +0.000 HD
ENDROOT
BRANCH   1   4
ATOM      3  C   UNL     1       2.500   8.197  17.580  0.00  0.00    +0.000 C 
ATOM      4  C   UNL     1       2.068   7.947  19.016  0.00  0.00    +0.000 C 
ATOM      5  C   UNL     1       1.474   8.932  19.763  0.00  0.00    +0.000 C 
ATOM      6  C   UNL     1       1.065   8.630  21.168  0.00  0.00    +0.000 C 
ATOM      7  O   UNL     1       1.203   7.505  21.642  0.00  0.00    +0.000 OA
ATOM      8  N   UNL     1       0.528   9.677  21.896  0.00  0.00    +0.000 N 
ATOM      9  C   UNL     1       0.143   9.432  23.276  0.00  0.00    +0.000 C 
ATOM     10  C   UNL     1       0.323  10.966  21.431  0.00  0.00    +0.000 C 
ATOM     11  O   UNL     1      -0.146  11.840  22.164  0.00  0.00    +0.000 OA
ATOM     12  N   UNL     1       0.672  11.217  20.121  0.00  0.00    +0.000 N 
ATOM     13  C   UNL     1       0.466  12.565  19.602  0.00  0.00    +0.000 C 
ATOM     14  C   UNL     1       1.234  10.307  19.240  0.00  0.00    +0.000 C 
ATOM     15  O   UNL     1       1.523  10.640  18.091  0.00  0.00    +0.000 OA
ENDBRANCH   1   4
BRANCH   1  16
ATOM     16  N   UNL     1       3.484   5.930  19.549  0.00  0.00    +0.000 N 
ATOM     17  H   UNL     1       4.049   6.030  20.402  0.00  0.00    +0.000 HD
BRANCH  16  18
ATOM     18  C   UNL     1       4.215   5.592  18.379  0.00  0.00    +0.000 A 
ATOM     19  C   UNL     1       5.439   6.259  18.159  0.00  0.00    +0.000 A 
ATOM     20  C   UNL     1       6.255   5.979  17.059  0.00  0.00    +0.000 A 
ATOM     21  C   UNL     1       5.870   4.992  16.153  0.00  0.00    +0.000 A 
ATOM     22  C   UNL     1       4.655   4.318  16.316  0.00  0.00    +0.000 A 
ATOM     23  C   UNL     1       3.824   4.634  17.417  0.00  0.00    +0.000 A 
BRANCH  21  24
ATOM     24  N   UNL     1       6.756   4.646  15.031  0.00  0.00    +0.000 N 
ATOM     25  O   UNL     1       7.779   5.325  14.877  0.00  0.00    +0.000 OA
ATOM     26  O   UNL     1       6.428   3.691  14.315  0.00  0.00    +0.000 OA
ENDBRANCH  21  24
BRANCH  23  27
ATOM     27  N   UNL     1       2.550   3.899  17.511  0.00  0.00    +0.000 N 
ATOM     28  O   UNL     1       2.589   2.658  17.490  0.00  0.00    +0.000 OA
ATOM     29  O   UNL     1       1.504   4.559  17.615  0.00  0.00    +0.000 OA
ENDBRANCH  23  27
ENDBRANCH  16  18
ENDBRANCH   1  16
TORSDOF 5
ENDMDL
MODEL 5
REMARK VINA RESULT:      -7.9      2.071      8.568
REMARK  Name = 
REMARK  8 active torsions:
REMARK  status: ('A' for Active; 'I' for Inactive)
REMARK    1  A    between atoms: C_1  and  C_2
REMARK    2  A    between atoms: C_2  and  N_3
REMARK    3  A    between atoms: N_3  and  N_4
REMARK    4  A    between atoms: N_4  and  C_5
REMARK    5  A    between atoms: C_8  and  N_9
REMARK    6  A    between atoms: C_13  and  N_14
REMARK    7  A    between atoms: N_20  and  C_21
REMARK    8  A    between atoms: N_24  and  C_25
REMARK                            x       y       z     vdW  Elec       q    Type
REMARK                         _______ _______ _______ _____ _____    ______ ____
ROOT
ATOM      1  N   UNL     1       1.526   7.836  19.841  0.00  0.00    +0.000 N 
ATOM      2  H   UNL     1       0.552   7.528  19.683  0.00  0.00    +0.000 HD
ENDROOT
BRANCH   1   4
ATOM      3  C   UNL     1       2.848   8.258  17.801  0.00  0.00    +0.000 C 
ATOM      4  C   UNL     1       2.428   7.305  18.909  0.00  0.00    +0.000 C 
ATOM      5  C   UNL     1       2.918   6.025  18.972  0.00  0.00    +0.000 C 
ATOM      6  C   UNL     1       2.477   5.132  20.085  0.00  0.00    +0.000 C 
ATOM      7  O   UNL     1       1.728   5.542  20.969  0.00  0.00    +0.000 OA
ATOM      8  N   UNL     1       2.953   3.834  20.065  0.00  0.00    +0.000 N 
ATOM      9  C   UNL     1       2.525   2.924  21.115  0.00  0.00    +0.000 C 
ATOM     10  C   UNL     1       3.812   3.300  19.117  0.00  0.00    +0.000 C 
ATOM     11  O   UNL     1       4.168   2.120  19.173  0.00  0.00    +0.000 OA
ATOM     12  N   UNL     1       4.239   4.149  18.118  0.00  0.00    +0.000 N 
ATOM     13  C   UNL     1       5.146   3.616  17.106  0.00  0.00    +0.000 C 
ATOM     14  C   UNL     1       3.864   5.474  17.960  0.00  0.00    +0.000 C 
ATOM     15  O   UNL     1       4.295   6.141  17.020  0.00  0.00    +0.000 OA
ENDBRANCH   1   4
BRANCH   1  16
ATOM     16  N   UNL     1       1.747   8.598  20.963  0.00  0.00    +0.000 N 
ATOM     17  H   UNL     1       2.366   8.197  21.679  0.00  0.00    +0.000 HD
BRANCH  16  18
ATOM     18  C   UNL     1       0.780   9.518  21.450  0.00  0.00    +0.000 A 
ATOM     19  C   UNL     1       0.230   9.271  22.726  0.00  0.00    +0.000 A 
ATOM     20  C   UNL     1      -0.703  10.129  23.316  0.00  0.00    +0.000 A 
ATOM     21  C   UNL     1      -1.093  11.286  22.643  0.00  0.00    +0.000 A 
ATOM     22  C   UNL     1      -0.592  11.564  21.367  0.00  0.00    +0.000 A 
ATOM     23  C   UNL     1       0.328  10.669  20.768  0.00  0.00    +0.000 A 
BRANCH  21  24
ATOM     24  N   UNL     1      -2.022  12.226  23.287  0.00  0.00    +0.000 N 
ATOM     25  O   UNL     1      -3.152  11.811  23.574  0.00  0.00    +0.000 OA
ATOM     26  O   UNL     1      -1.613  13.374  23.510  0.00  0.00    +0.000 OA
ENDBRANCH  21  24
BRANCH  23  27
ATOM     27  N   UNL     1       0.794  11.016  19.414  0.00  0.00    +0.000 N 
ATOM     28  O   UNL     1       0.350  10.362  18.457  0.00  0.00    +0.000 OA
ATOM     29  O   UNL     1       1.601  11.952  19.299  0.00  0.00    +0.000 OA
ENDBRANCH  23  27
ENDBRANCH  16  18
ENDBRANCH   1  16
TORSDOF 5
ENDMDL
MODEL 6
REMARK VINA RESULT:      -7.9      1.216      1.437
REMARK  Name = 
REMARK  8 active torsions:
REMARK  status: ('A' for Active; 'I' for Inactive)
REMARK    1  A    between atoms: C_1  and  C_2
REMARK    2  A    between atoms: C_2  and  N_3
REMARK    3  A    between atoms: N_3  and  N_4
REMARK    4  A    between atoms: N_4  and  C_5
REMARK    5  A    between atoms: C_8  and  N_9
REMARK    6  A    between atoms: C_13  and  N_14
REMARK    7  A    between atoms: N_20  and  C_21
REMARK    8  A    between atoms: N_24  and  C_25
REMARK                            x       y       z     vdW  Elec       q    Type
REMARK                         _______ _______ _______ _____ _____    ______ ____
ROOT
ATOM      1  N   UNL     1       2.268   6.844  20.213  0.00  0.00    +0.000 N 
ATOM      2  H   UNL     1       2.198   7.025  21.229  0.00  0.00    +0.000 HD
ENDROOT
BRANCH   1   4
ATOM      3  C   UNL     1       2.437   7.930  18.004  0.00  0.00    +0.000 C 
ATOM      4  C   UNL     1       1.915   7.954  19.432  0.00  0.00    +0.000 C 
ATOM      5  C   UNL     1       1.150   8.994  19.895  0.00  0.00    +0.000 C 
ATOM      6  C   UNL     1       0.659   8.964  21.305  0.00  0.00    +0.000 C 
ATOM      7  O   UNL     1       0.884   8.001  22.036  0.00  0.00    +0.000 OA
ATOM      8  N   UNL     1      -0.054  10.067  21.738  0.00  0.00    +0.000 N 
ATOM      9  C   UNL     1      -0.526  10.089  23.113  0.00  0.00    +0.000 C 
ATOM     10  C   UNL     1      -0.365  11.181  20.974  0.00  0.00    +0.000 C 
ATOM     11  O   UNL     1      -0.992  12.128  21.456  0.00  0.00    +0.000 OA
ATOM     12  N   UNL     1       0.064  11.176  19.664  0.00  0.00    +0.000 N 
ATOM     13  C   UNL     1      -0.250  12.335  18.834  0.00  0.00    +0.000 C 
ATOM     14  C   UNL     1       0.800  10.173  19.052  0.00  0.00    +0.000 C 
ATOM     15  O   UNL     1       1.146  10.276  17.876  0.00  0.00    +0.000 OA
ENDBRANCH   1   4
BRANCH   1  16
ATOM     16  N   UNL     1       2.583   5.558  19.845  0.00  0.00    +0.000 N 
ATOM     17  H   UNL     1       2.333   4.815  20.509  0.00  0.00    +0.000 HD
BRANCH  16  18
ATOM     18  C   UNL     1       3.690   5.266  19.003  0.00  0.00    +0.000 A 
ATOM     19  C   UNL     1       4.929   5.859  19.325  0.00  0.00    +0.000 A 
ATOM     20  C   UNL     1       6.090   5.612  18.586  0.00  0.00    +0.000 A 
ATOM     21  C   UNL     1       6.041   4.734  17.505  0.00  0.00    +0.000 A 
ATOM     22  C   UNL     1       4.831   4.138  17.132  0.00  0.00    +0.000 A 
ATOM     23  C   UNL     1       3.657   4.421  17.872  0.00  0.00    +0.000 A 
BRANCH  21  24
ATOM     24  N   UNL     1       7.271   4.418  16.764  0.00  0.00    +0.000 N 
ATOM     25  O   UNL     1       7.232   4.488  15.529  0.00  0.00    +0.000 OA
ATOM     26  O   UNL     1       8.274   4.111  17.423  0.00  0.00    +0.000 OA
ENDBRANCH  21  24
BRANCH  23  27
ATOM     27  N   UNL     1       2.417   3.775  17.407  0.00  0.00    +0.000 N 
ATOM     28  O   UNL     1       1.375   4.450  17.395  0.00  0.00    +0.000 OA
ATOM     29  O   UNL     1       2.480   2.591  17.041  0.00  0.00    +0.000 OA
ENDBRANCH  23  27
ENDBRANCH  16  18
ENDBRANCH   1  16
TORSDOF 5
ENDMDL
MODEL 7
REMARK VINA RESULT:      -7.8      2.551      4.370
REMARK  Name = 
REMARK  8 active torsions:
REMARK  status: ('A' for Active; 'I' for Inactive)
REMARK    1  A    between atoms: C_1  and  C_2
REMARK    2  A    between atoms: C_2  and  N_3
REMARK    3  A    between atoms: N_3  and  N_4
REMARK    4  A    between atoms: N_4  and  C_5
REMARK    5  A    between atoms: C_8  and  N_9
REMARK    6  A    between atoms: C_13  and  N_14
REMARK    7  A    between atoms: N_20  and  C_21
REMARK    8  A    between atoms: N_24  and  C_25
REMARK                            x       y       z     vdW  Elec       q    Type
REMARK                         _______ _______ _______ _____ _____    ______ ____
ROOT
ATOM      1  N   UNL     1       1.108   8.780  20.452  0.00  0.00    +0.000 N 
ATOM      2  H   UNL     1       0.879   9.023  19.473  0.00  0.00    +0.000 HD
ENDROOT
BRANCH   1   4
ATOM      3  C   UNL     1      -0.074   8.839  22.616  0.00  0.00    +0.000 C 
ATOM      4  C   UNL     1       0.432   9.577  21.388  0.00  0.00    +0.000 C 
ATOM      5  C   UNL     1       0.236  10.925  21.234  0.00  0.00    +0.000 C 
ATOM      6  C   UNL     1       0.761  11.601  20.009  0.00  0.00    +0.000 C 
ATOM      7  O   UNL     1       1.407  10.980  19.169  0.00  0.00    +0.000 OA
ATOM      8  N   UNL     1       0.480  12.949  19.876  0.00  0.00    +0.000 N 
ATOM      9  C   UNL     1       0.948  13.638  18.685  0.00  0.00    +0.000 C 
ATOM     10  C   UNL     1      -0.225  13.724  20.784  0.00  0.00    +0.000 C 
ATOM     11  O   UNL     1      -0.441  14.919  20.568  0.00  0.00    +0.000 OA
ATOM     12  N   UNL     1      -0.669  13.092  21.927  0.00  0.00    +0.000 N 
ATOM     13  C   UNL     1      -1.412  13.883  22.902  0.00  0.00    +0.000 C 
ATOM     14  C   UNL     1      -0.500  11.751  22.234  0.00  0.00    +0.000 C 
ATOM     15  O   UNL     1      -0.951  11.284  23.279  0.00  0.00    +0.000 OA
ENDBRANCH   1   4
BRANCH   1  16
ATOM     16  N   UNL     1       2.078   7.824  20.629  0.00  0.00    +0.000 N 
ATOM     17  H   UNL     1       3.031   8.163  20.814  0.00  0.00    +0.000 HD
BRANCH  16  18
ATOM     18  C   UNL     1       2.003   6.551  20.004  0.00  0.00    +0.000 A 
ATOM     19  C   UNL     1       1.424   5.495  20.741  0.00  0.00    +0.000 A 
ATOM     20  C   UNL     1       1.269   4.211  20.210  0.00  0.00    +0.000 A 
ATOM     21  C   UNL     1       1.672   3.956  18.901  0.00  0.00    +0.000 A 
ATOM     22  C   UNL     1       2.272   4.964  18.137  0.00  0.00    +0.000 A 
ATOM     23  C   UNL     1       2.452   6.251  18.699  0.00  0.00    +0.000 A 
BRANCH  21  24
ATOM     24  N   UNL     1       1.450   2.626  18.314  0.00  0.00    +0.000 N 
ATOM     25  O   UNL     1       2.396   2.098  17.715  0.00  0.00    +0.000 OA
ATOM     26  O   UNL     1       0.333   2.114  18.463  0.00  0.00    +0.000 OA
ENDBRANCH  21  24
BRANCH  23  27
ATOM     27  N   UNL     1       3.111   7.254  17.843  0.00  0.00    +0.000 N 
ATOM     28  O   UNL     1       4.195   6.953  17.319  0.00  0.00    +0.000 OA
ATOM     29  O   UNL     1       2.542   8.346  17.683  0.00  0.00    +0.000 OA
ENDBRANCH  23  27
ENDBRANCH  16  18
ENDBRANCH   1  16
TORSDOF 5
ENDMDL
MODEL 8
REMARK VINA RESULT:      -7.7      2.064      8.499
REMARK  Name = 
REMARK  8 active torsions:
REMARK  status: ('A' for Active; 'I' for Inactive)
REMARK    1  A    between atoms: C_1  and  C_2
REMARK    2  A    between atoms: C_2  and  N_3
REMARK    3  A    between atoms: N_3  and  N_4
REMARK    4  A    between atoms: N_4  and  C_5
REMARK    5  A    between atoms: C_8  and  N_9
REMARK    6  A    between atoms: C_13  and  N_14
REMARK    7  A    between atoms: N_20  and  C_21
REMARK    8  A    between atoms: N_24  and  C_25
REMARK                            x       y       z     vdW  Elec       q    Type
REMARK                         _______ _______ _______ _____ _____    ______ ____
ROOT
ATOM      1  N   UNL     1       2.363   7.261  20.096  0.00  0.00    +0.000 N 
ATOM      2  H   UNL     1       2.933   7.757  19.389  0.00  0.00    +0.000 HD
ENDROOT
BRANCH   1   4
ATOM      3  C   UNL     1       1.606   5.089  20.987  0.00  0.00    +0.000 C 
ATOM      4  C   UNL     1       2.391   5.867  19.944  0.00  0.00    +0.000 C 
ATOM      5  C   UNL     1       3.062   5.228  18.933  0.00  0.00    +0.000 C 
ATOM      6  C   UNL     1       3.813   6.042  17.930  0.00  0.00    +0.000 C 
ATOM      7  O   UNL     1       3.794   7.270  17.967  0.00  0.00    +0.000 OA
ATOM      8  N   UNL     1       4.522   5.344  16.970  0.00  0.00    +0.000 N 
ATOM      9  C   UNL     1       5.289   6.099  15.993  0.00  0.00    +0.000 C 
ATOM     10  C   UNL     1       4.581   3.964  16.849  0.00  0.00    +0.000 C 
ATOM     11  O   UNL     1       5.259   3.431  15.967  0.00  0.00    +0.000 OA
ATOM     12  N   UNL     1       3.851   3.230  17.759  0.00  0.00    +0.000 N 
ATOM     13  C   UNL     1       3.892   1.775  17.656  0.00  0.00    +0.000 C 
ATOM     14  C   UNL     1       3.092   3.743  18.799  0.00  0.00    +0.000 C 
ATOM     15  O   UNL     1       2.490   2.995  19.567  0.00  0.00    +0.000 OA
ENDBRANCH   1   4
BRANCH   1  16
ATOM     16  N   UNL     1       1.634   8.051  20.951  0.00  0.00    +0.000 N 
ATOM     17  H   UNL     1       1.250   7.594  21.787  0.00  0.00    +0.000 HD
BRANCH  16  18
ATOM     18  C   UNL     1       0.902   9.179  20.493  0.00  0.00    +0.000 A 
ATOM     19  C   UNL     1       0.932   9.459  19.110  0.00  0.00    +0.000 A 
ATOM     20  C   UNL     1       0.220  10.523  18.547  0.00  0.00    +0.000 A 
ATOM     21  C   UNL     1      -0.570  11.328  19.364  0.00  0.00    +0.000 A 
ATOM     22  C   UNL     1      -0.615  11.105  20.745  0.00  0.00    +0.000 A 
ATOM     23  C   UNL     1       0.136  10.044  21.305  0.00  0.00    +0.000 A 
BRANCH  21  24
ATOM     24  N   UNL     1      -1.373  12.407  18.769  0.00  0.00    +0.000 N 
ATOM     25  O   UNL     1      -2.574  12.457  19.064  0.00  0.00    +0.000 OA
ATOM     26  O   UNL     1      -0.796  13.203  18.017  0.00  0.00    +0.000 OA
ENDBRANCH  21  24
BRANCH  23  27
ATOM     27  N   UNL     1       0.056   9.884  22.768  0.00  0.00    +0.000 N 
ATOM     28  O   UNL     1       1.094   9.591  23.381  0.00  0.00    +0.000 OA
ATOM     29  O   UNL     1      -1.045  10.062  23.313  0.00  0.00    +0.000 OA
ENDBRANCH  23  27
ENDBRANCH  16  18
ENDBRANCH   1  16
TORSDOF 5
ENDMDL
MODEL 9
REMARK VINA RESULT:      -7.7      1.195      2.395
REMARK  Name = 
REMARK  8 active torsions:
REMARK  status: ('A' for Active; 'I' for Inactive)
REMARK    1  A    between atoms: C_1  and  C_2
REMARK    2  A    between atoms: C_2  and  N_3
REMARK    3  A    between atoms: N_3  and  N_4
REMARK    4  A    between atoms: N_4  and  C_5
REMARK    5  A    between atoms: C_8  and  N_9
REMARK    6  A    between atoms: C_13  and  N_14
REMARK    7  A    between atoms: N_20  and  C_21
REMARK    8  A    between atoms: N_24  and  C_25
REMARK                            x       y       z     vdW  Elec       q    Type
REMARK                         _______ _______ _______ _____ _____    ______ ____
ROOT
ATOM      1  N   UNL     1       2.160   8.048  18.930  0.00  0.00    +0.000 N 
ATOM      2  H   UNL     1       2.848   8.779  18.684  0.00  0.00    +0.000 HD
ENDROOT
BRANCH   1   4
ATOM      3  C   UNL     1       1.384   7.198  21.112  0.00  0.00    +0.000 C 
ATOM      4  C   UNL     1       1.450   8.334  20.105  0.00  0.00    +0.000 C 
ATOM      5  C   UNL     1       0.856   9.545  20.355  0.00  0.00    +0.000 C 
ATOM      6  C   UNL     1       0.957  10.630  19.333  0.00  0.00    +0.000 C 
ATOM      7  O   UNL     1       1.605  10.471  18.301  0.00  0.00    +0.000 OA
ATOM      8  N   UNL     1       0.287  11.808  19.610  0.00  0.00    +0.000 N 
ATOM      9  C   UNL     1       0.337  12.878  18.627  0.00  0.00    +0.000 C 
ATOM     10  C   UNL     1      -0.449  12.072  20.754  0.00  0.00    +0.000 C 
ATOM     11  O   UNL     1      -1.028  13.150  20.903  0.00  0.00    +0.000 OA
ATOM     12  N   UNL     1      -0.499  11.074  21.704  0.00  0.00    +0.000 N 
ATOM     13  C   UNL     1      -1.265  11.323  22.921  0.00  0.00    +0.000 C 
ATOM     14  C   UNL     1       0.091   9.824  21.604  0.00  0.00    +0.000 C 
ATOM     15  O   UNL     1      -0.029   8.998  22.508  0.00  0.00    +0.000 OA
ENDBRANCH   1   4
BRANCH   1  16
ATOM     16  N   UNL     1       2.155   6.927  18.135  0.00  0.00    +0.000 N 
ATOM     17  H   UNL     1       1.351   6.295  18.234  0.00  0.00    +0.000 HD
BRANCH  16  18
ATOM     18  C   UNL     1       3.357   6.307  17.702  0.00  0.00    +0.000 A 
ATOM     19  C   UNL     1       4.454   7.145  17.408  0.00  0.00    +0.000 A 
ATOM     20  C   UNL     1       5.695   6.639  17.007  0.00  0.00    +0.000 A 
ATOM     21  C   UNL     1       5.875   5.260  16.913  0.00  0.00    +0.000 A 
ATOM     22  C   UNL     1       4.812   4.388  17.173  0.00  0.00    +0.000 A 
ATOM     23  C   UNL     1       3.553   4.917  17.547  0.00  0.00    +0.000 A 
BRANCH  21  24
ATOM     24  N   UNL     1       7.196   4.720  16.557  0.00  0.00    +0.000 N 
ATOM     25  O   UNL     1       7.471   4.622  15.355  0.00  0.00    +0.000 OA
ATOM     26  O   UNL     1       7.954   4.403  17.484  0.00  0.00    +0.000 OA
ENDBRANCH  21  24
BRANCH  23  27
ATOM     27  N   UNL     1       2.475   3.939  17.782  0.00  0.00    +0.000 N 
ATOM     28  O   UNL     1       2.243   3.101  16.896  0.00  0.00    +0.000 OA
ATOM     29  O   UNL     1       1.861   3.998  18.859  0.00  0.00    +0.000 OA
ENDBRANCH  23  27
ENDBRANCH  16  18
ENDBRANCH   1  16
TORSDOF 5
ENDMDL
