MODEL 1
REMARK VINA RESULT:      -8.1      0.000      0.000
REMARK  Name = 
REMARK  7 active torsions:
REMARK  status: ('A' for Active; 'I' for Inactive)
REMARK    1  A    between atoms: C_1  and  C_2
REMARK    2  A    between atoms: C_2  and  N_3
REMARK    3  A    between atoms: C_4  and  C_6
REMARK    4  A    between atoms: C_9  and  C_10
REMARK    5  A    between atoms: C_10  and  C_11
REMARK    6  A    between atoms: N_20  and  C_21
REMARK    7  A    between atoms: C_21  and  C_22
REMARK                            x       y       z     vdW  Elec       q    Type
REMARK                         _______ _______ _______ _____ _____    ______ ____
ROOT
ATOM      1  C   UNL     1       2.356   7.132  19.103  0.00  0.00    +0.000 C 
ATOM      2  C   UNL     1       1.842   8.388  19.053  0.00  0.00    +0.000 C 
ATOM      3  C   UNL     1       2.128   9.336  17.889  0.00  0.00    +0.000 C 
ATOM      4  C   UNL     1       1.358  10.678  17.908  0.00  0.00    +0.000 C 
ATOM      5  C   UNL     1       1.973  11.645  18.932  0.00  0.00    +0.000 C 
ATOM      6  C   UNL     1       1.207  11.378  20.223  0.00  0.00    +0.000 C 
ATOM      7  C   UNL     1       0.211  10.275  19.849  0.00  0.00    +0.000 C 
ATOM      8  C   UNL     1       0.828   8.873  20.098  0.00  0.00    +0.000 C 
ATOM      9  N   UNL     1      -0.018  10.563  18.421  0.00  0.00    +0.000 NA
ENDROOT
BRANCH   1  13
ATOM     10  C   UNL     1       5.110   5.648  16.161  0.00  0.00    +0.000 A 
ATOM     11  C   UNL     1       5.051   7.016  16.450  0.00  0.00    +0.000 A 
ATOM     12  C   UNL     1       4.142   7.495  17.402  0.00  0.00    +0.000 A 
ATOM     13  C   UNL     1       3.281   6.616  18.072  0.00  0.00    +0.000 A 
ATOM     14  C   UNL     1       3.330   5.247  17.767  0.00  0.00    +0.000 A 
ATOM     15  C   UNL     1       4.234   4.769  16.810  0.00  0.00    +0.000 A 
BRANCH  10  17
ATOM     16  N   UNL     1       5.503   4.300  14.164  0.00  0.00    +0.000 N 
ATOM     17  C   UNL     1       6.054   5.097  15.148  0.00  0.00    +0.000 C 
ATOM     18  O   UNL     1       7.245   5.379  15.208  0.00  0.00    +0.000 OA
ATOM     19  H   UNL     1       4.499   4.267  14.058  0.00  0.00    +0.000 HD
BRANCH  16  21
ATOM     20  C   UNL     1       5.469   3.154  11.984  0.00  0.00    +0.000 C 
ATOM     21  C   UNL     1       6.314   3.724  13.109  0.00  0.00    +0.000 C 
ENDBRANCH  16  21
ENDBRANCH  10  17
ENDBRANCH   1  13
BRANCH   1  22
ATOM     22  C   UNL     1       2.011   6.227  20.158  0.00  0.00    +0.000 C 
ATOM     23  N   UNL     1       1.738   5.478  21.003  0.00  0.00    +0.000 NA
ENDBRANCH   1  22
BRANCH   9  24
ATOM     24  C   UNL     1      -0.889   9.580  17.771  0.00  0.00    +0.000 C 
BRANCH  24  25
ATOM     25  C   UNL     1      -2.060  10.220  17.106  0.00  0.00    +0.000 A 
ATOM     26  C   UNL     1      -2.612   9.887  15.832  0.00  0.00    +0.000 A 
ATOM     27  C   UNL     1      -3.719  10.683  15.665  0.00  0.00    +0.000 A 
ATOM     28  O   UNL     1      -3.889  11.490  16.742  0.00  0.00    +0.000 OA
ATOM     29  C   UNL     1      -2.883  11.207  17.609  0.00  0.00    +0.000 A 
ENDBRANCH  24  25
ENDBRANCH   9  24
TORSDOF 6
ENDMDL
MODEL 2
REMARK VINA RESULT:      -8.0      0.369      1.152
REMARK  Name = 
REMARK  7 active torsions:
REMARK  status: ('A' for Active; 'I' for Inactive)
REMARK    1  A    between atoms: C_1  and  C_2
REMARK    2  A    between atoms: C_2  and  N_3
REMARK    3  A    between atoms: C_4  and  C_6
REMARK    4  A    between atoms: C_9  and  C_10
REMARK    5  A    between atoms: C_10  and  C_11
REMARK    6  A    between atoms: N_20  and  C_21
REMARK    7  A    between atoms: C_21  and  C_22
REMARK                            x       y       z     vdW  Elec       q    Type
REMARK                         _______ _______ _______ _____ _____    ______ ____
ROOT
ATOM      1  C   UNL     1       2.405   7.087  19.116  0.00  0.00    +0.000 C 
ATOM      2  C   UNL     1       1.879   8.337  19.042  0.00  0.00    +0.000 C 
ATOM      3  C   UNL     1       2.178   9.274  17.873  0.00  0.00    +0.000 C 
ATOM      4  C   UNL     1       1.393  10.608  17.862  0.00  0.00    +0.000 C 
ATOM      5  C   UNL     1       1.978  11.593  18.887  0.00  0.00    +0.000 C 
ATOM      6  C   UNL     1       1.190  11.332  20.165  0.00  0.00    +0.000 C 
ATOM      7  C   UNL     1       0.214  10.215  19.785  0.00  0.00    +0.000 C 
ATOM      8  C   UNL     1       0.840   8.823  20.062  0.00  0.00    +0.000 C 
ATOM      9  N   UNL     1       0.009  10.484  18.350  0.00  0.00    +0.000 NA
ENDROOT
BRANCH   1  13
ATOM     10  C   UNL     1       5.099   5.574  16.134  0.00  0.00    +0.000 A 
ATOM     11  C   UNL     1       4.173   4.724  16.749  0.00  0.00    +0.000 A 
ATOM     12  C   UNL     1       3.305   5.221  17.729  0.00  0.00    +0.000 A 
ATOM     13  C   UNL     1       3.356   6.569  18.109  0.00  0.00    +0.000 A 
ATOM     14  C   UNL     1       4.297   7.414  17.504  0.00  0.00    +0.000 A 
ATOM     15  C   UNL     1       5.170   6.916  16.528  0.00  0.00    +0.000 A 
BRANCH  10  17
ATOM     16  N   UNL     1       5.534   4.210  14.157  0.00  0.00    +0.000 N 
ATOM     17  C   UNL     1       6.048   5.085  15.094  0.00  0.00    +0.000 C 
ATOM     18  O   UNL     1       7.208   5.479  15.092  0.00  0.00    +0.000 OA
ATOM     19  H   UNL     1       4.534   4.078  14.097  0.00  0.00    +0.000 HD
BRANCH  16  21
ATOM     20  C   UNL     1       5.512   3.148  11.934  0.00  0.00    +0.000 C 
ATOM     21  C   UNL     1       6.351   3.681  13.081  0.00  0.00    +0.000 C 
ENDBRANCH  16  21
ENDBRANCH  10  17
ENDBRANCH   1  13
BRANCH   1  22
ATOM     22  C   UNL     1       2.050   6.190  20.175  0.00  0.00    +0.000 C 
ATOM     23  N   UNL     1       1.747   5.475  21.039  0.00  0.00    +0.000 NA
ENDBRANCH   1  22
BRANCH   9  24
ATOM     24  C   UNL     1      -0.839   9.485  17.695  0.00  0.00    +0.000 C 
BRANCH  24  25
ATOM     25  C   UNL     1      -2.097  10.080  17.159  0.00  0.00    +0.000 A 
ATOM     26  C   UNL     1      -3.000  10.942  17.849  0.00  0.00    +0.000 A 
ATOM     27  C   UNL     1      -3.971  11.298  16.945  0.00  0.00    +0.000 A 
ATOM     28  O   UNL     1      -3.736  10.712  15.744  0.00  0.00    +0.000 OA
ATOM     29  C   UNL     1      -2.603   9.976  15.879  0.00  0.00    +0.000 A 
ENDBRANCH  24  25
ENDBRANCH   9  24
TORSDOF 6
ENDMDL
MODEL 3
REMARK VINA RESULT:      -7.6      2.484      3.747
REMARK  Name = 
REMARK  7 active torsions:
REMARK  status: ('A' for Active; 'I' for Inactive)
REMARK    1  A    between atoms: C_1  and  C_2
REMARK    2  A    between atoms: C_2  and  N_3
REMARK    3  A    between atoms: C_4  and  C_6
REMARK    4  A    between atoms: C_9  and  C_10
REMARK    5  A    between atoms: C_10  and  C_11
REMARK    6  A    between atoms: N_20  and  C_21
REMARK    7  A    between atoms: C_21  and  C_22
REMARK                            x       y       z     vdW  Elec       q    Type
REMARK                         _______ _______ _______ _____ _____    ______ ____
ROOT
ATOM      1  C   UNL     1       0.474   9.990  20.937  0.00  0.00    +0.000 C 
ATOM      2  C   UNL     1      -0.044  11.090  20.331  0.00  0.00    +0.000 C 
ATOM      3  C   UNL     1       0.047  11.303  18.821  0.00  0.00    +0.000 C 
ATOM      4  C   UNL     1      -0.713  12.532  18.266  0.00  0.00    +0.000 C 
ATOM      5  C   UNL     1       0.059  13.828  18.561  0.00  0.00    +0.000 C 
ATOM      6  C   UNL     1      -0.485  14.304  19.903  0.00  0.00    +0.000 C 
ATOM      7  C   UNL     1      -1.526  13.248  20.284  0.00  0.00    +0.000 C 
ATOM      8  C   UNL     1      -0.874  12.113  21.118  0.00  0.00    +0.000 C 
ATOM      9  N   UNL     1      -1.986  12.801  18.956  0.00  0.00    +0.000 NA
ENDROOT
BRANCH   1  13
ATOM     10  C   UNL     1       2.567   6.934  18.764  0.00  0.00    +0.000 A 
ATOM     11  C   UNL     1       2.188   6.725  20.095  0.00  0.00    +0.000 A 
ATOM     12  C   UNL     1       1.516   7.729  20.802  0.00  0.00    +0.000 A 
ATOM     13  C   UNL     1       1.220   8.955  20.190  0.00  0.00    +0.000 A 
ATOM     14  C   UNL     1       1.616   9.169  18.861  0.00  0.00    +0.000 A 
ATOM     15  C   UNL     1       2.294   8.166  18.156  0.00  0.00    +0.000 A 
BRANCH  10  17
ATOM     16  N   UNL     1       2.962   4.581  18.246  0.00  0.00    +0.000 N 
ATOM     17  C   UNL     1       3.292   5.896  17.979  0.00  0.00    +0.000 C 
ATOM     18  O   UNL     1       4.113   6.232  17.134  0.00  0.00    +0.000 OA
ATOM     19  H   UNL     1       2.147   4.379  18.807  0.00  0.00    +0.000 HD
BRANCH  16  21
ATOM     20  C   UNL     1       2.820   2.180  17.714  0.00  0.00    +0.000 C 
ATOM     21  C   UNL     1       3.582   3.481  17.533  0.00  0.00    +0.000 C 
ENDBRANCH  16  21
ENDBRANCH  10  17
ENDBRANCH   1  13
BRANCH   1  22
ATOM     22  C   UNL     1       0.308   9.765  22.341  0.00  0.00    +0.000 C 
ATOM     23  N   UNL     1       0.192   9.586  23.484  0.00  0.00    +0.000 NA
ENDBRANCH   1  22
BRANCH   9  24
ATOM     24  C   UNL     1      -2.950  11.699  19.025  0.00  0.00    +0.000 C 
BRANCH  24  25
ATOM     25  C   UNL     1      -3.234  11.117  17.682  0.00  0.00    +0.000 A 
ATOM     26  C   UNL     1      -2.666   9.935  17.120  0.00  0.00    +0.000 A 
ATOM     27  C   UNL     1      -3.275   9.747  15.903  0.00  0.00    +0.000 A 
ATOM     28  O   UNL     1      -4.176  10.733  15.668  0.00  0.00    +0.000 OA
ATOM     29  C   UNL     1      -4.147  11.559  16.745  0.00  0.00    +0.000 A 
ENDBRANCH  24  25
ENDBRANCH   9  24
TORSDOF 6
ENDMDL
MODEL 4
REMARK VINA RESULT:      -7.5      2.269      3.601
REMARK  Name = 
REMARK  7 active torsions:
REMARK  status: ('A' for Active; 'I' for Inactive)
REMARK    1  A    between atoms: C_1  and  C_2
REMARK    2  A    between atoms: C_2  and  N_3
REMARK    3  A    between atoms: C_4  and  C_6
REMARK    4  A    between atoms: C_9  and  C_10
REMARK    5  A    between atoms: C_10  and  C_11
REMARK    6  A    between atoms: N_20  and  C_21
REMARK    7  A    between atoms: C_21  and  C_22
REMARK                            x       y       z     vdW  Elec       q    Type
REMARK                         _______ _______ _______ _____ _____    ______ ____
ROOT
ATOM      1  C   UNL     1       0.520   9.952  21.000  0.00  0.00    +0.000 C 
ATOM      2  C   UNL     1       0.030  11.058  20.383  0.00  0.00    +0.000 C 
ATOM      3  C   UNL     1       0.120  11.249  18.870  0.00  0.00    +0.000 C 
ATOM      4  C   UNL     1      -0.608  12.491  18.302  0.00  0.00    +0.000 C 
ATOM      5  C   UNL     1       0.200  13.770  18.578  0.00  0.00    +0.000 C 
ATOM      6  C   UNL     1      -0.328  14.277  19.915  0.00  0.00    +0.000 C 
ATOM      7  C   UNL     1      -1.395  13.254  20.313  0.00  0.00    +0.000 C 
ATOM      8  C   UNL     1      -0.771  12.112  21.159  0.00  0.00    +0.000 C 
ATOM      9  N   UNL     1      -1.871  12.802  18.992  0.00  0.00    +0.000 NA
ENDROOT
BRANCH   1  13
ATOM     10  C   UNL     1       2.522   6.817  18.856  0.00  0.00    +0.000 A 
ATOM     11  C   UNL     1       2.084   6.610  20.169  0.00  0.00    +0.000 A 
ATOM     12  C   UNL     1       1.442   7.640  20.867  0.00  0.00    +0.000 A 
ATOM     13  C   UNL     1       1.235   8.888  20.264  0.00  0.00    +0.000 A 
ATOM     14  C   UNL     1       1.691   9.098  18.954  0.00  0.00    +0.000 A 
ATOM     15  C   UNL     1       2.338   8.070  18.258  0.00  0.00    +0.000 A 
BRANCH  10  17
ATOM     16  N   UNL     1       4.367   6.128  17.414  0.00  0.00    +0.000 N 
ATOM     17  C   UNL     1       3.218   5.751  18.081  0.00  0.00    +0.000 C 
ATOM     18  O   UNL     1       2.774   4.609  18.079  0.00  0.00    +0.000 OA
ATOM     19  H   UNL     1       4.784   7.027  17.612  0.00  0.00    +0.000 HD
BRANCH  16  21
ATOM     20  C   UNL     1       5.446   5.684  15.244  0.00  0.00    +0.000 C 
ATOM     21  C   UNL     1       5.147   5.178  16.644  0.00  0.00    +0.000 C 
ENDBRANCH  16  21
ENDBRANCH  10  17
ENDBRANCH   1  13
BRANCH   1  22
ATOM     22  C   UNL     1       0.352   9.749  22.408  0.00  0.00    +0.000 C 
ATOM     23  N   UNL     1       0.206   9.601  23.551  0.00  0.00    +0.000 NA
ENDBRANCH   1  22
BRANCH   9  24
ATOM     24  C   UNL     1      -2.864  11.727  19.077  0.00  0.00    +0.000 C 
BRANCH  24  25
ATOM     25  C   UNL     1      -3.183  11.151  17.740  0.00  0.00    +0.000 A 
ATOM     26  C   UNL     1      -2.600   9.993  17.143  0.00  0.00    +0.000 A 
ATOM     27  C   UNL     1      -3.251   9.798  15.949  0.00  0.00    +0.000 A 
ATOM     28  O   UNL     1      -4.191  10.757  15.761  0.00  0.00    +0.000 OA
ATOM     29  C   UNL     1      -4.145  11.573  16.845  0.00  0.00    +0.000 A 
ENDBRANCH  24  25
ENDBRANCH   9  24
TORSDOF 6
ENDMDL
MODEL 5
REMARK VINA RESULT:      -7.5      2.798      3.729
REMARK  Name = 
REMARK  7 active torsions:
REMARK  status: ('A' for Active; 'I' for Inactive)
REMARK    1  A    between atoms: C_1  and  C_2
REMARK    2  A    between atoms: C_2  and  N_3
REMARK    3  A    between atoms: C_4  and  C_6
REMARK    4  A    between atoms: C_9  and  C_10
REMARK    5  A    between atoms: C_10  and  C_11
REMARK    6  A    between atoms: N_20  and  C_21
REMARK    7  A    between atoms: C_21  and  C_22
REMARK                            x       y       z     vdW  Elec       q    Type
REMARK                         _______ _______ _______ _____ _____    ______ ____
ROOT
ATOM      1  C   UNL     1       0.546   9.710  21.093  0.00  0.00    +0.000 C 
ATOM      2  C   UNL     1       0.161  10.817  20.407  0.00  0.00    +0.000 C 
ATOM      3  C   UNL     1       0.324  10.931  18.893  0.00  0.00    +0.000 C 
ATOM      4  C   UNL     1      -0.291  12.193  18.241  0.00  0.00    +0.000 C 
ATOM      5  C   UNL     1       0.594  13.423  18.495  0.00  0.00    +0.000 C 
ATOM      6  C   UNL     1       0.052  14.028  19.785  0.00  0.00    +0.000 C 
ATOM      7  C   UNL     1      -1.100  13.101  20.182  0.00  0.00    +0.000 C 
ATOM      8  C   UNL     1      -0.593  11.960  21.103  0.00  0.00    +0.000 C 
ATOM      9  N   UNL     1      -1.555  12.622  18.863  0.00  0.00    +0.000 NA
ENDROOT
BRANCH   1  13
ATOM     10  C   UNL     1       2.556   6.424  19.195  0.00  0.00    +0.000 A 
ATOM     11  C   UNL     1       2.472   7.668  18.558  0.00  0.00    +0.000 A 
ATOM     12  C   UNL     1       1.806   8.732  19.177  0.00  0.00    +0.000 A 
ATOM     13  C   UNL     1       1.212   8.566  20.435  0.00  0.00    +0.000 A 
ATOM     14  C   UNL     1       1.282   7.313  21.064  0.00  0.00    +0.000 A 
ATOM     15  C   UNL     1       1.943   6.247  20.442  0.00  0.00    +0.000 A 
BRANCH  10  17
ATOM     16  N   UNL     1       3.513   4.187  19.392  0.00  0.00    +0.000 N 
ATOM     17  C   UNL     1       3.248   5.263  18.568  0.00  0.00    +0.000 C 
ATOM     18  O   UNL     1       3.529   5.291  17.375  0.00  0.00    +0.000 OA
ATOM     19  H   UNL     1       3.087   4.147  20.307  0.00  0.00    +0.000 HD
BRANCH  16  21
ATOM     20  C   UNL     1       3.159   1.943  18.439  0.00  0.00    +0.000 C 
ATOM     21  C   UNL     1       4.161   2.989  18.895  0.00  0.00    +0.000 C 
ENDBRANCH  16  21
ENDBRANCH  10  17
ENDBRANCH   1  13
BRANCH   1  22
ATOM     22  C   UNL     1       0.310   9.585  22.500  0.00  0.00    +0.000 C 
ATOM     23  N   UNL     1       0.137   9.489  23.645  0.00  0.00    +0.000 NA
ENDBRANCH   1  22
BRANCH   9  24
ATOM     24  C   UNL     1      -2.624  11.624  18.953  0.00  0.00    +0.000 C 
BRANCH  24  25
ATOM     25  C   UNL     1      -3.027  11.110  17.613  0.00  0.00    +0.000 A 
ATOM     26  C   UNL     1      -2.446  10.018  16.902  0.00  0.00    +0.000 A 
ATOM     27  C   UNL     1      -3.184   9.861  15.753  0.00  0.00    +0.000 A 
ATOM     28  O   UNL     1      -4.177  10.782  15.700  0.00  0.00    +0.000 OA
ATOM     29  C   UNL     1      -4.078  11.535  16.825  0.00  0.00    +0.000 A 
ENDBRANCH  24  25
ENDBRANCH   9  24
TORSDOF 6
ENDMDL
MODEL 6
REMARK VINA RESULT:      -7.4      4.069      7.134
REMARK  Name = 
REMARK  7 active torsions:
REMARK  status: ('A' for Active; 'I' for Inactive)
REMARK    1  A    between atoms: C_1  and  C_2
REMARK    2  A    between atoms: C_2  and  N_3
REMARK    3  A    between atoms: C_4  and  C_6
REMARK    4  A    between atoms: C_9  and  C_10
REMARK    5  A    between atoms: C_10  and  C_11
REMARK    6  A    between atoms: N_20  and  C_21
REMARK    7  A    between atoms: C_21  and  C_22
REMARK                            x       y       z     vdW  Elec       q    Type
REMARK                         _______ _______ _______ _____ _____    ______ ____
ROOT
ATOM      1  C   UNL     1       6.153   5.233  16.911  0.00  0.00    +0.000 C 
ATOM      2  C   UNL     1       5.278   4.515  17.661  0.00  0.00    +0.000 C 
ATOM      3  C   UNL     1       4.914   4.917  19.089  0.00  0.00    +0.000 C 
ATOM      4  C   UNL     1       3.798   4.081  19.762  0.00  0.00    +0.000 C 
ATOM      5  C   UNL     1       4.337   2.715  20.213  0.00  0.00    +0.000 C 
ATOM      6  C   UNL     1       4.087   1.791  19.027  0.00  0.00    +0.000 C 
ATOM      7  C   UNL     1       3.426   2.691  17.980  0.00  0.00    +0.000 C 
ATOM      8  C   UNL     1       4.496   3.338  17.061  0.00  0.00    +0.000 C 
ATOM      9  N   UNL     1       2.729   3.669  18.836  0.00  0.00    +0.000 NA
ENDROOT
BRANCH   1  13
ATOM     10  C   UNL     1       8.300   8.631  18.419  0.00  0.00    +0.000 A 
ATOM     11  C   UNL     1       8.535   7.355  18.944  0.00  0.00    +0.000 A 
ATOM     12  C   UNL     1       7.823   6.253  18.456  0.00  0.00    +0.000 A 
ATOM     13  C   UNL     1       6.867   6.413  17.443  0.00  0.00    +0.000 A 
ATOM     14  C   UNL     1       6.621   7.696  16.933  0.00  0.00    +0.000 A 
ATOM     15  C   UNL     1       7.328   8.800  17.425  0.00  0.00    +0.000 A 
BRANCH  10  17
ATOM     16  N   UNL     1       9.486  10.715  17.958  0.00  0.00    +0.000 N 
ATOM     17  C   UNL     1       9.028   9.833  18.917  0.00  0.00    +0.000 C 
ATOM     18  O   UNL     1       9.172  10.004  20.122  0.00  0.00    +0.000 OA
ATOM     19  H   UNL     1       9.169  10.618  17.003  0.00  0.00    +0.000 HD
BRANCH  16  21
ATOM     20  C   UNL     1      11.669  11.856  17.988  0.00  0.00    +0.000 C 
ATOM     21  C   UNL     1      10.189  11.932  18.316  0.00  0.00    +0.000 C 
ENDBRANCH  16  21
ENDBRANCH  10  17
ENDBRANCH   1  13
BRANCH   1  22
ATOM     22  C   UNL     1       6.420   4.891  15.546  0.00  0.00    +0.000 C 
ATOM     23  N   UNL     1       6.617   4.610  14.435  0.00  0.00    +0.000 NA
ENDBRANCH   1  22
BRANCH   9  24
ATOM     24  C   UNL     1       2.067   4.730  18.072  0.00  0.00    +0.000 C 
BRANCH  24  25
ATOM     25  C   UNL     1       2.027   6.019  18.819  0.00  0.00    +0.000 A 
ATOM     26  C   UNL     1       2.307   7.320  18.304  0.00  0.00    +0.000 A 
ATOM     27  C   UNL     1       2.071   8.207  19.327  0.00  0.00    +0.000 A 
ATOM     28  O   UNL     1       1.671   7.546  20.442  0.00  0.00    +0.000 OA
ATOM     29  C   UNL     1       1.647   6.225  20.130  0.00  0.00    +0.000 A 
ENDBRANCH  24  25
ENDBRANCH   9  24
TORSDOF 6
ENDMDL
MODEL 7
REMARK VINA RESULT:      -7.3      4.094      7.265
REMARK  Name = 
REMARK  7 active torsions:
REMARK  status: ('A' for Active; 'I' for Inactive)
REMARK    1  A    between atoms: C_1  and  C_2
REMARK    2  A    between atoms: C_2  and  N_3
REMARK    3  A    between atoms: C_4  and  C_6
REMARK    4  A    between atoms: C_9  and  C_10
REMARK    5  A    between atoms: C_10  and  C_11
REMARK    6  A    between atoms: N_20  and  C_21
REMARK    7  A    between atoms: C_21  and  C_22
REMARK                            x       y       z     vdW  Elec       q    Type
REMARK                         _______ _______ _______ _____ _____    ______ ____
ROOT
ATOM      1  C   UNL     1       5.716   4.795  16.778  0.00  0.00    +0.000 C 
ATOM      2  C   UNL     1       4.993   4.031  17.637  0.00  0.00    +0.000 C 
ATOM      3  C   UNL     1       4.797   4.422  19.101  0.00  0.00    +0.000 C 
ATOM      4  C   UNL     1       3.833   3.526  19.915  0.00  0.00    +0.000 C 
ATOM      5  C   UNL     1       4.510   2.199  20.292  0.00  0.00    +0.000 C 
ATOM      6  C   UNL     1       4.163   1.251  19.150  0.00  0.00    +0.000 C 
ATOM      7  C   UNL     1       3.316   2.101  18.198  0.00  0.00    +0.000 C 
ATOM      8  C   UNL     1       4.214   2.804  17.146  0.00  0.00    +0.000 C 
ATOM      9  N   UNL     1       2.679   3.041  19.138  0.00  0.00    +0.000 NA
ENDROOT
BRANCH   1  13
ATOM     10  C   UNL     1       7.828   8.333  17.986  0.00  0.00    +0.000 A 
ATOM     11  C   UNL     1       8.246   7.073  18.427  0.00  0.00    +0.000 A 
ATOM     12  C   UNL     1       7.547   5.924  18.040  0.00  0.00    +0.000 A 
ATOM     13  C   UNL     1       6.420   6.021  17.211  0.00  0.00    +0.000 A 
ATOM     14  C   UNL     1       5.992   7.287  16.785  0.00  0.00    +0.000 A 
ATOM     15  C   UNL     1       6.688   8.437  17.178  0.00  0.00    +0.000 A 
BRANCH  10  17
ATOM     16  N   UNL     1       9.266   9.529  19.555  0.00  0.00    +0.000 N 
ATOM     17  C   UNL     1       8.537   9.582  18.383  0.00  0.00    +0.000 C 
ATOM     18  O   UNL     1       8.470  10.576  17.669  0.00  0.00    +0.000 OA
ATOM     19  H   UNL     1       9.439   8.634  19.990  0.00  0.00    +0.000 HD
BRANCH  16  21
ATOM     20  C   UNL     1       9.229  11.499  21.034  0.00  0.00    +0.000 C 
ATOM     21  C   UNL     1      10.019  10.672  20.036  0.00  0.00    +0.000 C 
ENDBRANCH  16  21
ENDBRANCH  10  17
ENDBRANCH   1  13
BRANCH   1  22
ATOM     22  C   UNL     1       5.821   4.459  15.390  0.00  0.00    +0.000 C 
ATOM     23  N   UNL     1       5.901   4.168  14.268  0.00  0.00    +0.000 NA
ENDBRANCH   1  22
BRANCH   9  24
ATOM     24  C   UNL     1       1.857   4.053  18.468  0.00  0.00    +0.000 C 
BRANCH  24  25
ATOM     25  C   UNL     1       1.898   5.366  19.173  0.00  0.00    +0.000 A 
ATOM     26  C   UNL     1       2.315   6.619  18.631  0.00  0.00    +0.000 A 
ATOM     27  C   UNL     1       2.113   7.558  19.613  0.00  0.00    +0.000 A 
ATOM     28  O   UNL     1       1.607   6.974  20.728  0.00  0.00    +0.000 OA
ATOM     29  C   UNL     1       1.479   5.650  20.457  0.00  0.00    +0.000 A 
ENDBRANCH  24  25
ENDBRANCH   9  24
TORSDOF 6
ENDMDL
MODEL 8
REMARK VINA RESULT:      -7.3      4.115      7.123
REMARK  Name = 
REMARK  7 active torsions:
REMARK  status: ('A' for Active; 'I' for Inactive)
REMARK    1  A    between atoms: C_1  and  C_2
REMARK    2  A    between atoms: C_2  and  N_3
REMARK    3  A    between atoms: C_4  and  C_6
REMARK    4  A    between atoms: C_9  and  C_10
REMARK    5  A    between atoms: C_10  and  C_11
REMARK    6  A    between atoms: N_20  and  C_21
REMARK    7  A    between atoms: C_21  and  C_22
REMARK                            x       y       z     vdW  Elec       q    Type
REMARK                         _______ _______ _______ _____ _____    ______ ____
ROOT
ATOM      1  C   UNL     1       5.704   4.688  16.749  0.00  0.00    +0.000 C 
ATOM      2  C   UNL     1       4.957   3.958  17.618  0.00  0.00    +0.000 C 
ATOM      3  C   UNL     1       4.790   4.361  19.082  0.00  0.00    +0.000 C 
ATOM      4  C   UNL     1       3.797   3.509  19.907  0.00  0.00    +0.000 C 
ATOM      5  C   UNL     1       4.422   2.156  20.283  0.00  0.00    +0.000 C 
ATOM      6  C   UNL     1       4.025   1.219  19.147  0.00  0.00    +0.000 C 
ATOM      7  C   UNL     1       3.206   2.101  18.200  0.00  0.00    +0.000 C 
ATOM      8  C   UNL     1       4.123   2.762  17.137  0.00  0.00    +0.000 C 
ATOM      9  N   UNL     1       2.617   3.070  19.142  0.00  0.00    +0.000 NA
ENDROOT
BRANCH   1  13
ATOM     10  C   UNL     1       7.837   8.190  18.023  0.00  0.00    +0.000 A 
ATOM     11  C   UNL     1       6.781   8.296  17.111  0.00  0.00    +0.000 A 
ATOM     12  C   UNL     1       6.097   7.149  16.691  0.00  0.00    +0.000 A 
ATOM     13  C   UNL     1       6.462   5.885  17.172  0.00  0.00    +0.000 A 
ATOM     14  C   UNL     1       7.533   5.779  18.072  0.00  0.00    +0.000 A 
ATOM     15  C   UNL     1       8.221   6.926  18.488  0.00  0.00    +0.000 A 
BRANCH  10  17
ATOM     16  N   UNL     1       8.454  10.535  17.741  0.00  0.00    +0.000 N 
ATOM     17  C   UNL     1       8.598   9.383  18.489  0.00  0.00    +0.000 C 
ATOM     18  O   UNL     1       9.287   9.312  19.501  0.00  0.00    +0.000 OA
ATOM     19  H   UNL     1       7.727  10.583  17.040  0.00  0.00    +0.000 HD
BRANCH  16  21
ATOM     20  C   UNL     1       8.378  12.994  17.607  0.00  0.00    +0.000 C 
ATOM     21  C   UNL     1       9.124  11.769  18.104  0.00  0.00    +0.000 C 
ENDBRANCH  16  21
ENDBRANCH  10  17
ENDBRANCH   1  13
BRANCH   1  22
ATOM     22  C   UNL     1       5.783   4.343  15.362  0.00  0.00    +0.000 C 
ATOM     23  N   UNL     1       5.855   4.080  14.232  0.00  0.00    +0.000 NA
ENDBRANCH   1  22
BRANCH   9  24
ATOM     24  C   UNL     1       1.833   4.113  18.475  0.00  0.00    +0.000 C 
BRANCH  24  25
ATOM     25  C   UNL     1       1.886   5.411  19.208  0.00  0.00    +0.000 A 
ATOM     26  C   UNL     1       2.314   6.671  18.693  0.00  0.00    +0.000 A 
ATOM     27  C   UNL     1       2.121   7.590  19.696  0.00  0.00    +0.000 A 
ATOM     28  O   UNL     1       1.610   6.987  20.798  0.00  0.00    +0.000 OA
ATOM     29  C   UNL     1       1.470   5.670  20.499  0.00  0.00    +0.000 A 
ENDBRANCH  24  25
ENDBRANCH   9  24
TORSDOF 6
ENDMDL
MODEL 9
REMARK VINA RESULT:      -7.3      2.773      4.043
REMARK  Name = 
REMARK  7 active torsions:
REMARK  status: ('A' for Active; 'I' for Inactive)
REMARK    1  A    between atoms: C_1  and  C_2
REMARK    2  A    between atoms: C_2  and  N_3
REMARK    3  A    between atoms: C_4  and  C_6
REMARK    4  A    between atoms: C_9  and  C_10
REMARK    5  A    between atoms: C_10  and  C_11
REMARK    6  A    between atoms: N_20  and  C_21
REMARK    7  A    between atoms: C_21  and  C_22
REMARK                            x       y       z     vdW  Elec       q    Type
REMARK                         _______ _______ _______ _____ _____    ______ ____
ROOT
ATOM      1  C   UNL     1       0.405  10.005  20.921  0.00  0.00    +0.000 C 
ATOM      2  C   UNL     1      -0.173  11.064  20.297  0.00  0.00    +0.000 C 
ATOM      3  C   UNL     1      -0.150  11.221  18.778  0.00  0.00    +0.000 C 
ATOM      4  C   UNL     1      -0.972  12.403  18.210  0.00  0.00    +0.000 C 
ATOM      5  C   UNL     1      -0.234  13.734  18.425  0.00  0.00    +0.000 C 
ATOM      6  C   UNL     1      -0.740  14.243  19.769  0.00  0.00    +0.000 C 
ATOM      7  C   UNL     1      -1.729  13.168  20.232  0.00  0.00    +0.000 C 
ATOM      8  C   UNL     1      -1.006  12.088  21.079  0.00  0.00    +0.000 C 
ATOM      9  N   UNL     1      -2.226  12.656  18.941  0.00  0.00    +0.000 NA
ENDROOT
BRANCH   1  13
ATOM     10  C   UNL     1       2.511   6.940  18.774  0.00  0.00    +0.000 A 
ATOM     11  C   UNL     1       2.119   6.734  20.101  0.00  0.00    +0.000 A 
ATOM     12  C   UNL     1       1.443   7.741  20.800  0.00  0.00    +0.000 A 
ATOM     13  C   UNL     1       1.155   8.966  20.183  0.00  0.00    +0.000 A 
ATOM     14  C   UNL     1       1.565   9.177  18.858  0.00  0.00    +0.000 A 
ATOM     15  C   UNL     1       2.247   8.172  18.161  0.00  0.00    +0.000 A 
BRANCH  10  17
ATOM     16  N   UNL     1       2.856   4.590  18.212  0.00  0.00    +0.000 N 
ATOM     17  C   UNL     1       3.241   5.899  17.997  0.00  0.00    +0.000 C 
ATOM     18  O   UNL     1       4.114   6.229  17.203  0.00  0.00    +0.000 OA
ATOM     19  H   UNL     1       2.008   4.400  18.726  0.00  0.00    +0.000 HD
BRANCH  16  21
ATOM     20  C   UNL     1       2.767   2.170  17.758  0.00  0.00    +0.000 C 
ATOM     21  C   UNL     1       3.475   3.488  17.500  0.00  0.00    +0.000 C 
ENDBRANCH  16  21
ENDBRANCH  10  17
ENDBRANCH   1  13
BRANCH   1  22
ATOM     22  C   UNL     1       0.303   9.829  22.339  0.00  0.00    +0.000 C 
ATOM     23  N   UNL     1       0.210   9.702  23.490  0.00  0.00    +0.000 NA
ENDBRANCH   1  22
BRANCH   9  24
ATOM     24  C   UNL     1      -3.148  11.527  19.089  0.00  0.00    +0.000 C 
BRANCH  24  25
ATOM     25  C   UNL     1      -4.550  11.898  18.743  0.00  0.00    +0.000 A 
ATOM     26  C   UNL     1      -5.190  11.747  17.476  0.00  0.00    +0.000 A 
ATOM     27  C   UNL     1      -6.493  12.149  17.644  0.00  0.00    +0.000 A 
ATOM     28  O   UNL     1      -6.703  12.545  18.924  0.00  0.00    +0.000 OA
ATOM     29  C   UNL     1      -5.526  12.392  19.584  0.00  0.00    +0.000 A 
ENDBRANCH  24  25
ENDBRANCH   9  24
TORSDOF 6
ENDMDL
