MODEL 1
REMARK VINA RESULT:      -9.4      0.000      0.000
REMARK  Name = 
REMARK  5 active torsions:
REMARK  status: ('A' for Active; 'I' for Inactive)
REMARK    1  A    between atoms: C_2  and  O_9
REMARK    2  A    between atoms: N_3  and  C_4
REMARK    3  A    between atoms: O_9  and  C_10
REMARK    4  A    between atoms: C_12  and  C_13
REMARK    5  A    between atoms: C_20  and  C_21
REMARK                            x       y       z     vdW  Elec       q    Type
REMARK                         _______ _______ _______ _____ _____    ______ ____
ROOT
ATOM      1  C   UNL     1       6.994   6.297  17.729  0.00  0.00    +0.000 A 
ATOM      2  C   UNL     1       7.235   5.801  16.449  0.00  0.00    +0.000 A 
ATOM      3  C   UNL     1       6.283   5.009  15.788  0.00  0.00    +0.000 A 
ATOM      4  C   UNL     1       5.130   4.655  16.514  0.00  0.00    +0.000 A 
ATOM      5  C   UNL     1       4.862   5.126  17.822  0.00  0.00    +0.000 A 
ATOM      6  C   UNL     1       5.824   5.968  18.412  0.00  0.00    +0.000 A 
ENDROOT
BRANCH   3   7
ATOM      7  C   UNL     1       6.453   4.634  14.363  0.00  0.00    +0.000 A 
ATOM      8  C   UNL     1       7.498   5.131  13.562  0.00  0.00    +0.000 A 
ATOM      9  C   UNL     1       7.661   4.714  12.234  0.00  0.00    +0.000 A 
ATOM     10  C   UNL     1       6.774   3.802  11.672  0.00  0.00    +0.000 A 
ATOM     11  C   UNL     1       5.733   3.294  12.439  0.00  0.00    +0.000 A 
ATOM     12  C   UNL     1       5.583   3.699  13.767  0.00  0.00    +0.000 A 
ENDBRANCH   3   7
BRANCH   5  13
ATOM     13  C   UNL     1       3.601   4.758  18.524  0.00  0.00    +0.000 A 
ATOM     14  C   UNL     1       2.576   4.037  17.882  0.00  0.00    +0.000 A 
ATOM     15  C   UNL     1       1.390   3.698  18.544  0.00  0.00    +0.000 A 
ATOM     16  C   UNL     1       1.191   4.083  19.866  0.00  0.00    +0.000 A 
ATOM     17  C   UNL     1       2.184   4.794  20.529  0.00  0.00    +0.000 A 
ATOM     18  C   UNL     1       3.374   5.115  19.868  0.00  0.00    +0.000 A 
ENDBRANCH   5  13
BRANCH   1  19
ATOM     19  O   UNL     1       8.031   7.103  18.267  0.00  0.00    +0.000 OA
BRANCH  19  21
ATOM     20  O   UNL     1       7.481   9.155  17.305  0.00  0.00    +0.000 OA
ATOM     21  C   UNL     1       8.075   8.489  18.142  0.00  0.00    +0.000 C 
ATOM     22  N   UNL     1       8.902   9.012  19.101  0.00  0.00    +0.000 N 
ATOM     23  H   UNL     1       9.447   8.346  19.631  0.00  0.00    +0.000 HD
BRANCH  22  24
ATOM     24  C   UNL     1       9.196  10.425  19.177  0.00  0.00    +0.000 C 
ATOM     25  C   UNL     1       9.523  10.894  20.591  0.00  0.00    +0.000 C 
ATOM     26  C   UNL     1      10.160  12.259  20.362  0.00  0.00    +0.000 C 
ATOM     27  C   UNL     1      10.881  12.153  19.017  0.00  0.00    +0.000 C 
ATOM     28  C   UNL     1      10.449  10.822  18.401  0.00  0.00    +0.000 C 
ENDBRANCH  22  24
ENDBRANCH  19  21
ENDBRANCH   1  19
TORSDOF 5
ENDMDL
MODEL 2
REMARK VINA RESULT:      -9.2      0.638      1.320
REMARK  Name = 
REMARK  5 active torsions:
REMARK  status: ('A' for Active; 'I' for Inactive)
REMARK    1  A    between atoms: C_2  and  O_9
REMARK    2  A    between atoms: N_3  and  C_4
REMARK    3  A    between atoms: O_9  and  C_10
REMARK    4  A    between atoms: C_12  and  C_13
REMARK    5  A    between atoms: C_20  and  C_21
REMARK                            x       y       z     vdW  Elec       q    Type
REMARK                         _______ _______ _______ _____ _____    ______ ____
ROOT
ATOM      1  C   UNL     1       7.136   6.238  18.005  0.00  0.00    +0.000 A 
ATOM      2  C   UNL     1       7.329   5.762  16.709  0.00  0.00    +0.000 A 
ATOM      3  C   UNL     1       6.395   4.905  16.105  0.00  0.00    +0.000 A 
ATOM      4  C   UNL     1       5.318   4.469  16.902  0.00  0.00    +0.000 A 
ATOM      5  C   UNL     1       5.102   4.918  18.226  0.00  0.00    +0.000 A 
ATOM      6  C   UNL     1       6.038   5.826  18.758  0.00  0.00    +0.000 A 
ENDROOT
BRANCH   3   7
ATOM      7  C   UNL     1       6.499   4.545  14.670  0.00  0.00    +0.000 A 
ATOM      8  C   UNL     1       5.588   3.683  14.032  0.00  0.00    +0.000 A 
ATOM      9  C   UNL     1       5.684   3.407  12.661  0.00  0.00    +0.000 A 
ATOM     10  C   UNL     1       6.701   3.974  11.901  0.00  0.00    +0.000 A 
ATOM     11  C   UNL     1       7.614   4.829  12.504  0.00  0.00    +0.000 A 
ATOM     12  C   UNL     1       7.507   5.116  13.867  0.00  0.00    +0.000 A 
ENDBRANCH   3   7
BRANCH   5  13
ATOM     13  C   UNL     1       3.918   4.460  19.005  0.00  0.00    +0.000 A 
ATOM     14  C   UNL     1       3.078   5.366  19.680  0.00  0.00    +0.000 A 
ATOM     15  C   UNL     1       1.970   4.930  20.417  0.00  0.00    +0.000 A 
ATOM     16  C   UNL     1       1.678   3.573  20.508  0.00  0.00    +0.000 A 
ATOM     17  C   UNL     1       2.487   2.653  19.852  0.00  0.00    +0.000 A 
ATOM     18  C   UNL     1       3.584   3.095  19.104  0.00  0.00    +0.000 A 
ENDBRANCH   5  13
BRANCH   1  19
ATOM     19  O   UNL     1       8.145   7.115  18.479  0.00  0.00    +0.000 OA
BRANCH  19  21
ATOM     20  O   UNL     1       7.557   9.057  17.331  0.00  0.00    +0.000 OA
ATOM     21  C   UNL     1       8.158   8.484  18.230  0.00  0.00    +0.000 C 
ATOM     22  N   UNL     1       8.963   9.112  19.145  0.00  0.00    +0.000 N 
ATOM     23  H   UNL     1       9.517   8.510  19.738  0.00  0.00    +0.000 HD
BRANCH  22  24
ATOM     24  C   UNL     1       9.222  10.533  19.095  0.00  0.00    +0.000 C 
ATOM     25  C   UNL     1       9.732  11.096  20.418  0.00  0.00    +0.000 C 
ATOM     26  C   UNL     1      10.289  12.457  20.020  0.00  0.00    +0.000 C 
ATOM     27  C   UNL     1      10.815  12.282  18.594  0.00  0.00    +0.000 C 
ATOM     28  C   UNL     1      10.340  10.907  18.126  0.00  0.00    +0.000 C 
ENDBRANCH  22  24
ENDBRANCH  19  21
ENDBRANCH   1  19
TORSDOF 5
ENDMDL
MODEL 3
REMARK VINA RESULT:      -9.1      0.224      5.346
REMARK  Name = 
REMARK  5 active torsions:
REMARK  status: ('A' for Active; 'I' for Inactive)
REMARK    1  A    between atoms: C_2  and  O_9
REMARK    2  A    between atoms: N_3  and  C_4
REMARK    3  A    between atoms: O_9  and  C_10
REMARK    4  A    between atoms: C_12  and  C_13
REMARK    5  A    between atoms: C_20  and  C_21
REMARK                            x       y       z     vdW  Elec       q    Type
REMARK                         _______ _______ _______ _____ _____    ______ ____
ROOT
ATOM      1  C   UNL     1       7.060   6.438  17.561  0.00  0.00    +0.000 A 
ATOM      2  C   UNL     1       5.852   6.207  18.218  0.00  0.00    +0.000 A 
ATOM      3  C   UNL     1       4.842   5.432  17.626  0.00  0.00    +0.000 A 
ATOM      4  C   UNL     1       5.064   4.993  16.306  0.00  0.00    +0.000 A 
ATOM      5  C   UNL     1       6.271   5.224  15.604  0.00  0.00    +0.000 A 
ATOM      6  C   UNL     1       7.273   5.955  16.271  0.00  0.00    +0.000 A 
ENDROOT
BRANCH   3   7
ATOM      7  C   UNL     1       3.635   5.030  18.389  0.00  0.00    +0.000 A 
ATOM      8  C   UNL     1       2.555   4.345  17.802  0.00  0.00    +0.000 A 
ATOM      9  C   UNL     1       1.454   3.932  18.565  0.00  0.00    +0.000 A 
ATOM     10  C   UNL     1       1.402   4.206  19.928  0.00  0.00    +0.000 A 
ATOM     11  C   UNL     1       2.455   4.880  20.533  0.00  0.00    +0.000 A 
ATOM     12  C   UNL     1       3.558   5.277  19.774  0.00  0.00    +0.000 A 
ENDBRANCH   3   7
BRANCH   5  13
ATOM     13  C   UNL     1       6.469   4.693  14.227  0.00  0.00    +0.000 A 
ATOM     14  C   UNL     1       7.504   5.157  13.393  0.00  0.00    +0.000 A 
ATOM     15  C   UNL     1       7.683   4.659  12.097  0.00  0.00    +0.000 A 
ATOM     16  C   UNL     1       6.821   3.691  11.594  0.00  0.00    +0.000 A 
ATOM     17  C   UNL     1       5.789   3.211  12.391  0.00  0.00    +0.000 A 
ATOM     18  C   UNL     1       5.625   3.699  13.692  0.00  0.00    +0.000 A 
ENDBRANCH   5  13
BRANCH   1  19
ATOM     19  O   UNL     1       7.998   7.217  18.287  0.00  0.00    +0.000 OA
BRANCH  19  21
ATOM     20  O   UNL     1       7.604   9.289  17.294  0.00  0.00    +0.000 OA
ATOM     21  C   UNL     1       8.111   8.599  18.167  0.00  0.00    +0.000 C 
ATOM     22  N   UNL     1       8.895   9.086  19.181  0.00  0.00    +0.000 N 
ATOM     23  H   UNL     1       9.373   8.398  19.746  0.00  0.00    +0.000 HD
BRANCH  22  24
ATOM     24  C   UNL     1       9.244  10.485  19.279  0.00  0.00    +0.000 C 
ATOM     25  C   UNL     1       9.580  10.921  20.701  0.00  0.00    +0.000 C 
ATOM     26  C   UNL     1      10.272  12.263  20.495  0.00  0.00    +0.000 C 
ATOM     27  C   UNL     1      10.997  12.146  19.153  0.00  0.00    +0.000 C 
ATOM     28  C   UNL     1      10.516  10.843  18.516  0.00  0.00    +0.000 C 
ENDBRANCH  22  24
ENDBRANCH  19  21
ENDBRANCH   1  19
TORSDOF 5
ENDMDL
MODEL 4
REMARK VINA RESULT:      -9.1      0.813      1.539
REMARK  Name = 
REMARK  5 active torsions:
REMARK  status: ('A' for Active; 'I' for Inactive)
REMARK    1  A    between atoms: C_2  and  O_9
REMARK    2  A    between atoms: N_3  and  C_4
REMARK    3  A    between atoms: O_9  and  C_10
REMARK    4  A    between atoms: C_12  and  C_13
REMARK    5  A    between atoms: C_20  and  C_21
REMARK                            x       y       z     vdW  Elec       q    Type
REMARK                         _______ _______ _______ _____ _____    ______ ____
ROOT
ATOM      1  C   UNL     1       5.806   7.012  16.999  0.00  0.00    +0.000 A 
ATOM      2  C   UNL     1       6.275   6.348  15.866  0.00  0.00    +0.000 A 
ATOM      3  C   UNL     1       5.696   5.141  15.443  0.00  0.00    +0.000 A 
ATOM      4  C   UNL     1       4.699   4.584  16.269  0.00  0.00    +0.000 A 
ATOM      5  C   UNL     1       4.213   5.223  17.434  0.00  0.00    +0.000 A 
ATOM      6  C   UNL     1       4.789   6.462  17.776  0.00  0.00    +0.000 A 
ENDROOT
BRANCH   3   7
ATOM      7  C   UNL     1       6.063   4.527  14.143  0.00  0.00    +0.000 A 
ATOM      8  C   UNL     1       5.236   3.606  13.474  0.00  0.00    +0.000 A 
ATOM      9  C   UNL     1       5.589   3.086  12.221  0.00  0.00    +0.000 A 
ATOM     10  C   UNL     1       6.782   3.466  11.615  0.00  0.00    +0.000 A 
ATOM     11  C   UNL     1       7.617   4.375  12.252  0.00  0.00    +0.000 A 
ATOM     12  C   UNL     1       7.256   4.903  13.493  0.00  0.00    +0.000 A 
ENDBRANCH   3   7
BRANCH   5  13
ATOM     13  C   UNL     1       3.123   4.611  18.243  0.00  0.00    +0.000 A 
ATOM     14  C   UNL     1       2.421   3.472  17.804  0.00  0.00    +0.000 A 
ATOM     15  C   UNL     1       1.393   2.904  18.565  0.00  0.00    +0.000 A 
ATOM     16  C   UNL     1       1.029   3.468  19.783  0.00  0.00    +0.000 A 
ATOM     17  C   UNL     1       1.703   4.591  20.247  0.00  0.00    +0.000 A 
ATOM     18  C   UNL     1       2.741   5.146  19.490  0.00  0.00    +0.000 A 
ENDBRANCH   5  13
BRANCH   1  19
ATOM     19  O   UNL     1       6.467   8.232  17.296  0.00  0.00    +0.000 OA
BRANCH  19  21
ATOM     20  O   UNL     1       8.301   7.369  18.450  0.00  0.00    +0.000 OA
ATOM     21  C   UNL     1       7.695   8.306  17.946  0.00  0.00    +0.000 C 
ATOM     22  N   UNL     1       8.137   9.604  17.950  0.00  0.00    +0.000 N 
ATOM     23  H   UNL     1       7.476  10.300  17.635  0.00  0.00    +0.000 HD
BRANCH  22  24
ATOM     24  C   UNL     1       9.358   9.999  18.614  0.00  0.00    +0.000 C 
ATOM     25  C   UNL     1      10.071  11.155  17.920  0.00  0.00    +0.000 C 
ATOM     26  C   UNL     1      11.061  11.632  18.975  0.00  0.00    +0.000 C 
ATOM     27  C   UNL     1      10.379  11.376  20.320  0.00  0.00    +0.000 C 
ATOM     28  C   UNL     1       9.129  10.550  20.019  0.00  0.00    +0.000 C 
ENDBRANCH  22  24
ENDBRANCH  19  21
ENDBRANCH   1  19
TORSDOF 5
ENDMDL
MODEL 5
REMARK VINA RESULT:      -9.0      0.607      5.265
REMARK  Name = 
REMARK  5 active torsions:
REMARK  status: ('A' for Active; 'I' for Inactive)
REMARK    1  A    between atoms: C_2  and  O_9
REMARK    2  A    between atoms: N_3  and  C_4
REMARK    3  A    between atoms: O_9  and  C_10
REMARK    4  A    between atoms: C_12  and  C_13
REMARK    5  A    between atoms: C_20  and  C_21
REMARK                            x       y       z     vdW  Elec       q    Type
REMARK                         _______ _______ _______ _____ _____    ______ ____
ROOT
ATOM      1  C   UNL     1       7.185   6.310  17.778  0.00  0.00    +0.000 A 
ATOM      2  C   UNL     1       6.093   5.907  18.545  0.00  0.00    +0.000 A 
ATOM      3  C   UNL     1       5.126   5.032  18.024  0.00  0.00    +0.000 A 
ATOM      4  C   UNL     1       5.254   4.670  16.669  0.00  0.00    +0.000 A 
ATOM      5  C   UNL     1       6.340   5.076  15.857  0.00  0.00    +0.000 A 
ATOM      6  C   UNL     1       7.313   5.903  16.451  0.00  0.00    +0.000 A 
ENDROOT
BRANCH   3   7
ATOM      7  C   UNL     1       4.067   4.455  18.889  0.00  0.00    +0.000 A 
ATOM      8  C   UNL     1       3.362   5.214  19.841  0.00  0.00    +0.000 A 
ATOM      9  C   UNL     1       2.330   4.650  20.604  0.00  0.00    +0.000 A 
ATOM     10  C   UNL     1       1.990   3.311  20.441  0.00  0.00    +0.000 A 
ATOM     11  C   UNL     1       2.668   2.539  19.507  0.00  0.00    +0.000 A 
ATOM     12  C   UNL     1       3.686   3.107  18.737  0.00  0.00    +0.000 A 
ENDBRANCH   3   7
BRANCH   5  13
ATOM     13  C   UNL     1       6.450   4.622  14.443  0.00  0.00    +0.000 A 
ATOM     14  C   UNL     1       5.521   3.730  13.875  0.00  0.00    +0.000 A 
ATOM     15  C   UNL     1       5.631   3.301  12.547  0.00  0.00    +0.000 A 
ATOM     16  C   UNL     1       6.683   3.744  11.753  0.00  0.00    +0.000 A 
ATOM     17  C   UNL     1       7.617   4.627  12.283  0.00  0.00    +0.000 A 
ATOM     18  C   UNL     1       7.493   5.065  13.605  0.00  0.00    +0.000 A 
ENDBRANCH   5  13
BRANCH   1  19
ATOM     19  O   UNL     1       8.096   7.175  18.439  0.00  0.00    +0.000 OA
BRANCH  19  21
ATOM     20  O   UNL     1       7.600   9.154  17.310  0.00  0.00    +0.000 OA
ATOM     21  C   UNL     1       8.161   8.546  18.212  0.00  0.00    +0.000 C 
ATOM     22  N   UNL     1       8.966   9.132  19.154  0.00  0.00    +0.000 N 
ATOM     23  H   UNL     1       9.487   8.502  19.749  0.00  0.00    +0.000 HD
BRANCH  22  24
ATOM     24  C   UNL     1       9.275  10.543  19.133  0.00  0.00    +0.000 C 
ATOM     25  C   UNL     1       9.873  11.046  20.443  0.00  0.00    +0.000 C 
ATOM     26  C   UNL     1      10.459  12.398  20.057  0.00  0.00    +0.000 C 
ATOM     27  C   UNL     1      10.904  12.250  18.601  0.00  0.00    +0.000 C 
ATOM     28  C   UNL     1      10.354  10.908  18.118  0.00  0.00    +0.000 C 
ENDBRANCH  22  24
ENDBRANCH  19  21
ENDBRANCH   1  19
TORSDOF 5
ENDMDL
MODEL 6
REMARK VINA RESULT:      -8.8      0.777      1.633
REMARK  Name = 
REMARK  5 active torsions:
REMARK  status: ('A' for Active; 'I' for Inactive)
REMARK    1  A    between atoms: C_2  and  O_9
REMARK    2  A    between atoms: N_3  and  C_4
REMARK    3  A    between atoms: O_9  and  C_10
REMARK    4  A    between atoms: C_12  and  C_13
REMARK    5  A    between atoms: C_20  and  C_21
REMARK                            x       y       z     vdW  Elec       q    Type
REMARK                         _______ _______ _______ _____ _____    ______ ____
ROOT
ATOM      1  C   UNL     1       6.633   5.873  17.943  0.00  0.00    +0.000 A 
ATOM      2  C   UNL     1       6.974   5.473  16.652  0.00  0.00    +0.000 A 
ATOM      3  C   UNL     1       6.109   4.672  15.890  0.00  0.00    +0.000 A 
ATOM      4  C   UNL     1       4.940   4.209  16.525  0.00  0.00    +0.000 A 
ATOM      5  C   UNL     1       4.572   4.582  17.840  0.00  0.00    +0.000 A 
ATOM      6  C   UNL     1       5.449   5.437  18.535  0.00  0.00    +0.000 A 
ENDROOT
BRANCH   3   7
ATOM      7  C   UNL     1       6.379   4.397  14.458  0.00  0.00    +0.000 A 
ATOM      8  C   UNL     1       5.611   3.497  13.696  0.00  0.00    +0.000 A 
ATOM      9  C   UNL     1       5.860   3.301  12.330  0.00  0.00    +0.000 A 
ATOM     10  C   UNL     1       6.891   3.990  11.700  0.00  0.00    +0.000 A 
ATOM     11  C   UNL     1       7.665   4.885  12.427  0.00  0.00    +0.000 A 
ATOM     12  C   UNL     1       7.405   5.090  13.784  0.00  0.00    +0.000 A 
ENDBRANCH   3   7
BRANCH   5  13
ATOM     13  C   UNL     1       3.299   4.101  18.444  0.00  0.00    +0.000 A 
ATOM     14  C   UNL     1       2.760   4.685  19.606  0.00  0.00    +0.000 A 
ATOM     15  C   UNL     1       1.566   4.225  20.173  0.00  0.00    +0.000 A 
ATOM     16  C   UNL     1       0.883   3.158  19.600  0.00  0.00    +0.000 A 
ATOM     17  C   UNL     1       1.387   2.560  18.451  0.00  0.00    +0.000 A 
ATOM     18  C   UNL     1       2.572   3.034  17.878  0.00  0.00    +0.000 A 
ENDBRANCH   5  13
BRANCH   1  19
ATOM     19  O   UNL     1       7.589   6.701  18.588  0.00  0.00    +0.000 OA
BRANCH  19  21
ATOM     20  O   UNL     1       7.940   8.266  16.896  0.00  0.00    +0.000 OA
ATOM     21  C   UNL     1       8.052   7.902  18.058  0.00  0.00    +0.000 C 
ATOM     22  N   UNL     1       8.673   8.629  19.041  0.00  0.00    +0.000 N 
ATOM     23  H   UNL     1       8.830   8.152  19.917  0.00  0.00    +0.000 HD
BRANCH  22  24
ATOM     24  C   UNL     1       9.313   9.897  18.772  0.00  0.00    +0.000 C 
ATOM     25  C   UNL     1       8.393  10.899  18.082  0.00  0.00    +0.000 C 
ATOM     26  C   UNL     1       9.129  12.221  18.262  0.00  0.00    +0.000 C 
ATOM     27  C   UNL     1       9.863  12.102  19.598  0.00  0.00    +0.000 C 
ATOM     28  C   UNL     1       9.725  10.644  20.036  0.00  0.00    +0.000 C 
ENDBRANCH  22  24
ENDBRANCH  19  21
ENDBRANCH   1  19
TORSDOF 5
ENDMDL
MODEL 7
REMARK VINA RESULT:      -8.8      0.919      1.480
REMARK  Name = 
REMARK  5 active torsions:
REMARK  status: ('A' for Active; 'I' for Inactive)
REMARK    1  A    between atoms: C_2  and  O_9
REMARK    2  A    between atoms: N_3  and  C_4
REMARK    3  A    between atoms: O_9  and  C_10
REMARK    4  A    between atoms: C_12  and  C_13
REMARK    5  A    between atoms: C_20  and  C_21
REMARK                            x       y       z     vdW  Elec       q    Type
REMARK                         _______ _______ _______ _____ _____    ______ ____
ROOT
ATOM      1  C   UNL     1       5.897   6.891  17.012  0.00  0.00    +0.000 A 
ATOM      2  C   UNL     1       6.325   6.293  15.828  0.00  0.00    +0.000 A 
ATOM      3  C   UNL     1       5.778   5.076  15.392  0.00  0.00    +0.000 A 
ATOM      4  C   UNL     1       4.861   4.441  16.253  0.00  0.00    +0.000 A 
ATOM      5  C   UNL     1       4.419   5.012  17.471  0.00  0.00    +0.000 A 
ATOM      6  C   UNL     1       4.956   6.264  17.827  0.00  0.00    +0.000 A 
ENDROOT
BRANCH   3   7
ATOM      7  C   UNL     1       6.092   4.529  14.049  0.00  0.00    +0.000 A 
ATOM      8  C   UNL     1       7.281   4.833  13.361  0.00  0.00    +0.000 A 
ATOM      9  C   UNL     1       7.571   4.257  12.117  0.00  0.00    +0.000 A 
ATOM     10  C   UNL     1       6.672   3.375  11.526  0.00  0.00    +0.000 A 
ATOM     11  C   UNL     1       5.491   3.056  12.183  0.00  0.00    +0.000 A 
ATOM     12  C   UNL     1       5.211   3.620  13.430  0.00  0.00    +0.000 A 
ENDBRANCH   3   7
BRANCH   5  13
ATOM     13  C   UNL     1       3.411   4.317  18.319  0.00  0.00    +0.000 A 
ATOM     14  C   UNL     1       2.504   5.028  19.127  0.00  0.00    +0.000 A 
ATOM     15  C   UNL     1       1.562   4.371  19.927  0.00  0.00    +0.000 A 
ATOM     16  C   UNL     1       1.510   2.982  19.951  0.00  0.00    +0.000 A 
ATOM     17  C   UNL     1       2.390   2.250  19.164  0.00  0.00    +0.000 A 
ATOM     18  C   UNL     1       3.319   2.911  18.353  0.00  0.00    +0.000 A 
ENDBRANCH   5  13
BRANCH   1  19
ATOM     19  O   UNL     1       6.517   8.130  17.317  0.00  0.00    +0.000 OA
BRANCH  19  21
ATOM     20  O   UNL     1       8.357   7.326  18.502  0.00  0.00    +0.000 OA
ATOM     21  C   UNL     1       7.737   8.241  17.977  0.00  0.00    +0.000 C 
ATOM     22  N   UNL     1       8.151   9.548  17.965  0.00  0.00    +0.000 N 
ATOM     23  H   UNL     1       7.479  10.225  17.632  0.00  0.00    +0.000 HD
BRANCH  22  24
ATOM     24  C   UNL     1       9.357   9.980  18.634  0.00  0.00    +0.000 C 
ATOM     25  C   UNL     1      10.040  11.153  17.940  0.00  0.00    +0.000 C 
ATOM     26  C   UNL     1      11.011  11.661  18.999  0.00  0.00    +0.000 C 
ATOM     27  C   UNL     1      10.330  11.389  20.341  0.00  0.00    +0.000 C 
ATOM     28  C   UNL     1       9.105  10.527  20.035  0.00  0.00    +0.000 C 
ENDBRANCH  22  24
ENDBRANCH  19  21
ENDBRANCH   1  19
TORSDOF 5
ENDMDL
MODEL 8
REMARK VINA RESULT:      -8.7      3.620      7.212
REMARK  Name = 
REMARK  5 active torsions:
REMARK  status: ('A' for Active; 'I' for Inactive)
REMARK    1  A    between atoms: C_2  and  O_9
REMARK    2  A    between atoms: N_3  and  C_4
REMARK    3  A    between atoms: O_9  and  C_10
REMARK    4  A    between atoms: C_12  and  C_13
REMARK    5  A    between atoms: C_20  and  C_21
REMARK                            x       y       z     vdW  Elec       q    Type
REMARK                         _______ _______ _______ _____ _____    ______ ____
ROOT
ATOM      1  C   UNL     1       4.496   6.976  17.325  0.00  0.00    +0.000 A 
ATOM      2  C   UNL     1       3.785   8.174  17.346  0.00  0.00    +0.000 A 
ATOM      3  C   UNL     1       2.524   8.259  17.956  0.00  0.00    +0.000 A 
ATOM      4  C   UNL     1       1.970   7.061  18.449  0.00  0.00    +0.000 A 
ATOM      5  C   UNL     1       2.657   5.823  18.428  0.00  0.00    +0.000 A 
ATOM      6  C   UNL     1       3.944   5.812  17.858  0.00  0.00    +0.000 A 
ENDROOT
BRANCH   3   7
ATOM      7  C   UNL     1       1.847   9.565  18.145  0.00  0.00    +0.000 A 
ATOM      8  C   UNL     1       0.501   9.677  18.540  0.00  0.00    +0.000 A 
ATOM      9  C   UNL     1      -0.092  10.928  18.761  0.00  0.00    +0.000 A 
ATOM     10  C   UNL     1       0.644  12.095  18.579  0.00  0.00    +0.000 A 
ATOM     11  C   UNL     1       1.975  12.014  18.191  0.00  0.00    +0.000 A 
ATOM     12  C   UNL     1       2.568  10.766  17.986  0.00  0.00    +0.000 A 
ENDBRANCH   3   7
BRANCH   5  13
ATOM     13  C   UNL     1       2.041   4.597  19.007  0.00  0.00    +0.000 A 
ATOM     14  C   UNL     1       1.973   4.386  20.398  0.00  0.00    +0.000 A 
ATOM     15  C   UNL     1       1.399   3.229  20.938  0.00  0.00    +0.000 A 
ATOM     16  C   UNL     1       0.888   2.244  20.100  0.00  0.00    +0.000 A 
ATOM     17  C   UNL     1       0.938   2.422  18.723  0.00  0.00    +0.000 A 
ATOM     18  C   UNL     1       1.498   3.587  18.188  0.00  0.00    +0.000 A 
ENDBRANCH   5  13
BRANCH   1  19
ATOM     19  O   UNL     1       5.766   7.041  16.697  0.00  0.00    +0.000 OA
BRANCH  19  21
ATOM     20  O   UNL     1       7.366   5.347  16.627  0.00  0.00    +0.000 OA
ATOM     21  C   UNL     1       6.411   5.939  16.143  0.00  0.00    +0.000 C 
ATOM     22  N   UNL     1       5.821   5.611  14.950  0.00  0.00    +0.000 N 
ATOM     23  H   UNL     1       5.143   6.269  14.592  0.00  0.00    +0.000 HD
BRANCH  22  24
ATOM     24  C   UNL     1       6.321   4.545  14.112  0.00  0.00    +0.000 C 
ATOM     25  C   UNL     1       5.233   3.880  13.275  0.00  0.00    +0.000 C 
ATOM     26  C   UNL     1       6.027   3.104  12.232  0.00  0.00    +0.000 C 
ATOM     27  C   UNL     1       7.291   3.929  11.983  0.00  0.00    +0.000 C 
ATOM     28  C   UNL     1       7.306   5.025  13.050  0.00  0.00    +0.000 C 
ENDBRANCH  22  24
ENDBRANCH  19  21
ENDBRANCH   1  19
TORSDOF 5
ENDMDL
MODEL 9
REMARK VINA RESULT:      -8.6      0.965      5.407
REMARK  Name = 
REMARK  5 active torsions:
REMARK  status: ('A' for Active; 'I' for Inactive)
REMARK    1  A    between atoms: C_2  and  O_9
REMARK    2  A    between atoms: N_3  and  C_4
REMARK    3  A    between atoms: O_9  and  C_10
REMARK    4  A    between atoms: C_12  and  C_13
REMARK    5  A    between atoms: C_20  and  C_21
REMARK                            x       y       z     vdW  Elec       q    Type
REMARK                         _______ _______ _______ _____ _____    ______ ____
ROOT
ATOM      1  C   UNL     1       5.980   6.929  17.063  0.00  0.00    +0.000 A 
ATOM      2  C   UNL     1       5.047   6.308  17.890  0.00  0.00    +0.000 A 
ATOM      3  C   UNL     1       4.464   5.082  17.532  0.00  0.00    +0.000 A 
ATOM      4  C   UNL     1       4.784   4.568  16.261  0.00  0.00    +0.000 A 
ATOM      5  C   UNL     1       5.714   5.182  15.388  0.00  0.00    +0.000 A 
ATOM      6  C   UNL     1       6.315   6.378  15.827  0.00  0.00    +0.000 A 
ENDROOT
BRANCH   3   7
ATOM      7  C   UNL     1       3.615   4.328  18.487  0.00  0.00    +0.000 A 
ATOM      8  C   UNL     1       4.132   3.360  19.368  0.00  0.00    +0.000 A 
ATOM      9  C   UNL     1       3.310   2.704  20.295  0.00  0.00    +0.000 A 
ATOM     10  C   UNL     1       1.950   2.991  20.352  0.00  0.00    +0.000 A 
ATOM     11  C   UNL     1       1.412   3.943  19.494  0.00  0.00    +0.000 A 
ATOM     12  C   UNL     1       2.237   4.606  18.582  0.00  0.00    +0.000 A 
ENDBRANCH   3   7
BRANCH   5  13
ATOM     13  C   UNL     1       6.052   4.568  14.074  0.00  0.00    +0.000 A 
ATOM     14  C   UNL     1       5.203   3.633  13.451  0.00  0.00    +0.000 A 
ATOM     15  C   UNL     1       5.527   3.053  12.219  0.00  0.00    +0.000 A 
ATOM     16  C   UNL     1       6.718   3.383  11.581  0.00  0.00    +0.000 A 
ATOM     17  C   UNL     1       7.577   4.303  12.169  0.00  0.00    +0.000 A 
ATOM     18  C   UNL     1       7.241   4.893  13.392  0.00  0.00    +0.000 A 
ENDBRANCH   5  13
BRANCH   1  19
ATOM     19  O   UNL     1       6.506   8.150  17.560  0.00  0.00    +0.000 OA
BRANCH  19  21
ATOM     20  O   UNL     1       8.456   7.359  18.565  0.00  0.00    +0.000 OA
ATOM     21  C   UNL     1       7.774   8.273  18.121  0.00  0.00    +0.000 C 
ATOM     22  N   UNL     1       8.156   9.589  18.114  0.00  0.00    +0.000 N 
ATOM     23  H   UNL     1       7.443  10.258  17.858  0.00  0.00    +0.000 HD
BRANCH  22  24
ATOM     24  C   UNL     1       9.403  10.032  18.694  0.00  0.00    +0.000 C 
ATOM     25  C   UNL     1      10.070  11.151  17.900  0.00  0.00    +0.000 C 
ATOM     26  C   UNL     1      11.104  11.697  18.877  0.00  0.00    +0.000 C 
ATOM     27  C   UNL     1      10.490  11.514  20.266  0.00  0.00    +0.000 C 
ATOM     28  C   UNL     1       9.235  10.663  20.073  0.00  0.00    +0.000 C 
ENDBRANCH  22  24
ENDBRANCH  19  21
ENDBRANCH   1  19
TORSDOF 5
ENDMDL
