MODEL 1
REMARK VINA RESULT:      -7.6      0.000      0.000
REMARK  Name = 
REMARK  5 active torsions:
REMARK  status: ('A' for Active; 'I' for Inactive)
REMARK    1  A    between atoms: C_2  and  O_3
REMARK    2  A    between atoms: C_2  and  C_4
REMARK    3  A    between atoms: C_5  and  C_6
REMARK    4  A    between atoms: C_11  and  O_12
REMARK    5  A    between atoms: O_12  and  C_13
REMARK                            x       y       z     vdW  Elec       q    Type
REMARK                         _______ _______ _______ _____ _____    ______ ____
ROOT
ATOM      1  C   UNL     1       2.501   4.290  18.304  0.00  0.00    +0.000 A 
ATOM      2  C   UNL     1       1.868   3.056  18.090  0.00  0.00    +0.000 A 
ATOM      3  C   UNL     1       0.955   2.555  19.018  0.00  0.00    +0.000 A 
ATOM      4  C   UNL     1       0.664   3.283  20.169  0.00  0.00    +0.000 A 
ATOM      5  C   UNL     1       1.265   4.524  20.378  0.00  0.00    +0.000 A 
ATOM      6  C   UNL     1       2.164   5.047  19.442  0.00  0.00    +0.000 A 
ENDROOT
BRANCH   1   8
ATOM      7  C   UNL     1       4.877   4.672  17.538  0.00  0.00    +0.000 C 
ATOM      8  C   UNL     1       3.547   4.669  17.354  0.00  0.00    +0.000 C 
BRANCH   7  10
ATOM      9  O   UNL     1       6.637   5.070  19.026  0.00  0.00    +0.000 OA
ATOM     10  C   UNL     1       5.744   4.313  18.677  0.00  0.00    +0.000 C 
BRANCH  10  11
ATOM     11  O   UNL     1       5.518   3.145  19.289  0.00  0.00    +0.000 OA
ATOM     12  H   UNL     1       5.303   2.398  18.702  0.00  0.00    +0.000 HD
ENDBRANCH  10  11
ENDBRANCH   7  10
ENDBRANCH   1   8
BRANCH   6  13
ATOM     13  O   UNL     1       2.777   6.220  19.821  0.00  0.00    +0.000 OA
BRANCH  13  14
ATOM     14  C   UNL     1       2.176   7.439  19.597  0.00  0.00    +0.000 A 
ATOM     15  C   UNL     1       1.480   8.189  20.549  0.00  0.00    +0.000 A 
ATOM     16  C   UNL     1       0.865   9.387  20.177  0.00  0.00    +0.000 A 
ATOM     17  C   UNL     1       1.001   9.859  18.877  0.00  0.00    +0.000 A 
ATOM     18  F   UNL     1       0.416  11.012  18.528  0.00  0.00    +0.000 F 
ATOM     19  C   UNL     1       1.742   9.155  17.937  0.00  0.00    +0.000 A 
ATOM     20  C   UNL     1       2.327   7.940  18.298  0.00  0.00    +0.000 A 
ENDBRANCH  13  14
ENDBRANCH   6  13
TORSDOF 5
ENDMDL
MODEL 2
REMARK VINA RESULT:      -7.5      0.135      1.116
REMARK  Name = 
REMARK  5 active torsions:
REMARK  status: ('A' for Active; 'I' for Inactive)
REMARK    1  A    between atoms: C_2  and  O_3
REMARK    2  A    between atoms: C_2  and  C_4
REMARK    3  A    between atoms: C_5  and  C_6
REMARK    4  A    between atoms: C_11  and  O_12
REMARK    5  A    between atoms: O_12  and  C_13
REMARK                            x       y       z     vdW  Elec       q    Type
REMARK                         _______ _______ _______ _____ _____    ______ ____
ROOT
ATOM      1  C   UNL     1       2.481   4.271  18.296  0.00  0.00    +0.000 A 
ATOM      2  C   UNL     1       1.861   3.027  18.101  0.00  0.00    +0.000 A 
ATOM      3  C   UNL     1       0.974   2.519  19.051  0.00  0.00    +0.000 A 
ATOM      4  C   UNL     1       0.697   3.249  20.204  0.00  0.00    +0.000 A 
ATOM      5  C   UNL     1       1.286   4.498  20.395  0.00  0.00    +0.000 A 
ATOM      6  C   UNL     1       2.158   5.029  19.437  0.00  0.00    +0.000 A 
ENDROOT
BRANCH   1   8
ATOM      7  C   UNL     1       4.837   4.641  17.465  0.00  0.00    +0.000 C 
ATOM      8  C   UNL     1       3.502   4.659  17.322  0.00  0.00    +0.000 C 
BRANCH   7  10
ATOM      9  O   UNL     1       6.747   4.889  18.792  0.00  0.00    +0.000 OA
ATOM     10  C   UNL     1       5.734   4.244  18.568  0.00  0.00    +0.000 C 
BRANCH  10  11
ATOM     11  O   UNL     1       5.401   3.166  19.287  0.00  0.00    +0.000 OA
ATOM     12  H   UNL     1       5.094   3.345  20.193  0.00  0.00    +0.000 HD
ENDBRANCH  10  11
ENDBRANCH   7  10
ENDBRANCH   1   8
BRANCH   6  13
ATOM     13  O   UNL     1       2.763   6.211  19.798  0.00  0.00    +0.000 OA
BRANCH  13  14
ATOM     14  C   UNL     1       2.227   7.424  19.426  0.00  0.00    +0.000 A 
ATOM     15  C   UNL     1       2.313   7.995  18.153  0.00  0.00    +0.000 A 
ATOM     16  C   UNL     1       1.773   9.263  17.921  0.00  0.00    +0.000 A 
ATOM     17  C   UNL     1       1.097   9.922  18.940  0.00  0.00    +0.000 A 
ATOM     18  F   UNL     1       0.575  11.134  18.710  0.00  0.00    +0.000 F 
ATOM     19  C   UNL     1       0.950   9.340  20.192  0.00  0.00    +0.000 A 
ATOM     20  C   UNL     1       1.519   8.089  20.435  0.00  0.00    +0.000 A 
ENDBRANCH  13  14
ENDBRANCH   6  13
TORSDOF 5
ENDMDL
MODEL 3
REMARK VINA RESULT:      -7.4      3.163      5.490
REMARK  Name = 
REMARK  5 active torsions:
REMARK  status: ('A' for Active; 'I' for Inactive)
REMARK    1  A    between atoms: C_2  and  O_3
REMARK    2  A    between atoms: C_2  and  C_4
REMARK    3  A    between atoms: C_5  and  C_6
REMARK    4  A    between atoms: C_11  and  O_12
REMARK    5  A    between atoms: O_12  and  C_13
REMARK                            x       y       z     vdW  Elec       q    Type
REMARK                         _______ _______ _______ _____ _____    ______ ____
ROOT
ATOM      1  C   UNL     1       6.292   5.894  17.215  0.00  0.00    +0.000 A 
ATOM      2  C   UNL     1       7.060   7.057  17.050  0.00  0.00    +0.000 A 
ATOM      3  C   UNL     1       7.972   7.451  18.029  0.00  0.00    +0.000 A 
ATOM      4  C   UNL     1       8.128   6.686  19.182  0.00  0.00    +0.000 A 
ATOM      5  C   UNL     1       7.391   5.513  19.344  0.00  0.00    +0.000 A 
ATOM      6  C   UNL     1       6.490   5.096  18.357  0.00  0.00    +0.000 A 
ENDROOT
BRANCH   1   8
ATOM      7  C   UNL     1       5.406   5.094  14.989  0.00  0.00    +0.000 C 
ATOM      8  C   UNL     1       5.261   5.636  16.209  0.00  0.00    +0.000 C 
BRANCH   7  10
ATOM      9  O   UNL     1       7.598   5.230  14.185  0.00  0.00    +0.000 OA
ATOM     10  C   UNL     1       6.568   4.576  14.241  0.00  0.00    +0.000 C 
BRANCH  10  11
ATOM     11  O   UNL     1       6.442   3.389  13.636  0.00  0.00    +0.000 OA
ATOM     12  H   UNL     1       5.537   3.031  13.601  0.00  0.00    +0.000 HD
ENDBRANCH  10  11
ENDBRANCH   7  10
ENDBRANCH   1   8
BRANCH   6  13
ATOM     13  O   UNL     1       5.740   3.990  18.688  0.00  0.00    +0.000 OA
BRANCH  13  14
ATOM     14  C   UNL     1       4.434   4.119  19.107  0.00  0.00    +0.000 A 
ATOM     15  C   UNL     1       3.879   5.257  19.699  0.00  0.00    +0.000 A 
ATOM     16  C   UNL     1       2.551   5.239  20.133  0.00  0.00    +0.000 A 
ATOM     17  C   UNL     1       1.770   4.110  19.916  0.00  0.00    +0.000 A 
ATOM     18  F   UNL     1       0.495   4.101  20.327  0.00  0.00    +0.000 F 
ATOM     19  C   UNL     1       2.290   2.995  19.273  0.00  0.00    +0.000 A 
ATOM     20  C   UNL     1       3.627   3.000  18.871  0.00  0.00    +0.000 A 
ENDBRANCH  13  14
ENDBRANCH   6  13
TORSDOF 5
ENDMDL
MODEL 4
REMARK VINA RESULT:      -7.3      3.563      5.457
REMARK  Name = 
REMARK  5 active torsions:
REMARK  status: ('A' for Active; 'I' for Inactive)
REMARK    1  A    between atoms: C_2  and  O_3
REMARK    2  A    between atoms: C_2  and  C_4
REMARK    3  A    between atoms: C_5  and  C_6
REMARK    4  A    between atoms: C_11  and  O_12
REMARK    5  A    between atoms: O_12  and  C_13
REMARK                            x       y       z     vdW  Elec       q    Type
REMARK                         _______ _______ _______ _____ _____    ______ ____
ROOT
ATOM      1  C   UNL     1       6.467   5.965  16.226  0.00  0.00    +0.000 A 
ATOM      2  C   UNL     1       7.300   5.481  15.206  0.00  0.00    +0.000 A 
ATOM      3  C   UNL     1       6.864   4.465  14.355  0.00  0.00    +0.000 A 
ATOM      4  C   UNL     1       5.590   3.924  14.513  0.00  0.00    +0.000 A 
ATOM      5  C   UNL     1       4.743   4.418  15.504  0.00  0.00    +0.000 A 
ATOM      6  C   UNL     1       5.161   5.453  16.348  0.00  0.00    +0.000 A 
ENDROOT
BRANCH   1   8
ATOM      7  C   UNL     1       7.632   6.686  18.348  0.00  0.00    +0.000 C 
ATOM      8  C   UNL     1       7.056   6.926  17.158  0.00  0.00    +0.000 C 
BRANCH   7  10
ATOM      9  O   UNL     1       8.061   4.395  18.538  0.00  0.00    +0.000 OA
ATOM     10  C   UNL     1       7.888   5.455  19.120  0.00  0.00    +0.000 C 
BRANCH  10  11
ATOM     11  O   UNL     1       7.912   5.549  20.455  0.00  0.00    +0.000 OA
ATOM     12  H   UNL     1       7.507   4.805  20.935  0.00  0.00    +0.000 HD
ENDBRANCH  10  11
ENDBRANCH   7  10
ENDBRANCH   1   8
BRANCH   6  13
ATOM     13  O   UNL     1       4.281   5.768  17.359  0.00  0.00    +0.000 OA
BRANCH  13  14
ATOM     14  C   UNL     1       3.649   4.780  18.081  0.00  0.00    +0.000 A 
ATOM     15  C   UNL     1       4.274   3.886  18.955  0.00  0.00    +0.000 A 
ATOM     16  C   UNL     1       3.524   2.889  19.586  0.00  0.00    +0.000 A 
ATOM     17  C   UNL     1       2.150   2.833  19.390  0.00  0.00    +0.000 A 
ATOM     18  F   UNL     1       1.435   1.880  20.003  0.00  0.00    +0.000 F 
ATOM     19  C   UNL     1       1.506   3.753  18.574  0.00  0.00    +0.000 A 
ATOM     20  C   UNL     1       2.259   4.727  17.916  0.00  0.00    +0.000 A 
ENDBRANCH  13  14
ENDBRANCH   6  13
TORSDOF 5
ENDMDL
MODEL 5
REMARK VINA RESULT:      -7.3      1.537      3.304
REMARK  Name = 
REMARK  5 active torsions:
REMARK  status: ('A' for Active; 'I' for Inactive)
REMARK    1  A    between atoms: C_2  and  O_3
REMARK    2  A    between atoms: C_2  and  C_4
REMARK    3  A    between atoms: C_5  and  C_6
REMARK    4  A    between atoms: C_11  and  O_12
REMARK    5  A    between atoms: O_12  and  C_13
REMARK                            x       y       z     vdW  Elec       q    Type
REMARK                         _______ _______ _______ _____ _____    ______ ____
ROOT
ATOM      1  C   UNL     1       2.673   4.352  18.292  0.00  0.00    +0.000 A 
ATOM      2  C   UNL     1       3.130   3.544  17.239  0.00  0.00    +0.000 A 
ATOM      3  C   UNL     1       4.318   3.847  16.575  0.00  0.00    +0.000 A 
ATOM      4  C   UNL     1       5.064   4.959  16.957  0.00  0.00    +0.000 A 
ATOM      5  C   UNL     1       4.636   5.752  18.021  0.00  0.00    +0.000 A 
ATOM      6  C   UNL     1       3.457   5.444  18.710  0.00  0.00    +0.000 A 
ENDROOT
BRANCH   1   8
ATOM      7  C   UNL     1       1.024   3.707  20.093  0.00  0.00    +0.000 C 
ATOM      8  C   UNL     1       1.350   4.044  18.834  0.00  0.00    +0.000 C 
BRANCH   7  10
ATOM      9  O   UNL     1       1.791   2.469  21.923  0.00  0.00    +0.000 OA
ATOM     10  C   UNL     1       1.807   3.539  21.333  0.00  0.00    +0.000 C 
BRANCH  10  11
ATOM     11  O   UNL     1       2.509   4.588  21.775  0.00  0.00    +0.000 OA
ATOM     12  H   UNL     1       2.441   5.396  21.235  0.00  0.00    +0.000 HD
ENDBRANCH  10  11
ENDBRANCH   7  10
ENDBRANCH   1   8
BRANCH   6  13
ATOM     13  O   UNL     1       3.082   6.369  19.658  0.00  0.00    +0.000 OA
BRANCH  13  14
ATOM     14  C   UNL     1       2.352   7.484  19.310  0.00  0.00    +0.000 A 
ATOM     15  C   UNL     1       2.265   8.031  18.027  0.00  0.00    +0.000 A 
ATOM     16  C   UNL     1       1.534   9.204  17.818  0.00  0.00    +0.000 A 
ATOM     17  C   UNL     1       0.846   9.785  18.876  0.00  0.00    +0.000 A 
ATOM     18  F   UNL     1       0.141  10.905  18.668  0.00  0.00    +0.000 F 
ATOM     19  C   UNL     1       0.873   9.219  20.143  0.00  0.00    +0.000 A 
ATOM     20  C   UNL     1       1.631   8.067  20.360  0.00  0.00    +0.000 A 
ENDBRANCH  13  14
ENDBRANCH   6  13
TORSDOF 5
ENDMDL
MODEL 6
REMARK VINA RESULT:      -7.2      3.220      5.674
REMARK  Name = 
REMARK  5 active torsions:
REMARK  status: ('A' for Active; 'I' for Inactive)
REMARK    1  A    between atoms: C_2  and  O_3
REMARK    2  A    between atoms: C_2  and  C_4
REMARK    3  A    between atoms: C_5  and  C_6
REMARK    4  A    between atoms: C_11  and  O_12
REMARK    5  A    between atoms: O_12  and  C_13
REMARK                            x       y       z     vdW  Elec       q    Type
REMARK                         _______ _______ _______ _____ _____    ______ ____
ROOT
ATOM      1  C   UNL     1       6.370   6.043  17.090  0.00  0.00    +0.000 A 
ATOM      2  C   UNL     1       6.993   7.288  16.911  0.00  0.00    +0.000 A 
ATOM      3  C   UNL     1       7.919   7.760  17.841  0.00  0.00    +0.000 A 
ATOM      4  C   UNL     1       8.235   6.991  18.959  0.00  0.00    +0.000 A 
ATOM      5  C   UNL     1       7.645   5.739  19.132  0.00  0.00    +0.000 A 
ATOM      6  C   UNL     1       6.732   5.246  18.193  0.00  0.00    +0.000 A 
ENDROOT
BRANCH   1   8
ATOM      7  C   UNL     1       5.424   5.088  14.952  0.00  0.00    +0.000 C 
ATOM      8  C   UNL     1       5.309   5.694  16.145  0.00  0.00    +0.000 C 
BRANCH   7  10
ATOM      9  O   UNL     1       7.590   5.234  14.082  0.00  0.00    +0.000 OA
ATOM     10  C   UNL     1       6.573   4.566  14.186  0.00  0.00    +0.000 C 
BRANCH  10  11
ATOM     11  O   UNL     1       6.447   3.362  13.616  0.00  0.00    +0.000 OA
ATOM     12  H   UNL     1       5.902   3.335  12.810  0.00  0.00    +0.000 HD
ENDBRANCH  10  11
ENDBRANCH   7  10
ENDBRANCH   1   8
BRANCH   6  13
ATOM     13  O   UNL     1       6.133   4.056  18.538  0.00  0.00    +0.000 OA
BRANCH  13  14
ATOM     14  C   UNL     1       4.782   3.992  18.797  0.00  0.00    +0.000 A 
ATOM     15  C   UNL     1       3.905   3.019  18.308  0.00  0.00    +0.000 A 
ATOM     16  C   UNL     1       2.541   3.101  18.600  0.00  0.00    +0.000 A 
ATOM     17  C   UNL     1       2.072   4.114  19.428  0.00  0.00    +0.000 A 
ATOM     18  F   UNL     1       0.765   4.183  19.711  0.00  0.00    +0.000 F 
ATOM     19  C   UNL     1       2.941   5.051  19.971  0.00  0.00    +0.000 A 
ATOM     20  C   UNL     1       4.298   4.991  19.652  0.00  0.00    +0.000 A 
ENDBRANCH  13  14
ENDBRANCH   6  13
TORSDOF 5
ENDMDL
MODEL 7
REMARK VINA RESULT:      -7.2      0.899      1.562
REMARK  Name = 
REMARK  5 active torsions:
REMARK  status: ('A' for Active; 'I' for Inactive)
REMARK    1  A    between atoms: C_2  and  O_3
REMARK    2  A    between atoms: C_2  and  C_4
REMARK    3  A    between atoms: C_5  and  C_6
REMARK    4  A    between atoms: C_11  and  O_12
REMARK    5  A    between atoms: O_12  and  C_13
REMARK                            x       y       z     vdW  Elec       q    Type
REMARK                         _______ _______ _______ _____ _____    ______ ____
ROOT
ATOM      1  C   UNL     1       3.428   4.656  17.672  0.00  0.00    +0.000 A 
ATOM      2  C   UNL     1       3.098   3.390  17.165  0.00  0.00    +0.000 A 
ATOM      3  C   UNL     1       2.206   2.562  17.845  0.00  0.00    +0.000 A 
ATOM      4  C   UNL     1       1.632   2.991  19.039  0.00  0.00    +0.000 A 
ATOM      5  C   UNL     1       1.929   4.259  19.538  0.00  0.00    +0.000 A 
ATOM      6  C   UNL     1       2.805   5.107  18.851  0.00  0.00    +0.000 A 
ENDROOT
BRANCH   1   8
ATOM      7  C   UNL     1       5.772   5.522  17.307  0.00  0.00    +0.000 C 
ATOM      8  C   UNL     1       4.478   5.395  16.971  0.00  0.00    +0.000 C 
BRANCH   7  10
ATOM      9  O   UNL     1       7.623   4.397  18.189  0.00  0.00    +0.000 OA
ATOM     10  C   UNL     1       6.587   5.000  18.421  0.00  0.00    +0.000 C 
BRANCH  10  11
ATOM     11  O   UNL     1       6.143   5.204  19.668  0.00  0.00    +0.000 OA
ATOM     12  H   UNL     1       6.674   5.818  20.206  0.00  0.00    +0.000 HD
ENDBRANCH  10  11
ENDBRANCH   7  10
ENDBRANCH   1   8
BRANCH   6  13
ATOM     13  O   UNL     1       3.108   6.279  19.506  0.00  0.00    +0.000 OA
BRANCH  13  14
ATOM     14  C   UNL     1       2.372   7.423  19.290  0.00  0.00    +0.000 A 
ATOM     15  C   UNL     1       2.241   8.086  18.066  0.00  0.00    +0.000 A 
ATOM     16  C   UNL     1       1.509   9.274  17.993  0.00  0.00    +0.000 A 
ATOM     17  C   UNL     1       0.862   9.756  19.124  0.00  0.00    +0.000 A 
ATOM     18  F   UNL     1       0.155  10.891  19.046  0.00  0.00    +0.000 F 
ATOM     19  C   UNL     1       0.932   9.075  20.332  0.00  0.00    +0.000 A 
ATOM     20  C   UNL     1       1.692   7.907  20.414  0.00  0.00    +0.000 A 
ENDBRANCH  13  14
ENDBRANCH   6  13
TORSDOF 5
ENDMDL
MODEL 8
REMARK VINA RESULT:      -7.2      3.855      6.243
REMARK  Name = 
REMARK  5 active torsions:
REMARK  status: ('A' for Active; 'I' for Inactive)
REMARK    1  A    between atoms: C_2  and  O_3
REMARK    2  A    between atoms: C_2  and  C_4
REMARK    3  A    between atoms: C_5  and  C_6
REMARK    4  A    between atoms: C_11  and  O_12
REMARK    5  A    between atoms: O_12  and  C_13
REMARK                            x       y       z     vdW  Elec       q    Type
REMARK                         _______ _______ _______ _____ _____    ______ ____
ROOT
ATOM      1  C   UNL     1       3.227   4.474  17.480  0.00  0.00    +0.000 A 
ATOM      2  C   UNL     1       2.215   5.311  17.975  0.00  0.00    +0.000 A 
ATOM      3  C   UNL     1       2.428   6.683  18.106  0.00  0.00    +0.000 A 
ATOM      4  C   UNL     1       3.654   7.234  17.740  0.00  0.00    +0.000 A 
ATOM      5  C   UNL     1       4.657   6.417  17.219  0.00  0.00    +0.000 A 
ATOM      6  C   UNL     1       4.446   5.042  17.062  0.00  0.00    +0.000 A 
ENDROOT
BRANCH   1   8
ATOM      7  C   UNL     1       3.244   2.161  18.495  0.00  0.00    +0.000 C 
ATOM      8  C   UNL     1       2.968   3.034  17.512  0.00  0.00    +0.000 C 
BRANCH   7  10
ATOM      9  O   UNL     1       3.155   2.505  20.807  0.00  0.00    +0.000 OA
ATOM     10  C   UNL     1       3.858   2.298  19.830  0.00  0.00    +0.000 C 
BRANCH  10  11
ATOM     11  O   UNL     1       5.190   2.196  19.918  0.00  0.00    +0.000 OA
ATOM     12  H   UNL     1       5.691   2.956  19.573  0.00  0.00    +0.000 HD
ENDBRANCH  10  11
ENDBRANCH   7  10
ENDBRANCH   1   8
BRANCH   6  13
ATOM     13  O   UNL     1       5.550   4.330  16.652  0.00  0.00    +0.000 OA
BRANCH  13  14
ATOM     14  C   UNL     1       5.922   4.301  15.326  0.00  0.00    +0.000 A 
ATOM     15  C   UNL     1       5.208   3.684  14.295  0.00  0.00    +0.000 A 
ATOM     16  C   UNL     1       5.726   3.677  12.997  0.00  0.00    +0.000 A 
ATOM     17  C   UNL     1       6.917   4.340  12.725  0.00  0.00    +0.000 A 
ATOM     18  F   UNL     1       7.405   4.337  11.478  0.00  0.00    +0.000 F 
ATOM     19  C   UNL     1       7.605   5.010  13.728  0.00  0.00    +0.000 A 
ATOM     20  C   UNL     1       7.107   4.987  15.032  0.00  0.00    +0.000 A 
ENDBRANCH  13  14
ENDBRANCH   6  13
TORSDOF 5
ENDMDL
MODEL 9
REMARK VINA RESULT:      -7.2      2.700      4.647
REMARK  Name = 
REMARK  5 active torsions:
REMARK  status: ('A' for Active; 'I' for Inactive)
REMARK    1  A    between atoms: C_2  and  O_3
REMARK    2  A    between atoms: C_2  and  C_4
REMARK    3  A    between atoms: C_5  and  C_6
REMARK    4  A    between atoms: C_11  and  O_12
REMARK    5  A    between atoms: O_12  and  C_13
REMARK                            x       y       z     vdW  Elec       q    Type
REMARK                         _______ _______ _______ _____ _____    ______ ____
ROOT
ATOM      1  C   UNL     1       2.151   4.023  19.221  0.00  0.00    +0.000 A 
ATOM      2  C   UNL     1       1.215   3.988  20.266  0.00  0.00    +0.000 A 
ATOM      3  C   UNL     1       1.449   3.219  21.405  0.00  0.00    +0.000 A 
ATOM      4  C   UNL     1       2.622   2.476  21.514  0.00  0.00    +0.000 A 
ATOM      5  C   UNL     1       3.573   2.526  20.495  0.00  0.00    +0.000 A 
ATOM      6  C   UNL     1       3.359   3.313  19.358  0.00  0.00    +0.000 A 
ENDROOT
BRANCH   1   8
ATOM      7  C   UNL     1       2.030   6.009  17.667  0.00  0.00    +0.000 C 
ATOM      8  C   UNL     1       1.759   4.739  18.007  0.00  0.00    +0.000 C 
BRANCH   7  10
ATOM      9  O   UNL     1       3.753   7.588  17.772  0.00  0.00    +0.000 OA
ATOM     10  C   UNL     1       2.780   7.098  18.324  0.00  0.00    +0.000 C 
BRANCH  10  11
ATOM     11  O   UNL     1       2.360   7.507  19.527  0.00  0.00    +0.000 OA
ATOM     12  H   UNL     1       2.800   8.301  19.877  0.00  0.00    +0.000 HD
ENDBRANCH  10  11
ENDBRANCH   7  10
ENDBRANCH   1   8
BRANCH   6  13
ATOM     13  O   UNL     1       4.314   3.183  18.375  0.00  0.00    +0.000 OA
BRANCH  13  14
ATOM     14  C   UNL     1       5.227   4.186  18.136  0.00  0.00    +0.000 A 
ATOM     15  C   UNL     1       5.943   4.884  19.114  0.00  0.00    +0.000 A 
ATOM     16  C   UNL     1       6.799   5.923  18.740  0.00  0.00    +0.000 A 
ATOM     17  C   UNL     1       6.983   6.216  17.394  0.00  0.00    +0.000 A 
ATOM     18  F   UNL     1       7.810   7.208  17.042  0.00  0.00    +0.000 F 
ATOM     19  C   UNL     1       6.325   5.491  16.410  0.00  0.00    +0.000 A 
ATOM     20  C   UNL     1       5.443   4.476  16.783  0.00  0.00    +0.000 A 
ENDBRANCH  13  14
ENDBRANCH   6  13
TORSDOF 5
ENDMDL
