MODEL 1
REMARK VINA RESULT:      -8.5      0.000      0.000
REMARK  Name = 
REMARK  10 active torsions:
REMARK  status: ('A' for Active; 'I' for Inactive)
REMARK    1  A    between atoms: C_1  and  C_2
REMARK    2  A    between atoms: C_2  and  C_3
REMARK    3  A    between atoms: C_3  and  S_4
REMARK    4  A    between atoms: S_4  and  N_7
REMARK    5  A    between atoms: N_7  and  C_8
REMARK    6  A    between atoms: C_11  and  N_12
REMARK    7  A    between atoms: N_12  and  C_13
REMARK    8  A    between atoms: C_23  and  N_24
REMARK    9  A    between atoms: C_30  and  O_31
REMARK   10  A    between atoms: O_31  and  C_32
REMARK                            x       y       z     vdW  Elec       q    Type
REMARK                         _______ _______ _______ _____ _____    ______ ____
ROOT
ATOM      1  N   UNL     1       2.528   6.575  18.918  0.00  0.00    +0.000 N 
ATOM      2  H   UNL     1       1.931   6.054  18.262  0.00  0.00    +0.000 HD
ENDROOT
BRANCH   1   3
ATOM      3  C   UNL     1       3.784   5.871  19.061  0.00  0.00    +0.000 A 
ATOM      4  C   UNL     1       4.806   5.766  18.033  0.00  0.00    +0.000 A 
ATOM      5  C   UNL     1       4.775   6.225  16.694  0.00  0.00    +0.000 A 
ATOM      6  C   UNL     1       5.784   5.859  15.773  0.00  0.00    +0.000 A 
ATOM      7  C   UNL     1       6.900   5.139  16.190  0.00  0.00    +0.000 A 
ATOM      8  C   UNL     1       6.955   4.685  17.494  0.00  0.00    +0.000 A 
ATOM      9  C   UNL     1       5.879   4.887  18.325  0.00  0.00    +0.000 A 
ATOM     10  N   UNL     1       5.783   3.990  19.295  0.00  0.00    +0.000 NA
ATOM     11  C   UNL     1       4.540   3.760  19.651  0.00  0.00    +0.000 A 
ATOM     12  C   UNL     1       3.829   2.819  18.907  0.00  0.00    +0.000 A 
ATOM     13  C   UNL     1       2.435   2.932  18.883  0.00  0.00    +0.000 A 
ATOM     14  C   UNL     1       1.826   3.516  19.994  0.00  0.00    +0.000 A 
ATOM     15  C   UNL     1       2.598   4.424  20.703  0.00  0.00    +0.000 A 
ATOM     16  C   UNL     1       3.763   4.811  20.047  0.00  0.00    +0.000 A 
BRANCH  13  17
ATOM     17  N   UNL     1       1.867   3.305  17.557  0.00  0.00    +0.000 N 
ATOM     18  O   UNL     1       2.395   2.832  16.543  0.00  0.00    +0.000 OA
ATOM     19  O   UNL     1       0.966   4.162  17.553  0.00  0.00    +0.000 OA
ENDBRANCH  13  17
ENDBRANCH   1   3
BRANCH   1  23
ATOM     20  C   UNL     1       1.100  10.572  18.744  0.00  0.00    +0.000 A 
ATOM     21  C   UNL     1       1.878  10.068  17.699  0.00  0.00    +0.000 A 
ATOM     22  C   UNL     1       2.382   8.752  17.746  0.00  0.00    +0.000 A 
ATOM     23  C   UNL     1       2.089   7.918  18.822  0.00  0.00    +0.000 A 
ATOM     24  C   UNL     1       1.408   8.497  19.932  0.00  0.00    +0.000 A 
ATOM     25  C   UNL     1       0.901   9.802  19.887  0.00  0.00    +0.000 A 
BRANCH  20  26
ATOM     26  N   UNL     1       0.481  11.869  18.633  0.00  0.00    +0.000 N 
ATOM     27  H   UNL     1      -0.356  11.920  19.218  0.00  0.00    +0.000 HD
BRANCH  26  28
ATOM     28  S   UNL     1       1.484  13.204  18.993  0.00  0.00    +0.000 S 
ATOM     29  O   UNL     1       2.317  13.498  17.861  0.00  0.00    +0.000 OA
ATOM     30  O   UNL     1       2.054  12.937  20.308  0.00  0.00    +0.000 OA
BRANCH  28  31
ATOM     31  C   UNL     1       0.246  14.492  19.178  0.00  0.00    +0.000 C 
BRANCH  31  33
ATOM     32  C   UNL     1      -0.376  16.843  18.516  0.00  0.00    +0.000 C 
ATOM     33  C   UNL     1       0.762  15.850  18.711  0.00  0.00    +0.000 C 
ENDBRANCH  31  33
ENDBRANCH  28  31
ENDBRANCH  26  28
ENDBRANCH  20  26
BRANCH  24  34
ATOM     34  O   UNL     1       1.036   7.731  21.015  0.00  0.00    +0.000 OA
ATOM     35  C   UNL     1      -0.053   8.281  21.757  0.00  0.00    +0.000 C 
ENDBRANCH  24  34
ENDBRANCH   1  23
TORSDOF 8
ENDMDL
MODEL 2
REMARK VINA RESULT:      -8.4      1.949      2.177
REMARK  Name = 
REMARK  10 active torsions:
REMARK  status: ('A' for Active; 'I' for Inactive)
REMARK    1  A    between atoms: C_1  and  C_2
REMARK    2  A    between atoms: C_2  and  C_3
REMARK    3  A    between atoms: C_3  and  S_4
REMARK    4  A    between atoms: S_4  and  N_7
REMARK    5  A    between atoms: N_7  and  C_8
REMARK    6  A    between atoms: C_11  and  N_12
REMARK    7  A    between atoms: N_12  and  C_13
REMARK    8  A    between atoms: C_23  and  N_24
REMARK    9  A    between atoms: C_30  and  O_31
REMARK   10  A    between atoms: O_31  and  C_32
REMARK                            x       y       z     vdW  Elec       q    Type
REMARK                         _______ _______ _______ _____ _____    ______ ____
ROOT
ATOM      1  N   UNL     1       2.500   6.480  19.065  0.00  0.00    +0.000 N 
ATOM      2  H   UNL     1       1.856   5.940  18.472  0.00  0.00    +0.000 HD
ENDROOT
BRANCH   1   3
ATOM      3  C   UNL     1       3.750   5.761  19.167  0.00  0.00    +0.000 A 
ATOM      4  C   UNL     1       4.766   5.697  18.128  0.00  0.00    +0.000 A 
ATOM      5  C   UNL     1       4.731   6.220  16.814  0.00  0.00    +0.000 A 
ATOM      6  C   UNL     1       5.733   5.891  15.870  0.00  0.00    +0.000 A 
ATOM      7  C   UNL     1       6.844   5.142  16.245  0.00  0.00    +0.000 A 
ATOM      8  C   UNL     1       6.903   4.626  17.526  0.00  0.00    +0.000 A 
ATOM      9  C   UNL     1       5.833   4.797  18.372  0.00  0.00    +0.000 A 
ATOM     10  N   UNL     1       5.736   3.854  19.298  0.00  0.00    +0.000 NA
ATOM     11  C   UNL     1       4.492   3.618  19.650  0.00  0.00    +0.000 A 
ATOM     12  C   UNL     1       3.769   2.719  18.866  0.00  0.00    +0.000 A 
ATOM     13  C   UNL     1       2.376   2.844  18.856  0.00  0.00    +0.000 A 
ATOM     14  C   UNL     1       1.778   3.379  19.997  0.00  0.00    +0.000 A 
ATOM     15  C   UNL     1       2.562   4.245  20.745  0.00  0.00    +0.000 A 
ATOM     16  C   UNL     1       3.727   4.654  20.101  0.00  0.00    +0.000 A 
BRANCH  13  17
ATOM     17  N   UNL     1       1.804   3.286  17.552  0.00  0.00    +0.000 N 
ATOM     18  O   UNL     1       2.378   2.934  16.515  0.00  0.00    +0.000 OA
ATOM     19  O   UNL     1       0.846   4.077  17.599  0.00  0.00    +0.000 OA
ENDBRANCH  13  17
ENDBRANCH   1   3
BRANCH   1  23
ATOM     20  C   UNL     1       1.128  10.491  18.782  0.00  0.00    +0.000 A 
ATOM     21  C   UNL     1       1.836   9.924  17.719  0.00  0.00    +0.000 A 
ATOM     22  C   UNL     1       2.321   8.602  17.800  0.00  0.00    +0.000 A 
ATOM     23  C   UNL     1       2.077   7.825  18.930  0.00  0.00    +0.000 A 
ATOM     24  C   UNL     1       1.471   8.469  20.048  0.00  0.00    +0.000 A 
ATOM     25  C   UNL     1       0.984   9.780  19.970  0.00  0.00    +0.000 A 
BRANCH  20  26
ATOM     26  N   UNL     1       0.525  11.793  18.645  0.00  0.00    +0.000 N 
ATOM     27  H   UNL     1       0.680  12.164  17.705  0.00  0.00    +0.000 HD
BRANCH  26  28
ATOM     28  S   UNL     1      -1.142  11.881  19.002  0.00  0.00    +0.000 S 
ATOM     29  O   UNL     1      -1.663  13.144  18.559  0.00  0.00    +0.000 OA
ATOM     30  O   UNL     1      -1.283  11.444  20.385  0.00  0.00    +0.000 OA
BRANCH  28  31
ATOM     31  C   UNL     1      -1.765  10.572  17.941  0.00  0.00    +0.000 C 
BRANCH  31  33
ATOM     32  C   UNL     1      -2.718  10.098  15.656  0.00  0.00    +0.000 C 
ATOM     33  C   UNL     1      -2.580  11.122  16.774  0.00  0.00    +0.000 C 
ENDBRANCH  31  33
ENDBRANCH  28  31
ENDBRANCH  26  28
ENDBRANCH  20  26
BRANCH  24  34
ATOM     34  O   UNL     1       1.151   7.761  21.186  0.00  0.00    +0.000 OA
ATOM     35  C   UNL     1       0.006   8.270  21.872  0.00  0.00    +0.000 C 
ENDBRANCH  24  34
ENDBRANCH   1  23
TORSDOF 8
ENDMDL
MODEL 3
REMARK VINA RESULT:      -8.4      1.123      1.352
REMARK  Name = 
REMARK  10 active torsions:
REMARK  status: ('A' for Active; 'I' for Inactive)
REMARK    1  A    between atoms: C_1  and  C_2
REMARK    2  A    between atoms: C_2  and  C_3
REMARK    3  A    between atoms: C_3  and  S_4
REMARK    4  A    between atoms: S_4  and  N_7
REMARK    5  A    between atoms: N_7  and  C_8
REMARK    6  A    between atoms: C_11  and  N_12
REMARK    7  A    between atoms: N_12  and  C_13
REMARK    8  A    between atoms: C_23  and  N_24
REMARK    9  A    between atoms: C_30  and  O_31
REMARK   10  A    between atoms: O_31  and  C_32
REMARK                            x       y       z     vdW  Elec       q    Type
REMARK                         _______ _______ _______ _____ _____    ______ ____
ROOT
ATOM      1  N   UNL     1       2.512   6.633  18.888  0.00  0.00    +0.000 N 
ATOM      2  H   UNL     1       1.954   6.165  18.162  0.00  0.00    +0.000 HD
ENDROOT
BRANCH   1   3
ATOM      3  C   UNL     1       3.754   5.911  19.057  0.00  0.00    +0.000 A 
ATOM      4  C   UNL     1       4.795   5.790  18.048  0.00  0.00    +0.000 A 
ATOM      5  C   UNL     1       4.796   6.249  16.709  0.00  0.00    +0.000 A 
ATOM      6  C   UNL     1       5.818   5.868  15.808  0.00  0.00    +0.000 A 
ATOM      7  C   UNL     1       6.915   5.131  16.246  0.00  0.00    +0.000 A 
ATOM      8  C   UNL     1       6.938   4.678  17.552  0.00  0.00    +0.000 A 
ATOM      9  C   UNL     1       5.849   4.897  18.361  0.00  0.00    +0.000 A 
ATOM     10  N   UNL     1       5.721   4.001  19.330  0.00  0.00    +0.000 NA
ATOM     11  C   UNL     1       4.468   3.790  19.662  0.00  0.00    +0.000 A 
ATOM     12  C   UNL     1       3.758   2.858  18.905  0.00  0.00    +0.000 A 
ATOM     13  C   UNL     1       2.366   2.992  18.854  0.00  0.00    +0.000 A 
ATOM     14  C   UNL     1       1.745   3.585  19.953  0.00  0.00    +0.000 A 
ATOM     15  C   UNL     1       2.516   4.482  20.676  0.00  0.00    +0.000 A 
ATOM     16  C   UNL     1       3.699   4.852  20.043  0.00  0.00    +0.000 A 
BRANCH  13  17
ATOM     17  N   UNL     1       1.830   3.372  17.517  0.00  0.00    +0.000 N 
ATOM     18  O   UNL     1       0.915   4.204  17.471  0.00  0.00    +0.000 OA
ATOM     19  O   UNL     1       2.262   2.741  16.537  0.00  0.00    +0.000 OA
ENDBRANCH  13  17
ENDBRANCH   1   3
BRANCH   1  23
ATOM     20  C   UNL     1       1.117  10.645  18.924  0.00  0.00    +0.000 A 
ATOM     21  C   UNL     1       1.890  10.189  17.853  0.00  0.00    +0.000 A 
ATOM     22  C   UNL     1       2.383   8.869  17.831  0.00  0.00    +0.000 A 
ATOM     23  C   UNL     1       2.084   7.983  18.863  0.00  0.00    +0.000 A 
ATOM     24  C   UNL     1       1.409   8.509  20.002  0.00  0.00    +0.000 A 
ATOM     25  C   UNL     1       0.914   9.820  20.026  0.00  0.00    +0.000 A 
BRANCH  20  26
ATOM     26  N   UNL     1       0.509  11.952  18.881  0.00  0.00    +0.000 N 
ATOM     27  H   UNL     1      -0.404  11.939  19.341  0.00  0.00    +0.000 HD
BRANCH  26  28
ATOM     28  S   UNL     1       1.437  13.225  19.540  0.00  0.00    +0.000 S 
ATOM     29  O   UNL     1       1.995  12.813  20.797  0.00  0.00    +0.000 OA
ATOM     30  O   UNL     1       0.615  14.423  19.430  0.00  0.00    +0.000 OA
BRANCH  28  31
ATOM     31  C   UNL     1       2.743  13.335  18.312  0.00  0.00    +0.000 C 
BRANCH  31  33
ATOM     32  C   UNL     1       3.470  15.611  17.508  0.00  0.00    +0.000 C 
ATOM     33  C   UNL     1       3.661  14.529  18.561  0.00  0.00    +0.000 C 
ENDBRANCH  31  33
ENDBRANCH  28  31
ENDBRANCH  26  28
ENDBRANCH  20  26
BRANCH  24  34
ATOM     34  O   UNL     1       1.032   7.691  21.045  0.00  0.00    +0.000 OA
ATOM     35  C   UNL     1      -0.037   8.222  21.829  0.00  0.00    +0.000 C 
ENDBRANCH  24  34
ENDBRANCH   1  23
TORSDOF 8
ENDMDL
MODEL 4
REMARK VINA RESULT:      -8.4      1.592      1.945
REMARK  Name = 
REMARK  10 active torsions:
REMARK  status: ('A' for Active; 'I' for Inactive)
REMARK    1  A    between atoms: C_1  and  C_2
REMARK    2  A    between atoms: C_2  and  C_3
REMARK    3  A    between atoms: C_3  and  S_4
REMARK    4  A    between atoms: S_4  and  N_7
REMARK    5  A    between atoms: N_7  and  C_8
REMARK    6  A    between atoms: C_11  and  N_12
REMARK    7  A    between atoms: N_12  and  C_13
REMARK    8  A    between atoms: C_23  and  N_24
REMARK    9  A    between atoms: C_30  and  O_31
REMARK   10  A    between atoms: O_31  and  C_32
REMARK                            x       y       z     vdW  Elec       q    Type
REMARK                         _______ _______ _______ _____ _____    ______ ____
ROOT
ATOM      1  N   UNL     1       2.561   6.576  18.862  0.00  0.00    +0.000 N 
ATOM      2  H   UNL     1       2.001   6.122  18.129  0.00  0.00    +0.000 HD
ENDROOT
BRANCH   1   3
ATOM      3  C   UNL     1       3.805   5.854  19.012  0.00  0.00    +0.000 A 
ATOM      4  C   UNL     1       4.825   5.723  17.984  0.00  0.00    +0.000 A 
ATOM      5  C   UNL     1       4.801   6.172  16.642  0.00  0.00    +0.000 A 
ATOM      6  C   UNL     1       5.804   5.781  15.723  0.00  0.00    +0.000 A 
ATOM      7  C   UNL     1       6.908   5.047  16.146  0.00  0.00    +0.000 A 
ATOM      8  C   UNL     1       6.957   4.603  17.454  0.00  0.00    +0.000 A 
ATOM      9  C   UNL     1       5.884   4.830  18.283  0.00  0.00    +0.000 A 
ATOM     10  N   UNL     1       5.774   3.942  19.261  0.00  0.00    +0.000 NA
ATOM     11  C   UNL     1       4.527   3.736  19.619  0.00  0.00    +0.000 A 
ATOM     12  C   UNL     1       3.801   2.800  18.883  0.00  0.00    +0.000 A 
ATOM     13  C   UNL     1       2.409   2.935  18.859  0.00  0.00    +0.000 A 
ATOM     14  C   UNL     1       1.810   3.538  19.965  0.00  0.00    +0.000 A 
ATOM     15  C   UNL     1       2.597   4.439  20.666  0.00  0.00    +0.000 A 
ATOM     16  C   UNL     1       3.768   4.802  20.007  0.00  0.00    +0.000 A 
BRANCH  13  17
ATOM     17  N   UNL     1       1.846   3.307  17.529  0.00  0.00    +0.000 N 
ATOM     18  O   UNL     1       2.372   2.824  16.519  0.00  0.00    +0.000 OA
ATOM     19  O   UNL     1       0.952   4.171  17.519  0.00  0.00    +0.000 OA
ENDBRANCH  13  17
ENDBRANCH   1   3
BRANCH   1  23
ATOM     20  C   UNL     1       1.166  10.587  18.990  0.00  0.00    +0.000 A 
ATOM     21  C   UNL     1       1.868  10.132  17.871  0.00  0.00    +0.000 A 
ATOM     22  C   UNL     1       2.361   8.812  17.816  0.00  0.00    +0.000 A 
ATOM     23  C   UNL     1       2.130   7.925  18.865  0.00  0.00    +0.000 A 
ATOM     24  C   UNL     1       1.531   8.451  20.047  0.00  0.00    +0.000 A 
ATOM     25  C   UNL     1       1.036   9.761  20.103  0.00  0.00    +0.000 A 
BRANCH  20  26
ATOM     26  N   UNL     1       0.555  11.893  18.988  0.00  0.00    +0.000 N 
ATOM     27  H   UNL     1       0.990  12.492  18.283  0.00  0.00    +0.000 HD
BRANCH  26  28
ATOM     28  S   UNL     1      -1.137  11.921  18.764  0.00  0.00    +0.000 S 
ATOM     29  O   UNL     1      -1.678  10.615  19.018  0.00  0.00    +0.000 OA
ATOM     30  O   UNL     1      -1.366  12.605  17.498  0.00  0.00    +0.000 OA
BRANCH  28  31
ATOM     31  C   UNL     1      -1.615  13.036  20.089  0.00  0.00    +0.000 C 
BRANCH  31  33
ATOM     32  C   UNL     1      -0.852  12.169  22.330  0.00  0.00    +0.000 C 
ATOM     33  C   UNL     1      -2.015  12.280  21.353  0.00  0.00    +0.000 C 
ENDBRANCH  31  33
ENDBRANCH  28  31
ENDBRANCH  26  28
ENDBRANCH  20  26
BRANCH  24  34
ATOM     34  O   UNL     1       1.224   7.632  21.111  0.00  0.00    +0.000 OA
ATOM     35  C   UNL     1       0.081   8.063  21.852  0.00  0.00    +0.000 C 
ENDBRANCH  24  34
ENDBRANCH   1  23
TORSDOF 8
ENDMDL
MODEL 5
REMARK VINA RESULT:      -8.2      0.873      1.054
REMARK  Name = 
REMARK  10 active torsions:
REMARK  status: ('A' for Active; 'I' for Inactive)
REMARK    1  A    between atoms: C_1  and  C_2
REMARK    2  A    between atoms: C_2  and  C_3
REMARK    3  A    between atoms: C_3  and  S_4
REMARK    4  A    between atoms: S_4  and  N_7
REMARK    5  A    between atoms: N_7  and  C_8
REMARK    6  A    between atoms: C_11  and  N_12
REMARK    7  A    between atoms: N_12  and  C_13
REMARK    8  A    between atoms: C_23  and  N_24
REMARK    9  A    between atoms: C_30  and  O_31
REMARK   10  A    between atoms: O_31  and  C_32
REMARK                            x       y       z     vdW  Elec       q    Type
REMARK                         _______ _______ _______ _____ _____    ______ ____
ROOT
ATOM      1  N   UNL     1       2.534   6.692  18.765  0.00  0.00    +0.000 N 
ATOM      2  H   UNL     1       2.019   6.277  17.978  0.00  0.00    +0.000 HD
ENDROOT
BRANCH   1   3
ATOM      3  C   UNL     1       3.775   5.970  18.940  0.00  0.00    +0.000 A 
ATOM      4  C   UNL     1       4.800   5.810  17.921  0.00  0.00    +0.000 A 
ATOM      5  C   UNL     1       4.785   6.224  16.568  0.00  0.00    +0.000 A 
ATOM      6  C   UNL     1       5.791   5.807  15.665  0.00  0.00    +0.000 A 
ATOM      7  C   UNL     1       6.891   5.081  16.112  0.00  0.00    +0.000 A 
ATOM      8  C   UNL     1       6.931   4.671  17.432  0.00  0.00    +0.000 A 
ATOM      9  C   UNL     1       5.855   4.922  18.249  0.00  0.00    +0.000 A 
ATOM     10  N   UNL     1       5.737   4.060  19.248  0.00  0.00    +0.000 NA
ATOM     11  C   UNL     1       4.488   3.866  19.605  0.00  0.00    +0.000 A 
ATOM     12  C   UNL     1       3.763   2.914  18.890  0.00  0.00    +0.000 A 
ATOM     13  C   UNL     1       2.371   3.053  18.854  0.00  0.00    +0.000 A 
ATOM     14  C   UNL     1       1.768   3.686  19.942  0.00  0.00    +0.000 A 
ATOM     15  C   UNL     1       2.554   4.602  20.624  0.00  0.00    +0.000 A 
ATOM     16  C   UNL     1       3.730   4.945  19.961  0.00  0.00    +0.000 A 
BRANCH  13  17
ATOM     17  N   UNL     1       1.817   3.392  17.513  0.00  0.00    +0.000 N 
ATOM     18  O   UNL     1       2.324   2.854  16.521  0.00  0.00    +0.000 OA
ATOM     19  O   UNL     1       0.951   4.283  17.472  0.00  0.00    +0.000 OA
ENDBRANCH  13  17
ENDBRANCH   1   3
BRANCH   1  23
ATOM     20  C   UNL     1       1.099  10.680  19.048  0.00  0.00    +0.000 A 
ATOM     21  C   UNL     1       1.846  10.290  17.934  0.00  0.00    +0.000 A 
ATOM     22  C   UNL     1       2.352   8.978  17.829  0.00  0.00    +0.000 A 
ATOM     23  C   UNL     1       2.092   8.036  18.822  0.00  0.00    +0.000 A 
ATOM     24  C   UNL     1       1.444   8.495  20.006  0.00  0.00    +0.000 A 
ATOM     25  C   UNL     1       0.936   9.797  20.111  0.00  0.00    +0.000 A 
BRANCH  20  26
ATOM     26  N   UNL     1       0.477  11.980  19.091  0.00  0.00    +0.000 N 
ATOM     27  H   UNL     1      -0.508  11.916  18.823  0.00  0.00    +0.000 HD
BRANCH  26  28
ATOM     28  S   UNL     1       0.588  12.809  20.579  0.00  0.00    +0.000 S 
ATOM     29  O   UNL     1       1.908  12.648  21.122  0.00  0.00    +0.000 OA
ATOM     30  O   UNL     1      -0.597  12.435  21.340  0.00  0.00    +0.000 OA
BRANCH  28  31
ATOM     31  C   UNL     1       0.374  14.502  20.017  0.00  0.00    +0.000 C 
BRANCH  31  33
ATOM     32  C   UNL     1       2.426  15.301  18.790  0.00  0.00    +0.000 C 
ATOM     33  C   UNL     1       1.018  14.736  18.654  0.00  0.00    +0.000 C 
ENDBRANCH  31  33
ENDBRANCH  28  31
ENDBRANCH  26  28
ENDBRANCH  20  26
BRANCH  24  34
ATOM     34  O   UNL     1       1.106   7.620  21.014  0.00  0.00    +0.000 OA
ATOM     35  C   UNL     1       0.019   8.073  21.823  0.00  0.00    +0.000 C 
ENDBRANCH  24  34
ENDBRANCH   1  23
TORSDOF 8
ENDMDL
MODEL 6
REMARK VINA RESULT:      -8.2      1.032      1.535
REMARK  Name = 
REMARK  10 active torsions:
REMARK  status: ('A' for Active; 'I' for Inactive)
REMARK    1  A    between atoms: C_1  and  C_2
REMARK    2  A    between atoms: C_2  and  C_3
REMARK    3  A    between atoms: C_3  and  S_4
REMARK    4  A    between atoms: S_4  and  N_7
REMARK    5  A    between atoms: N_7  and  C_8
REMARK    6  A    between atoms: C_11  and  N_12
REMARK    7  A    between atoms: N_12  and  C_13
REMARK    8  A    between atoms: C_23  and  N_24
REMARK    9  A    between atoms: C_30  and  O_31
REMARK   10  A    between atoms: O_31  and  C_32
REMARK                            x       y       z     vdW  Elec       q    Type
REMARK                         _______ _______ _______ _____ _____    ______ ____
ROOT
ATOM      1  N   UNL     1       2.485   6.758  18.843  0.00  0.00    +0.000 N 
ATOM      2  H   UNL     1       1.959   6.316  18.077  0.00  0.00    +0.000 HD
ENDROOT
BRANCH   1   3
ATOM      3  C   UNL     1       3.734   6.049  19.017  0.00  0.00    +0.000 A 
ATOM      4  C   UNL     1       4.774   5.928  18.009  0.00  0.00    +0.000 A 
ATOM      5  C   UNL     1       4.771   6.373  16.666  0.00  0.00    +0.000 A 
ATOM      6  C   UNL     1       5.796   5.992  15.768  0.00  0.00    +0.000 A 
ATOM      7  C   UNL     1       6.899   5.271  16.213  0.00  0.00    +0.000 A 
ATOM      8  C   UNL     1       6.928   4.831  17.522  0.00  0.00    +0.000 A 
ATOM      9  C   UNL     1       5.837   5.047  18.330  0.00  0.00    +0.000 A 
ATOM     10  N   UNL     1       5.719   4.160  19.308  0.00  0.00    +0.000 NA
ATOM     11  C   UNL     1       4.467   3.940  19.642  0.00  0.00    +0.000 A 
ATOM     12  C   UNL     1       3.766   2.995  18.895  0.00  0.00    +0.000 A 
ATOM     13  C   UNL     1       2.373   3.115  18.844  0.00  0.00    +0.000 A 
ATOM     14  C   UNL     1       1.746   3.713  19.937  0.00  0.00    +0.000 A 
ATOM     15  C   UNL     1       2.509   4.624  20.652  0.00  0.00    +0.000 A 
ATOM     16  C   UNL     1       3.689   4.999  20.014  0.00  0.00    +0.000 A 
BRANCH  13  17
ATOM     17  N   UNL     1       1.832   3.477  17.504  0.00  0.00    +0.000 N 
ATOM     18  O   UNL     1       0.952   4.346  17.446  0.00  0.00    +0.000 OA
ATOM     19  O   UNL     1       2.222   2.798  16.538  0.00  0.00    +0.000 OA
ENDBRANCH  13  17
ENDBRANCH   1   3
BRANCH   1  23
ATOM     20  C   UNL     1       1.020  10.741  19.028  0.00  0.00    +0.000 A 
ATOM     21  C   UNL     1       1.805  10.340  17.943  0.00  0.00    +0.000 A 
ATOM     22  C   UNL     1       2.321   9.030  17.872  0.00  0.00    +0.000 A 
ATOM     23  C   UNL     1       2.033   8.099  18.868  0.00  0.00    +0.000 A 
ATOM     24  C   UNL     1       1.346   8.570  20.024  0.00  0.00    +0.000 A 
ATOM     25  C   UNL     1       0.828   9.870  20.096  0.00  0.00    +0.000 A 
BRANCH  20  26
ATOM     26  N   UNL     1       0.390  12.037  19.033  0.00  0.00    +0.000 N 
ATOM     27  H   UNL     1      -0.582  11.964  19.342  0.00  0.00    +0.000 HD
BRANCH  26  28
ATOM     28  S   UNL     1       1.172  13.239  19.961  0.00  0.00    +0.000 S 
ATOM     29  O   UNL     1       1.650  14.280  19.095  0.00  0.00    +0.000 OA
ATOM     30  O   UNL     1       2.068  12.532  20.866  0.00  0.00    +0.000 OA
BRANCH  28  31
ATOM     31  C   UNL     1      -0.216  13.852  20.923  0.00  0.00    +0.000 C 
BRANCH  31  33
ATOM     32  C   UNL     1      -1.002  12.164  22.623  0.00  0.00    +0.000 C 
ATOM     33  C   UNL     1      -1.225  12.749  21.235  0.00  0.00    +0.000 C 
ENDBRANCH  31  33
ENDBRANCH  28  31
ENDBRANCH  26  28
ENDBRANCH  20  26
BRANCH  24  34
ATOM     34  O   UNL     1       0.980   7.706  21.033  0.00  0.00    +0.000 OA
ATOM     35  C   UNL     1      -0.140   8.159  21.794  0.00  0.00    +0.000 C 
ENDBRANCH  24  34
ENDBRANCH   1  23
TORSDOF 8
ENDMDL
MODEL 7
REMARK VINA RESULT:      -8.2      1.168      1.303
REMARK  Name = 
REMARK  10 active torsions:
REMARK  status: ('A' for Active; 'I' for Inactive)
REMARK    1  A    between atoms: C_1  and  C_2
REMARK    2  A    between atoms: C_2  and  C_3
REMARK    3  A    between atoms: C_3  and  S_4
REMARK    4  A    between atoms: S_4  and  N_7
REMARK    5  A    between atoms: N_7  and  C_8
REMARK    6  A    between atoms: C_11  and  N_12
REMARK    7  A    between atoms: N_12  and  C_13
REMARK    8  A    between atoms: C_23  and  N_24
REMARK    9  A    between atoms: C_30  and  O_31
REMARK   10  A    between atoms: O_31  and  C_32
REMARK                            x       y       z     vdW  Elec       q    Type
REMARK                         _______ _______ _______ _____ _____    ______ ____
ROOT
ATOM      1  N   UNL     1       2.466   6.606  18.906  0.00  0.00    +0.000 N 
ATOM      2  H   UNL     1       1.883   6.100  18.226  0.00  0.00    +0.000 HD
ENDROOT
BRANCH   1   3
ATOM      3  C   UNL     1       3.705   5.881  19.086  0.00  0.00    +0.000 A 
ATOM      4  C   UNL     1       4.752   5.754  18.085  0.00  0.00    +0.000 A 
ATOM      5  C   UNL     1       4.765   6.209  16.745  0.00  0.00    +0.000 A 
ATOM      6  C   UNL     1       5.792   5.821  15.852  0.00  0.00    +0.000 A 
ATOM      7  C   UNL     1       6.883   5.083  16.301  0.00  0.00    +0.000 A 
ATOM      8  C   UNL     1       6.896   4.634  17.608  0.00  0.00    +0.000 A 
ATOM      9  C   UNL     1       5.801   4.858  18.409  0.00  0.00    +0.000 A 
ATOM     10  N   UNL     1       5.664   3.965  19.379  0.00  0.00    +0.000 NA
ATOM     11  C   UNL     1       4.407   3.759  19.702  0.00  0.00    +0.000 A 
ATOM     12  C   UNL     1       3.700   2.827  18.942  0.00  0.00    +0.000 A 
ATOM     13  C   UNL     1       2.309   2.965  18.881  0.00  0.00    +0.000 A 
ATOM     14  C   UNL     1       1.681   3.564  19.973  0.00  0.00    +0.000 A 
ATOM     15  C   UNL     1       2.450   4.460  20.700  0.00  0.00    +0.000 A 
ATOM     16  C   UNL     1       3.639   4.825  20.074  0.00  0.00    +0.000 A 
BRANCH  13  17
ATOM     17  N   UNL     1       1.784   3.344  17.539  0.00  0.00    +0.000 N 
ATOM     18  O   UNL     1       2.298   2.820  16.543  0.00  0.00    +0.000 OA
ATOM     19  O   UNL     1       0.934   4.251  17.504  0.00  0.00    +0.000 OA
ENDBRANCH  13  17
ENDBRANCH   1   3
BRANCH   1  23
ATOM     20  C   UNL     1       1.116  10.630  18.727  0.00  0.00    +0.000 A 
ATOM     21  C   UNL     1       1.853  10.097  17.665  0.00  0.00    +0.000 A 
ATOM     22  C   UNL     1       2.331   8.772  17.713  0.00  0.00    +0.000 A 
ATOM     23  C   UNL     1       2.052   7.957  18.807  0.00  0.00    +0.000 A 
ATOM     24  C   UNL     1       1.416   8.563  19.929  0.00  0.00    +0.000 A 
ATOM     25  C   UNL     1       0.935   9.878  19.884  0.00  0.00    +0.000 A 
BRANCH  20  26
ATOM     26  N   UNL     1       0.521  11.939  18.618  0.00  0.00    +0.000 N 
ATOM     27  H   UNL     1      -0.274  12.026  19.256  0.00  0.00    +0.000 HD
BRANCH  26  28
ATOM     28  S   UNL     1       1.576  13.257  18.871  0.00  0.00    +0.000 S 
ATOM     29  O   UNL     1       0.871  14.487  18.643  0.00  0.00    +0.000 OA
ATOM     30  O   UNL     1       2.801  12.938  18.149  0.00  0.00    +0.000 OA
BRANCH  28  31
ATOM     31  C   UNL     1       1.904  13.071  20.627  0.00  0.00    +0.000 C 
BRANCH  31  33
ATOM     32  C   UNL     1       3.808  14.659  21.082  0.00  0.00    +0.000 C 
ATOM     33  C   UNL     1       2.322  14.389  21.272  0.00  0.00    +0.000 C 
ENDBRANCH  31  33
ENDBRANCH  28  31
ENDBRANCH  26  28
ENDBRANCH  20  26
BRANCH  24  34
ATOM     34  O   UNL     1       1.060   7.816  21.032  0.00  0.00    +0.000 OA
ATOM     35  C   UNL     1      -0.089   8.319  21.715  0.00  0.00    +0.000 C 
ENDBRANCH  24  34
ENDBRANCH   1  23
TORSDOF 8
ENDMDL
MODEL 8
REMARK VINA RESULT:      -8.1      1.194      1.378
REMARK  Name = 
REMARK  10 active torsions:
REMARK  status: ('A' for Active; 'I' for Inactive)
REMARK    1  A    between atoms: C_1  and  C_2
REMARK    2  A    between atoms: C_2  and  C_3
REMARK    3  A    between atoms: C_3  and  S_4
REMARK    4  A    between atoms: S_4  and  N_7
REMARK    5  A    between atoms: N_7  and  C_8
REMARK    6  A    between atoms: C_11  and  N_12
REMARK    7  A    between atoms: N_12  and  C_13
REMARK    8  A    between atoms: C_23  and  N_24
REMARK    9  A    between atoms: C_30  and  O_31
REMARK   10  A    between atoms: O_31  and  C_32
REMARK                            x       y       z     vdW  Elec       q    Type
REMARK                         _______ _______ _______ _____ _____    ______ ____
ROOT
ATOM      1  N   UNL     1       2.485   6.654  18.877  0.00  0.00    +0.000 N 
ATOM      2  H   UNL     1       1.936   6.209  18.129  0.00  0.00    +0.000 HD
ENDROOT
BRANCH   1   3
ATOM      3  C   UNL     1       3.701   5.896  19.074  0.00  0.00    +0.000 A 
ATOM      4  C   UNL     1       4.765   5.751  18.094  0.00  0.00    +0.000 A 
ATOM      5  C   UNL     1       4.817   6.218  16.759  0.00  0.00    +0.000 A 
ATOM      6  C   UNL     1       5.852   5.813  15.883  0.00  0.00    +0.000 A 
ATOM      7  C   UNL     1       6.914   5.042  16.347  0.00  0.00    +0.000 A 
ATOM      8  C   UNL     1       6.888   4.580  17.649  0.00  0.00    +0.000 A 
ATOM      9  C   UNL     1       5.784   4.825  18.430  0.00  0.00    +0.000 A 
ATOM     10  N   UNL     1       5.604   3.927  19.388  0.00  0.00    +0.000 NA
ATOM     11  C   UNL     1       4.336   3.751  19.683  0.00  0.00    +0.000 A 
ATOM     12  C   UNL     1       3.621   2.845  18.900  0.00  0.00    +0.000 A 
ATOM     13  C   UNL     1       2.235   3.019  18.812  0.00  0.00    +0.000 A 
ATOM     14  C   UNL     1       1.601   3.624  19.897  0.00  0.00    +0.000 A 
ATOM     15  C   UNL     1       2.377   4.493  20.648  0.00  0.00    +0.000 A 
ATOM     16  C   UNL     1       3.588   4.832  20.051  0.00  0.00    +0.000 A 
BRANCH  13  17
ATOM     17  N   UNL     1       1.747   3.424  17.463  0.00  0.00    +0.000 N 
ATOM     18  O   UNL     1       2.316   2.950  16.472  0.00  0.00    +0.000 OA
ATOM     19  O   UNL     1       0.870   4.304  17.424  0.00  0.00    +0.000 OA
ENDBRANCH  13  17
ENDBRANCH   1   3
BRANCH   1  23
ATOM     20  C   UNL     1       1.214  10.707  18.921  0.00  0.00    +0.000 A 
ATOM     21  C   UNL     1       1.917  10.213  17.819  0.00  0.00    +0.000 A 
ATOM     22  C   UNL     1       2.369   8.878  17.792  0.00  0.00    +0.000 A 
ATOM     23  C   UNL     1       2.097   8.016  18.852  0.00  0.00    +0.000 A 
ATOM     24  C   UNL     1       1.497   8.579  20.016  0.00  0.00    +0.000 A 
ATOM     25  C   UNL     1       1.043   9.904  20.045  0.00  0.00    +0.000 A 
BRANCH  20  26
ATOM     26  N   UNL     1       0.644  12.031  18.889  0.00  0.00    +0.000 N 
ATOM     27  H   UNL     1       0.873  12.500  18.010  0.00  0.00    +0.000 HD
BRANCH  26  28
ATOM     28  S   UNL     1      -1.043  12.120  19.136  0.00  0.00    +0.000 S 
ATOM     29  O   UNL     1      -1.401  11.355  20.297  0.00  0.00    +0.000 OA
ATOM     30  O   UNL     1      -1.655  11.863  17.838  0.00  0.00    +0.000 OA
BRANCH  28  31
ATOM     31  C   UNL     1      -1.221  13.871  19.494  0.00  0.00    +0.000 C 
BRANCH  31  33
ATOM     32  C   UNL     1       0.573  15.618  19.786  0.00  0.00    +0.000 C 
ATOM     33  C   UNL     1      -0.148  14.707  18.802  0.00  0.00    +0.000 C 
ENDBRANCH  31  33
ENDBRANCH  28  31
ENDBRANCH  26  28
ENDBRANCH  20  26
BRANCH  24  34
ATOM     34  O   UNL     1       1.150   7.787  21.089  0.00  0.00    +0.000 OA
ATOM     35  C   UNL     1       0.000   8.254  21.795  0.00  0.00    +0.000 C 
ENDBRANCH  24  34
ENDBRANCH   1  23
TORSDOF 8
ENDMDL
MODEL 9
REMARK VINA RESULT:      -7.8      1.570      1.890
REMARK  Name = 
REMARK  10 active torsions:
REMARK  status: ('A' for Active; 'I' for Inactive)
REMARK    1  A    between atoms: C_1  and  C_2
REMARK    2  A    between atoms: C_2  and  C_3
REMARK    3  A    between atoms: C_3  and  S_4
REMARK    4  A    between atoms: S_4  and  N_7
REMARK    5  A    between atoms: N_7  and  C_8
REMARK    6  A    between atoms: C_11  and  N_12
REMARK    7  A    between atoms: N_12  and  C_13
REMARK    8  A    between atoms: C_23  and  N_24
REMARK    9  A    between atoms: C_30  and  O_31
REMARK   10  A    between atoms: O_31  and  C_32
REMARK                            x       y       z     vdW  Elec       q    Type
REMARK                         _______ _______ _______ _____ _____    ______ ____
ROOT
ATOM      1  N   UNL     1       2.472   6.240  19.568  0.00  0.00    +0.000 N 
ATOM      2  H   UNL     1       1.736   5.597  19.246  0.00  0.00    +0.000 HD
ENDROOT
BRANCH   1   3
ATOM      3  C   UNL     1       3.732   5.531  19.583  0.00  0.00    +0.000 A 
ATOM      4  C   UNL     1       4.791   5.686  18.598  0.00  0.00    +0.000 A 
ATOM      5  C   UNL     1       4.798   6.457  17.411  0.00  0.00    +0.000 A 
ATOM      6  C   UNL     1       5.844   6.333  16.466  0.00  0.00    +0.000 A 
ATOM      7  C   UNL     1       6.956   5.541  16.736  0.00  0.00    +0.000 A 
ATOM      8  C   UNL     1       6.974   4.784  17.893  0.00  0.00    +0.000 A 
ATOM      9  C   UNL     1       5.867   4.770  18.707  0.00  0.00    +0.000 A 
ATOM     10  N   UNL     1       5.753   3.663  19.426  0.00  0.00    +0.000 NA
ATOM     11  C   UNL     1       4.501   3.345  19.669  0.00  0.00    +0.000 A 
ATOM     12  C   UNL     1       3.831   2.608  18.694  0.00  0.00    +0.000 A 
ATOM     13  C   UNL     1       2.437   2.714  18.647  0.00  0.00    +0.000 A 
ATOM     14  C   UNL     1       1.782   3.006  19.843  0.00  0.00    +0.000 A 
ATOM     15  C   UNL     1       2.514   3.719  20.779  0.00  0.00    +0.000 A 
ATOM     16  C   UNL     1       3.695   4.262  20.281  0.00  0.00    +0.000 A 
BRANCH  13  17
ATOM     17  N   UNL     1       1.909   3.394  17.431  0.00  0.00    +0.000 N 
ATOM     18  O   UNL     1       0.989   4.210  17.573  0.00  0.00    +0.000 OA
ATOM     19  O   UNL     1       2.353   3.011  16.335  0.00  0.00    +0.000 OA
ENDBRANCH  13  17
ENDBRANCH   1   3
BRANCH   1  23
ATOM     20  C   UNL     1       0.984  10.116  18.672  0.00  0.00    +0.000 A 
ATOM     21  C   UNL     1       1.528   9.329  17.653  0.00  0.00    +0.000 A 
ATOM     22  C   UNL     1       2.048   8.049  17.931  0.00  0.00    +0.000 A 
ATOM     23  C   UNL     1       2.003   7.531  19.223  0.00  0.00    +0.000 A 
ATOM     24  C   UNL     1       1.568   8.403  20.263  0.00  0.00    +0.000 A 
ATOM     25  C   UNL     1       1.046   9.674  19.990  0.00  0.00    +0.000 A 
BRANCH  20  26
ATOM     26  N   UNL     1       0.338  11.368  18.362  0.00  0.00    +0.000 N 
ATOM     27  H   UNL     1       0.595  11.682  17.423  0.00  0.00    +0.000 HD
BRANCH  26  28
ATOM     28  S   UNL     1      -1.363  11.380  18.500  0.00  0.00    +0.000 S 
ATOM     29  O   UNL     1      -1.859  10.033  18.453  0.00  0.00    +0.000 OA
ATOM     30  O   UNL     1      -1.837  12.397  17.570  0.00  0.00    +0.000 OA
BRANCH  28  31
ATOM     31  C   UNL     1      -1.543  12.027  20.166  0.00  0.00    +0.000 C 
BRANCH  31  33
ATOM     32  C   UNL     1      -0.438  14.286  20.336  0.00  0.00    +0.000 C 
ATOM     33  C   UNL     1      -1.754  13.538  20.171  0.00  0.00    +0.000 C 
ENDBRANCH  31  33
ENDBRANCH  28  31
ENDBRANCH  26  28
ENDBRANCH  20  26
BRANCH  24  34
ATOM     34  O   UNL     1       1.448   7.955  21.561  0.00  0.00    +0.000 OA
ATOM     35  C   UNL     1       0.959   8.947  22.464  0.00  0.00    +0.000 C 
ENDBRANCH  24  34
ENDBRANCH   1  23
TORSDOF 8
ENDMDL
