MODEL 1
REMARK VINA RESULT:      -8.2      0.000      0.000
REMARK  Name = 
REMARK  1 active torsions:
REMARK  status: ('A' for Active; 'I' for Inactive)
REMARK    1  A    between atoms: C_6  and  C_7
REMARK                            x       y       z     vdW  Elec       q    Type
REMARK                         _______ _______ _______ _____ _____    ______ ____
ROOT
ATOM      1  O   UNL     1       4.526   3.028  16.091  0.00  0.00    +0.000 OA
ATOM      2  C   UNL     1       4.323   3.705  17.106  0.00  0.00    +0.000 C 
ATOM      3  N   UNL     1       5.414   4.339  17.743  0.00  0.00    +0.000 N 
ATOM      4  C   UNL     1       6.665   4.427  16.976  0.00  0.00    +0.000 C 
ATOM      5  C   UNL     1       7.917   4.641  17.848  0.00  0.00    +0.000 C 
ATOM      6  C   UNL     1       7.790   5.767  18.875  0.00  0.00    +0.000 C 
ATOM      7  C   UNL     1       6.535   5.537  19.695  0.00  0.00    +0.000 C 
ATOM      8  C   UNL     1       5.321   5.284  18.832  0.00  0.00    +0.000 C 
ATOM      9  N   UNL     1       3.033   3.702  17.687  0.00  0.00    +0.000 N 
ATOM     10  C   UNL     1       2.155   2.562  17.380  0.00  0.00    +0.000 C 
ATOM     11  C   UNL     1       1.688   1.868  18.657  0.00  0.00    +0.000 C 
ATOM     12  C   UNL     1       1.012   2.841  19.612  0.00  0.00    +0.000 C 
ATOM     13  C   UNL     1       1.644   4.204  19.624  0.00  0.00    +0.000 A 
ATOM     14  C   UNL     1       1.422   5.057  20.717  0.00  0.00    +0.000 A 
ATOM     15  C   UNL     1       1.933   6.353  20.716  0.00  0.00    +0.000 A 
ATOM     16  C   UNL     1       2.512   6.856  19.556  0.00  0.00    +0.000 A 
ATOM     17  C   UNL     1       2.677   6.025  18.443  0.00  0.00    +0.000 A 
ATOM     18  C   UNL     1       2.430   4.658  18.554  0.00  0.00    +0.000 A 
ENDROOT
BRANCH   6  19
ATOM     19  C   UNL     1       7.885   7.168  18.325  0.00  0.00    +0.000 A 
ATOM     20  C   UNL     1       8.604   8.256  18.885  0.00  0.00    +0.000 A 
ATOM     21  C   UNL     1       8.394   9.308  18.032  0.00  0.00    +0.000 A 
ATOM     22  N   UNL     1       7.584   8.830  17.044  0.00  0.00    +0.000 N 
ATOM     23  N   UNL     1       7.244   7.542  17.211  0.00  0.00    +0.000 NA
ATOM     24  H   UNL     1       7.209   9.323  16.248  0.00  0.00    +0.000 HD
ENDBRANCH   6  19
TORSDOF 1
ENDMDL
MODEL 2
REMARK VINA RESULT:      -7.1     10.244     12.932
REMARK  Name = 
REMARK  1 active torsions:
REMARK  status: ('A' for Active; 'I' for Inactive)
REMARK    1  A    between atoms: C_6  and  C_7
REMARK                            x       y       z     vdW  Elec       q    Type
REMARK                         _______ _______ _______ _____ _____    ______ ____
ROOT
ATOM      1  O   UNL     1      -1.235  12.011  19.101  0.00  0.00    +0.000 OA
ATOM      2  C   UNL     1      -1.959  12.401  20.026  0.00  0.00    +0.000 C 
ATOM      3  N   UNL     1      -3.361  12.412  19.848  0.00  0.00    +0.000 N 
ATOM      4  C   UNL     1      -3.887  11.652  18.705  0.00  0.00    +0.000 C 
ATOM      5  C   UNL     1      -5.294  12.093  18.257  0.00  0.00    +0.000 C 
ATOM      6  C   UNL     1      -6.313  12.208  19.391  0.00  0.00    +0.000 C 
ATOM      7  C   UNL     1      -5.736  13.098  20.475  0.00  0.00    +0.000 C 
ATOM      8  C   UNL     1      -4.339  12.685  20.876  0.00  0.00    +0.000 C 
ATOM      9  N   UNL     1      -1.359  12.967  21.175  0.00  0.00    +0.000 N 
ATOM     10  C   UNL     1       0.001  13.509  21.032  0.00  0.00    +0.000 C 
ATOM     11  C   UNL     1       0.057  14.975  21.453  0.00  0.00    +0.000 C 
ATOM     12  C   UNL     1      -0.468  15.176  22.867  0.00  0.00    +0.000 C 
ATOM     13  C   UNL     1      -1.632  14.287  23.204  0.00  0.00    +0.000 A 
ATOM     14  C   UNL     1      -2.474  14.630  24.275  0.00  0.00    +0.000 A 
ATOM     15  C   UNL     1      -3.512  13.783  24.656  0.00  0.00    +0.000 A 
ATOM     16  C   UNL     1      -3.601  12.517  24.088  0.00  0.00    +0.000 A 
ATOM     17  C   UNL     1      -2.722  12.149  23.064  0.00  0.00    +0.000 A 
ATOM     18  C   UNL     1      -1.881  13.103  22.493  0.00  0.00    +0.000 A 
ENDROOT
BRANCH   6  19
ATOM     19  C   UNL     1      -6.848  10.903  19.924  0.00  0.00    +0.000 A 
ATOM     20  C   UNL     1      -6.869   9.652  19.252  0.00  0.00    +0.000 A 
ATOM     21  C   UNL     1      -7.443   8.775  20.136  0.00  0.00    +0.000 A 
ATOM     22  N   UNL     1      -7.739   9.506  21.249  0.00  0.00    +0.000 N 
ATOM     23  N   UNL     1      -7.409  10.803  21.135  0.00  0.00    +0.000 NA
ATOM     24  H   UNL     1      -8.181   9.199  22.101  0.00  0.00    +0.000 HD
ENDBRANCH   6  19
TORSDOF 1
ENDMDL
MODEL 3
REMARK VINA RESULT:      -7.0      9.858     12.741
REMARK  Name = 
REMARK  1 active torsions:
REMARK  status: ('A' for Active; 'I' for Inactive)
REMARK    1  A    between atoms: C_6  and  C_7
REMARK                            x       y       z     vdW  Elec       q    Type
REMARK                         _______ _______ _______ _____ _____    ______ ____
ROOT
ATOM      1  O   UNL     1      -2.045  11.310  17.486  0.00  0.00    +0.000 OA
ATOM      2  C   UNL     1      -2.490  11.861  18.501  0.00  0.00    +0.000 C 
ATOM      3  N   UNL     1      -3.887  11.891  18.715  0.00  0.00    +0.000 N 
ATOM      4  C   UNL     1      -4.700  10.983  17.893  0.00  0.00    +0.000 C 
ATOM      5  C   UNL     1      -6.180  11.396  17.785  0.00  0.00    +0.000 C 
ATOM      6  C   UNL     1      -6.848  11.717  19.122  0.00  0.00    +0.000 C 
ATOM      7  C   UNL     1      -6.003  12.743  19.853  0.00  0.00    +0.000 C 
ATOM      8  C   UNL     1      -4.546  12.350  19.915  0.00  0.00    +0.000 C 
ATOM      9  N   UNL     1      -1.602  12.576  19.339  0.00  0.00    +0.000 N 
ATOM     10  C   UNL     1      -0.340  13.044  18.745  0.00  0.00    +0.000 C 
ATOM     11  C   UNL     1      -0.185  14.554  18.901  0.00  0.00    +0.000 C 
ATOM     12  C   UNL     1      -0.302  14.986  20.355  0.00  0.00    +0.000 C 
ATOM     13  C   UNL     1      -1.318  14.199  21.133  0.00  0.00    +0.000 A 
ATOM     14  C   UNL     1      -1.836  14.729  22.326  0.00  0.00    +0.000 A 
ATOM     15  C   UNL     1      -2.720  13.986  23.104  0.00  0.00    +0.000 A 
ATOM     16  C   UNL     1      -2.948  12.651  22.787  0.00  0.00    +0.000 A 
ATOM     17  C   UNL     1      -2.382  12.101  21.633  0.00  0.00    +0.000 A 
ATOM     18  C   UNL     1      -1.742  12.929  20.711  0.00  0.00    +0.000 A 
ENDROOT
BRANCH   6  19
ATOM     19  C   UNL     1      -7.202  10.527  19.978  0.00  0.00    +0.000 A 
ATOM     20  C   UNL     1      -7.149   9.160  19.601  0.00  0.00    +0.000 A 
ATOM     21  C   UNL     1      -7.556   8.462  20.708  0.00  0.00    +0.000 A 
ATOM     22  N   UNL     1      -7.834   9.399  21.659  0.00  0.00    +0.000 N 
ATOM     23  N   UNL     1      -7.648  10.659  21.233  0.00  0.00    +0.000 NA
ATOM     24  H   UNL     1      -8.171   9.258  22.599  0.00  0.00    +0.000 HD
ENDBRANCH   6  19
TORSDOF 1
ENDMDL
MODEL 4
REMARK VINA RESULT:      -7.0      8.739     11.903
REMARK  Name = 
REMARK  1 active torsions:
REMARK  status: ('A' for Active; 'I' for Inactive)
REMARK    1  A    between atoms: C_6  and  C_7
REMARK                            x       y       z     vdW  Elec       q    Type
REMARK                         _______ _______ _______ _____ _____    ______ ____
ROOT
ATOM      1  O   UNL     1      -1.085  10.479  17.774  0.00  0.00    +0.000 OA
ATOM      2  C   UNL     1      -1.461  11.172  18.728  0.00  0.00    +0.000 C 
ATOM      3  N   UNL     1      -2.812  11.583  18.794  0.00  0.00    +0.000 N 
ATOM      4  C   UNL     1      -3.756  10.889  17.905  0.00  0.00    +0.000 C 
ATOM      5  C   UNL     1      -5.052  11.677  17.636  0.00  0.00    +0.000 C 
ATOM      6  C   UNL     1      -5.735  12.222  18.891  0.00  0.00    +0.000 C 
ATOM      7  C   UNL     1      -4.720  13.016  19.691  0.00  0.00    +0.000 C 
ATOM      8  C   UNL     1      -3.435  12.252  19.912  0.00  0.00    +0.000 C 
ATOM      9  N   UNL     1      -0.498  11.659  19.643  0.00  0.00    +0.000 N 
ATOM     10  C   UNL     1       0.895  11.748  19.178  0.00  0.00    +0.000 C 
ATOM     11  C   UNL     1       1.435  13.168  19.325  0.00  0.00    +0.000 C 
ATOM     12  C   UNL     1       1.298  13.678  20.753  0.00  0.00    +0.000 C 
ATOM     13  C   UNL     1       0.037  13.224  21.432  0.00  0.00    +0.000 A 
ATOM     14  C   UNL     1      -0.431  13.924  22.556  0.00  0.00    +0.000 A 
ATOM     15  C   UNL     1      -1.554  13.477  23.249  0.00  0.00    +0.000 A 
ATOM     16  C   UNL     1      -2.102  12.239  22.930  0.00  0.00    +0.000 A 
ATOM     17  C   UNL     1      -1.596  11.510  21.850  0.00  0.00    +0.000 A 
ATOM     18  C   UNL     1      -0.670  12.096  20.988  0.00  0.00    +0.000 A 
ENDROOT
BRANCH   6  19
ATOM     19  C   UNL     1      -6.478  11.208  19.724  0.00  0.00    +0.000 A 
ATOM     20  C   UNL     1      -6.952   9.939  19.299  0.00  0.00    +0.000 A 
ATOM     21  C   UNL     1      -7.552   9.388  20.402  0.00  0.00    +0.000 A 
ATOM     22  N   UNL     1      -7.427  10.313  21.396  0.00  0.00    +0.000 N 
ATOM     23  N   UNL     1      -6.800  11.434  21.003  0.00  0.00    +0.000 NA
ATOM     24  H   UNL     1      -7.761  10.261  22.346  0.00  0.00    +0.000 HD
ENDBRANCH   6  19
TORSDOF 1
ENDMDL
MODEL 5
REMARK VINA RESULT:      -6.7      9.043     12.249
REMARK  Name = 
REMARK  1 active torsions:
REMARK  status: ('A' for Active; 'I' for Inactive)
REMARK    1  A    between atoms: C_6  and  C_7
REMARK                            x       y       z     vdW  Elec       q    Type
REMARK                         _______ _______ _______ _____ _____    ______ ____
ROOT
ATOM      1  O   UNL     1      -1.016  10.924  18.289  0.00  0.00    +0.000 OA
ATOM      2  C   UNL     1      -1.557  11.566  19.197  0.00  0.00    +0.000 C 
ATOM      3  N   UNL     1      -2.927  11.898  19.088  0.00  0.00    +0.000 N 
ATOM      4  C   UNL     1      -3.700  11.178  18.065  0.00  0.00    +0.000 C 
ATOM      5  C   UNL     1      -4.993  11.900  17.639  0.00  0.00    +0.000 C 
ATOM      6  C   UNL     1      -5.869  12.369  18.800  0.00  0.00    +0.000 C 
ATOM      7  C   UNL     1      -5.020  13.195  19.747  0.00  0.00    +0.000 C 
ATOM      8  C   UNL     1      -3.734  12.499  20.124  0.00  0.00    +0.000 C 
ATOM      9  N   UNL     1      -0.757  12.081  20.245  0.00  0.00    +0.000 N 
ATOM     10  C   UNL     1       0.678  12.262  19.975  0.00  0.00    +0.000 C 
ATOM     11  C   UNL     1       1.107  13.704  20.224  0.00  0.00    +0.000 C 
ATOM     12  C   UNL     1       0.750  14.165  21.630  0.00  0.00    +0.000 C 
ATOM     13  C   UNL     1      -0.561  13.621  22.122  0.00  0.00    +0.000 A 
ATOM     14  C   UNL     1      -1.218  14.261  23.186  0.00  0.00    +0.000 A 
ATOM     15  C   UNL     1      -2.394  13.732  23.710  0.00  0.00    +0.000 A 
ATOM     16  C   UNL     1      -2.820  12.475  23.295  0.00  0.00    +0.000 A 
ATOM     17  C   UNL     1      -2.130  11.806  22.278  0.00  0.00    +0.000 A 
ATOM     18  C   UNL     1      -1.134  12.468  21.562  0.00  0.00    +0.000 A 
ENDROOT
BRANCH   6  19
ATOM     19  C   UNL     1      -6.655  11.290  19.503  0.00  0.00    +0.000 A 
ATOM     20  C   UNL     1      -7.292  11.388  20.768  0.00  0.00    +0.000 A 
ATOM     21  C   UNL     1      -7.875  10.165  20.976  0.00  0.00    +0.000 A 
ATOM     22  N   UNL     1      -7.568   9.414  19.879  0.00  0.00    +0.000 N 
ATOM     23  N   UNL     1      -6.811  10.067  18.983  0.00  0.00    +0.000 NA
ATOM     24  H   UNL     1      -7.817   8.456  19.687  0.00  0.00    +0.000 HD
ENDBRANCH   6  19
TORSDOF 1
ENDMDL
MODEL 6
REMARK VINA RESULT:      -6.7      7.753      9.399
REMARK  Name = 
REMARK  1 active torsions:
REMARK  status: ('A' for Active; 'I' for Inactive)
REMARK    1  A    between atoms: C_6  and  C_7
REMARK                            x       y       z     vdW  Elec       q    Type
REMARK                         _______ _______ _______ _____ _____    ______ ____
ROOT
ATOM      1  O   UNL     1       1.967  10.773  18.186  0.00  0.00    +0.000 OA
ATOM      2  C   UNL     1       1.364  11.330  19.111  0.00  0.00    +0.000 C 
ATOM      3  N   UNL     1       1.571  12.709  19.340  0.00  0.00    +0.000 N 
ATOM      4  C   UNL     1       2.230  13.464  18.264  0.00  0.00    +0.000 C 
ATOM      5  C   UNL     1       2.879  14.780  18.734  0.00  0.00    +0.000 C 
ATOM      6  C   UNL     1       1.971  15.666  19.587  0.00  0.00    +0.000 C 
ATOM      7  C   UNL     1       1.423  14.839  20.734  0.00  0.00    +0.000 C 
ATOM      8  C   UNL     1       0.829  13.530  20.268  0.00  0.00    +0.000 C 
ATOM      9  N   UNL     1       0.604  10.542  20.007  0.00  0.00    +0.000 N 
ATOM     10  C   UNL     1       0.945   9.114  20.110  0.00  0.00    +0.000 C 
ATOM     11  C   UNL     1       1.271   8.728  21.549  0.00  0.00    +0.000 C 
ATOM     12  C   UNL     1       0.141   9.093  22.501  0.00  0.00    +0.000 C 
ATOM     13  C   UNL     1      -0.541  10.385  22.151  0.00  0.00    +0.000 A 
ATOM     14  C   UNL     1      -1.291  11.056  23.132  0.00  0.00    +0.000 A 
ATOM     15  C   UNL     1      -1.996  12.214  22.811  0.00  0.00    +0.000 A 
ATOM     16  C   UNL     1      -2.097  12.603  21.479  0.00  0.00    +0.000 A 
ATOM     17  C   UNL     1      -1.402  11.897  20.492  0.00  0.00    +0.000 A 
ATOM     18  C   UNL     1      -0.472  10.925  20.858  0.00  0.00    +0.000 A 
ENDROOT
BRANCH   6  19
ATOM     19  C   UNL     1       0.898  16.416  18.838  0.00  0.00    +0.000 A 
ATOM     20  C   UNL     1       1.089  17.451  17.885  0.00  0.00    +0.000 A 
ATOM     21  C   UNL     1      -0.172  17.811  17.483  0.00  0.00    +0.000 A 
ATOM     22  N   UNL     1      -1.029  17.019  18.188  0.00  0.00    +0.000 N 
ATOM     23  N   UNL     1      -0.406  16.181  19.032  0.00  0.00    +0.000 NA
ATOM     24  H   UNL     1      -2.037  17.009  18.164  0.00  0.00    +0.000 HD
ENDBRANCH   6  19
TORSDOF 1
ENDMDL
MODEL 7
REMARK VINA RESULT:      -6.6      9.949     12.696
REMARK  Name = 
REMARK  1 active torsions:
REMARK  status: ('A' for Active; 'I' for Inactive)
REMARK    1  A    between atoms: C_6  and  C_7
REMARK                            x       y       z     vdW  Elec       q    Type
REMARK                         _______ _______ _______ _____ _____    ______ ____
ROOT
ATOM      1  O   UNL     1      -3.617  13.416  23.180  0.00  0.00    +0.000 OA
ATOM      2  C   UNL     1      -3.404  12.845  22.104  0.00  0.00    +0.000 C 
ATOM      3  N   UNL     1      -4.472  12.658  21.197  0.00  0.00    +0.000 N 
ATOM      4  C   UNL     1      -5.690  13.445  21.442  0.00  0.00    +0.000 C 
ATOM      5  C   UNL     1      -6.953  12.859  20.781  0.00  0.00    +0.000 C 
ATOM      6  C   UNL     1      -6.787  12.499  19.305  0.00  0.00    +0.000 C 
ATOM      7  C   UNL     1      -5.576  11.597  19.158  0.00  0.00    +0.000 C 
ATOM      8  C   UNL     1      -4.354  12.158  19.847  0.00  0.00    +0.000 C 
ATOM      9  N   UNL     1      -2.136  12.260  21.877  0.00  0.00    +0.000 N 
ATOM     10  C   UNL     1      -1.323  11.925  23.057  0.00  0.00    +0.000 C 
ATOM     11  C   UNL     1      -0.942  10.448  23.062  0.00  0.00    +0.000 C 
ATOM     12  C   UNL     1      -0.236  10.044  21.776  0.00  0.00    +0.000 C 
ATOM     13  C   UNL     1      -0.780  10.729  20.555  0.00  0.00    +0.000 A 
ATOM     14  C   UNL     1      -0.538  10.173  19.287  0.00  0.00    +0.000 A 
ATOM     15  C   UNL     1      -0.965  10.830  18.135  0.00  0.00    +0.000 A 
ATOM     16  C   UNL     1      -1.474  12.120  18.237  0.00  0.00    +0.000 A 
ATOM     17  C   UNL     1      -1.657  12.701  19.495  0.00  0.00    +0.000 A 
ATOM     18  C   UNL     1      -1.501  11.929  20.646  0.00  0.00    +0.000 A 
ENDROOT
BRANCH   6  19
ATOM     19  C   UNL     1      -6.775  13.662  18.345  0.00  0.00    +0.000 A 
ATOM     20  C   UNL     1      -6.988  13.610  16.942  0.00  0.00    +0.000 A 
ATOM     21  C   UNL     1      -6.885  14.908  16.512  0.00  0.00    +0.000 A 
ATOM     22  N   UNL     1      -6.616  15.650  17.625  0.00  0.00    +0.000 N 
ATOM     23  N   UNL     1      -6.522  14.914  18.744  0.00  0.00    +0.000 NA
ATOM     24  H   UNL     1      -6.463  16.644  17.693  0.00  0.00    +0.000 HD
ENDBRANCH   6  19
TORSDOF 1
ENDMDL
MODEL 8
REMARK VINA RESULT:      -6.6      8.403     10.511
REMARK  Name = 
REMARK  1 active torsions:
REMARK  status: ('A' for Active; 'I' for Inactive)
REMARK    1  A    between atoms: C_6  and  C_7
REMARK                            x       y       z     vdW  Elec       q    Type
REMARK                         _______ _______ _______ _____ _____    ______ ____
ROOT
ATOM      1  O   UNL     1      -4.548  12.678  21.608  0.00  0.00    +0.000 OA
ATOM      2  C   UNL     1      -4.004  12.310  20.559  0.00  0.00    +0.000 C 
ATOM      3  N   UNL     1      -2.593  12.258  20.494  0.00  0.00    +0.000 N 
ATOM      4  C   UNL     1      -1.871  12.325  21.773  0.00  0.00    +0.000 C 
ATOM      5  C   UNL     1      -0.403  12.772  21.637  0.00  0.00    +0.000 C 
ATOM      6  C   UNL     1       0.391  12.025  20.565  0.00  0.00    +0.000 C 
ATOM      7  C   UNL     1      -0.370  12.101  19.255  0.00  0.00    +0.000 C 
ATOM      8  C   UNL     1      -1.820  11.704  19.407  0.00  0.00    +0.000 C 
ATOM      9  N   UNL     1      -4.802  12.099  19.410  0.00  0.00    +0.000 N 
ATOM     10  C   UNL     1      -6.109  12.773  19.360  0.00  0.00    +0.000 C 
ATOM     11  C   UNL     1      -6.231  13.643  18.113  0.00  0.00    +0.000 C 
ATOM     12  C   UNL     1      -5.974  12.848  16.841  0.00  0.00    +0.000 C 
ATOM     13  C   UNL     1      -4.899  11.809  16.994  0.00  0.00    +0.000 A 
ATOM     14  C   UNL     1      -4.265  11.299  15.848  0.00  0.00    +0.000 A 
ATOM     15  C   UNL     1      -3.321  10.282  15.957  0.00  0.00    +0.000 A 
ATOM     16  C   UNL     1      -3.138   9.652  17.184  0.00  0.00    +0.000 A 
ATOM     17  C   UNL     1      -3.816  10.118  18.315  0.00  0.00    +0.000 A 
ATOM     18  C   UNL     1      -4.530  11.313  18.254  0.00  0.00    +0.000 A 
ENDROOT
BRANCH   6  19
ATOM     19  C   UNL     1       0.810  10.621  20.921  0.00  0.00    +0.000 A 
ATOM     20  C   UNL     1       0.862   9.501  20.051  0.00  0.00    +0.000 A 
ATOM     21  C   UNL     1       1.303   8.459  20.826  0.00  0.00    +0.000 A 
ATOM     22  N   UNL     1       1.479   8.973  22.077  0.00  0.00    +0.000 N 
ATOM     23  N   UNL     1       1.165  10.276  22.165  0.00  0.00    +0.000 NA
ATOM     24  H   UNL     1       1.783   8.498  22.912  0.00  0.00    +0.000 HD
ENDBRANCH   6  19
TORSDOF 1
ENDMDL
MODEL 9
REMARK VINA RESULT:      -6.6      9.091     11.332
REMARK  Name = 
REMARK  1 active torsions:
REMARK  status: ('A' for Active; 'I' for Inactive)
REMARK    1  A    between atoms: C_6  and  C_7
REMARK                            x       y       z     vdW  Elec       q    Type
REMARK                         _______ _______ _______ _____ _____    ______ ____
ROOT
ATOM      1  O   UNL     1      -5.724  12.900  21.667  0.00  0.00    +0.000 OA
ATOM      2  C   UNL     1      -4.978  12.560  20.741  0.00  0.00    +0.000 C 
ATOM      3  N   UNL     1      -3.578  12.587  20.936  0.00  0.00    +0.000 N 
ATOM      4  C   UNL     1      -3.108  12.698  22.325  0.00  0.00    +0.000 C 
ATOM      5  C   UNL     1      -1.667  13.226  22.454  0.00  0.00    +0.000 C 
ATOM      6  C   UNL     1      -0.650  12.522  21.556  0.00  0.00    +0.000 C 
ATOM      7  C   UNL     1      -1.160  12.551  20.128  0.00  0.00    +0.000 C 
ATOM      8  C   UNL     1      -2.589  12.073  20.017  0.00  0.00    +0.000 C 
ATOM      9  N   UNL     1      -5.538  12.301  19.468  0.00  0.00    +0.000 N 
ATOM     10  C   UNL     1      -6.848  12.900  19.170  0.00  0.00    +0.000 C 
ATOM     11  C   UNL     1      -6.787  13.759  17.910  0.00  0.00    +0.000 C 
ATOM     12  C   UNL     1      -6.257  12.975  16.718  0.00  0.00    +0.000 C 
ATOM     13  C   UNL     1      -5.173  11.999  17.079  0.00  0.00    +0.000 A 
ATOM     14  C   UNL     1      -4.313  11.522  16.076  0.00  0.00    +0.000 A 
ATOM     15  C   UNL     1      -3.351  10.559  16.370  0.00  0.00    +0.000 A 
ATOM     16  C   UNL     1      -3.363   9.944  17.618  0.00  0.00    +0.000 A 
ATOM     17  C   UNL     1      -4.261  10.375  18.599  0.00  0.00    +0.000 A 
ATOM     18  C   UNL     1      -5.016  11.528  18.392  0.00  0.00    +0.000 A 
ENDROOT
BRANCH   6  19
ATOM     19  C   UNL     1      -0.227  11.144  22.002  0.00  0.00    +0.000 A 
ATOM     20  C   UNL     1       0.411  10.152  21.212  0.00  0.00    +0.000 A 
ATOM     21  C   UNL     1       0.596   9.084  22.052  0.00  0.00    +0.000 A 
ATOM     22  N   UNL     1       0.073   9.460  23.254  0.00  0.00    +0.000 N 
ATOM     23  N   UNL     1      -0.452  10.696  23.243  0.00  0.00    +0.000 NA
ATOM     24  H   UNL     1       0.019   8.926  24.108  0.00  0.00    +0.000 HD
ENDBRANCH   6  19
TORSDOF 1
ENDMDL
