MODEL 1
REMARK VINA RESULT:      -8.4      0.000      0.000
REMARK  Name = 
REMARK  3 active torsions:
REMARK  status: ('A' for Active; 'I' for Inactive)
REMARK    1  A    between atoms: N_3  and  C_4
REMARK    2  A    between atoms: C_8  and  O_9
REMARK    3  A    between atoms: O_9  and  C_10
REMARK                            x       y       z     vdW  Elec       q    Type
REMARK                         _______ _______ _______ _____ _____    ______ ____
ROOT
ATOM      1  C   UNL     1       1.590   5.701  20.319  0.00  0.00    +0.000 A 
ATOM      2  C   UNL     1       0.850   4.542  20.559  0.00  0.00    +0.000 A 
ATOM      3  C   UNL     1       1.187   3.337  19.932  0.00  0.00    +0.000 A 
ATOM      4  C   UNL     1       2.275   3.279  19.061  0.00  0.00    +0.000 A 
ATOM      5  C   UNL     1       3.004   4.439  18.805  0.00  0.00    +0.000 A 
ATOM      6  C   UNL     1       2.635   5.655  19.389  0.00  0.00    +0.000 A 
ENDROOT
BRANCH   1   9
ATOM      7  O   UNL     1       1.460   8.367  19.184  0.00  0.00    +0.000 OA
ATOM      8  C   UNL     1       1.339   8.178  20.393  0.00  0.00    +0.000 C 
ATOM      9  N   UNL     1       1.374   6.933  20.977  0.00  0.00    +0.000 N 
ATOM     10  N   UNL     1       1.138   9.245  21.262  0.00  0.00    +0.000 N 
ATOM     11  C   UNL     1       1.034   9.214  22.723  0.00  0.00    +0.000 C 
ATOM     12  C   UNL     1      -0.319   9.768  23.170  0.00  0.00    +0.000 C 
ATOM     13  C   UNL     1      -0.583  11.151  22.569  0.00  0.00    +0.000 C 
ATOM     14  C   UNL     1      -0.382  11.152  21.054  0.00  0.00    +0.000 C 
ATOM     15  C   UNL     1       0.984  10.578  20.686  0.00  0.00    +0.000 C 
ATOM     16  H   UNL     1       0.938   6.857  21.881  0.00  0.00    +0.000 HD
ENDBRANCH   1   9
BRANCH   5  17
ATOM     17  O   UNL     1       4.095   4.328  17.918  0.00  0.00    +0.000 OA
BRANCH  17  18
ATOM     18  C   UNL     1       5.398   4.277  18.432  0.00  0.00    +0.000 C 
ATOM     19  O   UNL     1       5.734   3.582  19.386  0.00  0.00    +0.000 OA
ATOM     20  N   UNL     1       6.288   5.093  17.752  0.00  0.00    +0.000 N 
ATOM     21  C   UNL     1       7.675   5.153  18.197  0.00  0.00    +0.000 C 
ATOM     22  C   UNL     1       8.003   6.559  18.690  0.00  0.00    +0.000 C 
ATOM     23  C   UNL     1       7.694   7.593  17.607  0.00  0.00    +0.000 C 
ATOM     24  C   UNL     1       6.252   7.459  17.108  0.00  0.00    +0.000 C 
ATOM     25  C   UNL     1       5.928   6.024  16.690  0.00  0.00    +0.000 C 
ENDBRANCH  17  18
ENDBRANCH   5  17
TORSDOF 3
ENDMDL
MODEL 2
REMARK VINA RESULT:      -8.3      1.085      1.579
REMARK  Name = 
REMARK  3 active torsions:
REMARK  status: ('A' for Active; 'I' for Inactive)
REMARK    1  A    between atoms: N_3  and  C_4
REMARK    2  A    between atoms: C_8  and  O_9
REMARK    3  A    between atoms: O_9  and  C_10
REMARK                            x       y       z     vdW  Elec       q    Type
REMARK                         _______ _______ _______ _____ _____    ______ ____
ROOT
ATOM      1  C   UNL     1       2.067   5.215  20.452  0.00  0.00    +0.000 A 
ATOM      2  C   UNL     1       1.167   4.150  20.389  0.00  0.00    +0.000 A 
ATOM      3  C   UNL     1       1.600   2.869  20.027  0.00  0.00    +0.000 A 
ATOM      4  C   UNL     1       2.943   2.640  19.729  0.00  0.00    +0.000 A 
ATOM      5  C   UNL     1       3.841   3.706  19.774  0.00  0.00    +0.000 A 
ATOM      6  C   UNL     1       3.399   4.996  20.083  0.00  0.00    +0.000 A 
ENDROOT
BRANCH   1   9
ATOM      7  O   UNL     1       1.867   7.662  18.909  0.00  0.00    +0.000 OA
ATOM      8  C   UNL     1       1.667   7.651  20.123  0.00  0.00    +0.000 C 
ATOM      9  N   UNL     1       1.732   6.515  20.894  0.00  0.00    +0.000 N 
ATOM     10  N   UNL     1       1.341   8.821  20.800  0.00  0.00    +0.000 N 
ATOM     11  C   UNL     1       1.132   9.005  22.238  0.00  0.00    +0.000 C 
ATOM     12  C   UNL     1      -0.281   9.526  22.505  0.00  0.00    +0.000 C 
ATOM     13  C   UNL     1      -0.580  10.780  21.680  0.00  0.00    +0.000 C 
ATOM     14  C   UNL     1      -0.268  10.565  20.200  0.00  0.00    +0.000 C 
ATOM     15  C   UNL     1       1.153  10.037  20.013  0.00  0.00    +0.000 C 
ATOM     16  H   UNL     1       1.236   6.547  21.769  0.00  0.00    +0.000 HD
ENDBRANCH   1   9
BRANCH   5  17
ATOM     17  O   UNL     1       5.188   3.423  19.465  0.00  0.00    +0.000 OA
BRANCH  17  18
ATOM     18  C   UNL     1       6.047   4.471  19.108  0.00  0.00    +0.000 C 
ATOM     19  O   UNL     1       6.621   5.196  19.916  0.00  0.00    +0.000 OA
ATOM     20  N   UNL     1       6.197   4.615  17.738  0.00  0.00    +0.000 N 
ATOM     21  C   UNL     1       7.047   5.684  17.227  0.00  0.00    +0.000 C 
ATOM     22  C   UNL     1       6.209   6.683  16.436  0.00  0.00    +0.000 C 
ATOM     23  C   UNL     1       5.436   5.972  15.324  0.00  0.00    +0.000 C 
ATOM     24  C   UNL     1       4.607   4.811  15.880  0.00  0.00    +0.000 C 
ATOM     25  C   UNL     1       5.457   3.865  16.731  0.00  0.00    +0.000 C 
ENDBRANCH  17  18
ENDBRANCH   5  17
TORSDOF 3
ENDMDL
MODEL 3
REMARK VINA RESULT:      -7.7      2.070      4.721
REMARK  Name = 
REMARK  3 active torsions:
REMARK  status: ('A' for Active; 'I' for Inactive)
REMARK    1  A    between atoms: N_3  and  C_4
REMARK    2  A    between atoms: C_8  and  O_9
REMARK    3  A    between atoms: O_9  and  C_10
REMARK                            x       y       z     vdW  Elec       q    Type
REMARK                         _______ _______ _______ _____ _____    ______ ____
ROOT
ATOM      1  C   UNL     1       4.111   6.934  17.526  0.00  0.00    +0.000 A 
ATOM      2  C   UNL     1       5.366   7.230  16.991  0.00  0.00    +0.000 A 
ATOM      3  C   UNL     1       6.236   6.205  16.602  0.00  0.00    +0.000 A 
ATOM      4  C   UNL     1       5.855   4.871  16.739  0.00  0.00    +0.000 A 
ATOM      5  C   UNL     1       4.610   4.572  17.290  0.00  0.00    +0.000 A 
ATOM      6  C   UNL     1       3.763   5.594  17.728  0.00  0.00    +0.000 A 
ENDROOT
BRANCH   1   9
ATOM      7  O   UNL     1       2.399   7.060  19.864  0.00  0.00    +0.000 OA
ATOM      8  C   UNL     1       2.338   7.910  18.976  0.00  0.00    +0.000 C 
ATOM      9  N   UNL     1       3.139   7.904  17.859  0.00  0.00    +0.000 N 
ATOM     10  N   UNL     1       1.435   8.964  19.064  0.00  0.00    +0.000 N 
ATOM     11  C   UNL     1       1.183  10.023  18.083  0.00  0.00    +0.000 C 
ATOM     12  C   UNL     1       1.459  11.394  18.701  0.00  0.00    +0.000 C 
ATOM     13  C   UNL     1       0.690  11.582  20.012  0.00  0.00    +0.000 C 
ATOM     14  C   UNL     1       0.921  10.413  20.969  0.00  0.00    +0.000 C 
ATOM     15  C   UNL     1       0.634   9.081  20.280  0.00  0.00    +0.000 C 
ATOM     16  H   UNL     1       3.248   8.787  17.390  0.00  0.00    +0.000 HD
ENDBRANCH   1   9
BRANCH   5  17
ATOM     17  O   UNL     1       4.272   3.207  17.406  0.00  0.00    +0.000 OA
BRANCH  17  18
ATOM     18  C   UNL     1       2.926   2.843  17.561  0.00  0.00    +0.000 C 
ATOM     19  O   UNL     1       2.100   2.863  16.655  0.00  0.00    +0.000 OA
ATOM     20  N   UNL     1       2.611   2.446  18.851  0.00  0.00    +0.000 N 
ATOM     21  C   UNL     1       1.239   2.062  19.158  0.00  0.00    +0.000 C 
ATOM     22  C   UNL     1       0.637   3.036  20.166  0.00  0.00    +0.000 C 
ATOM     23  C   UNL     1       1.512   3.121  21.417  0.00  0.00    +0.000 C 
ATOM     24  C   UNL     1       2.962   3.456  21.058  0.00  0.00    +0.000 C 
ATOM     25  C   UNL     1       3.516   2.510  19.992  0.00  0.00    +0.000 C 
ENDBRANCH  17  18
ENDBRANCH   5  17
TORSDOF 3
ENDMDL
MODEL 4
REMARK VINA RESULT:      -7.6      2.816      4.586
REMARK  Name = 
REMARK  3 active torsions:
REMARK  status: ('A' for Active; 'I' for Inactive)
REMARK    1  A    between atoms: N_3  and  C_4
REMARK    2  A    between atoms: C_8  and  O_9
REMARK    3  A    between atoms: O_9  and  C_10
REMARK                            x       y       z     vdW  Elec       q    Type
REMARK                         _______ _______ _______ _____ _____    ______ ____
ROOT
ATOM      1  C   UNL     1       0.890   9.663  19.927  0.00  0.00    +0.000 A 
ATOM      2  C   UNL     1       0.966  10.011  18.577  0.00  0.00    +0.000 A 
ATOM      3  C   UNL     1       1.610   9.172  17.660  0.00  0.00    +0.000 A 
ATOM      4  C   UNL     1       2.180   7.973  18.084  0.00  0.00    +0.000 A 
ATOM      5  C   UNL     1       2.122   7.633  19.435  0.00  0.00    +0.000 A 
ATOM      6  C   UNL     1       1.526   8.495  20.361  0.00  0.00    +0.000 A 
ENDROOT
BRANCH   1   9
ATOM      7  O   UNL     1       1.132  12.475  20.597  0.00  0.00    +0.000 OA
ATOM      8  C   UNL     1       0.347  11.738  21.193  0.00  0.00    +0.000 C 
ATOM      9  N   UNL     1       0.183  10.405  20.901  0.00  0.00    +0.000 N 
ATOM     10  N   UNL     1      -0.451  12.232  22.219  0.00  0.00    +0.000 N 
ATOM     11  C   UNL     1      -1.388  11.495  23.070  0.00  0.00    +0.000 C 
ATOM     12  C   UNL     1      -2.801  12.061  22.917  0.00  0.00    +0.000 C 
ATOM     13  C   UNL     1      -2.826  13.574  23.150  0.00  0.00    +0.000 C 
ATOM     14  C   UNL     1      -1.776  14.289  22.300  0.00  0.00    +0.000 C 
ATOM     15  C   UNL     1      -0.397  13.665  22.499  0.00  0.00    +0.000 C 
ATOM     16  H   UNL     1      -0.687   9.993  21.194  0.00  0.00    +0.000 HD
ENDBRANCH   1   9
BRANCH   5  17
ATOM     17  O   UNL     1       2.713   6.409  19.814  0.00  0.00    +0.000 OA
BRANCH  17  18
ATOM     18  C   UNL     1       1.919   5.256  19.889  0.00  0.00    +0.000 C 
ATOM     19  O   UNL     1       1.115   5.032  20.788  0.00  0.00    +0.000 OA
ATOM     20  N   UNL     1       2.126   4.378  18.836  0.00  0.00    +0.000 N 
ATOM     21  C   UNL     1       1.381   3.126  18.802  0.00  0.00    +0.000 C 
ATOM     22  C   UNL     1       2.339   1.946  18.925  0.00  0.00    +0.000 C 
ATOM     23  C   UNL     1       3.415   2.013  17.841  0.00  0.00    +0.000 C 
ATOM     24  C   UNL     1       4.133   3.366  17.855  0.00  0.00    +0.000 C 
ATOM     25  C   UNL     1       3.144   4.532  17.805  0.00  0.00    +0.000 C 
ENDBRANCH  17  18
ENDBRANCH   5  17
TORSDOF 3
ENDMDL
MODEL 5
REMARK VINA RESULT:      -7.6      3.766      8.862
REMARK  Name = 
REMARK  3 active torsions:
REMARK  status: ('A' for Active; 'I' for Inactive)
REMARK    1  A    between atoms: N_3  and  C_4
REMARK    2  A    between atoms: C_8  and  O_9
REMARK    3  A    between atoms: O_9  and  C_10
REMARK                            x       y       z     vdW  Elec       q    Type
REMARK                         _______ _______ _______ _____ _____    ______ ____
ROOT
ATOM      1  C   UNL     1       5.267   4.894  15.825  0.00  0.00    +0.000 A 
ATOM      2  C   UNL     1       5.236   6.263  16.102  0.00  0.00    +0.000 A 
ATOM      3  C   UNL     1       5.222   6.723  17.423  0.00  0.00    +0.000 A 
ATOM      4  C   UNL     1       5.243   5.818  18.483  0.00  0.00    +0.000 A 
ATOM      5  C   UNL     1       5.255   4.451  18.209  0.00  0.00    +0.000 A 
ATOM      6  C   UNL     1       5.216   3.989  16.891  0.00  0.00    +0.000 A 
ENDROOT
BRANCH   1   9
ATOM      7  O   UNL     1       7.578   4.815  14.074  0.00  0.00    +0.000 OA
ATOM      8  C   UNL     1       6.494   4.351  13.727  0.00  0.00    +0.000 C 
ATOM      9  N   UNL     1       5.375   4.348  14.526  0.00  0.00    +0.000 N 
ATOM     10  N   UNL     1       6.338   3.773  12.472  0.00  0.00    +0.000 N 
ATOM     11  C   UNL     1       5.117   3.230  11.871  0.00  0.00    +0.000 C 
ATOM     12  C   UNL     1       5.306   1.750  11.533  0.00  0.00    +0.000 C 
ATOM     13  C   UNL     1       6.556   1.527  10.679  0.00  0.00    +0.000 C 
ATOM     14  C   UNL     1       7.787   2.182  11.305  0.00  0.00    +0.000 C 
ATOM     15  C   UNL     1       7.520   3.651  11.622  0.00  0.00    +0.000 C 
ATOM     16  H   UNL     1       4.670   3.667  14.296  0.00  0.00    +0.000 HD
ENDBRANCH   1   9
BRANCH   5  17
ATOM     17  O   UNL     1       5.277   3.576  19.316  0.00  0.00    +0.000 OA
BRANCH  17  18
ATOM     18  C   UNL     1       4.226   2.665  19.494  0.00  0.00    +0.000 C 
ATOM     19  O   UNL     1       4.212   1.531  19.027  0.00  0.00    +0.000 OA
ATOM     20  N   UNL     1       3.188   3.169  20.263  0.00  0.00    +0.000 N 
ATOM     21  C   UNL     1       2.019   2.334  20.508  0.00  0.00    +0.000 C 
ATOM     22  C   UNL     1       0.786   2.962  19.867  0.00  0.00    +0.000 C 
ATOM     23  C   UNL     1       0.594   4.395  20.366  0.00  0.00    +0.000 C 
ATOM     24  C   UNL     1       1.861   5.229  20.160  0.00  0.00    +0.000 C 
ATOM     25  C   UNL     1       3.095   4.540  20.747  0.00  0.00    +0.000 C 
ENDBRANCH  17  18
ENDBRANCH   5  17
TORSDOF 3
ENDMDL
MODEL 6
REMARK VINA RESULT:      -7.4      1.099      1.234
REMARK  Name = 
REMARK  3 active torsions:
REMARK  status: ('A' for Active; 'I' for Inactive)
REMARK    1  A    between atoms: N_3  and  C_4
REMARK    2  A    between atoms: C_8  and  O_9
REMARK    3  A    between atoms: O_9  and  C_10
REMARK                            x       y       z     vdW  Elec       q    Type
REMARK                         _______ _______ _______ _____ _____    ______ ____
ROOT
ATOM      1  C   UNL     1       1.866   5.629  20.571  0.00  0.00    +0.000 A 
ATOM      2  C   UNL     1       1.927   4.438  21.298  0.00  0.00    +0.000 A 
ATOM      3  C   UNL     1       2.334   3.248  20.685  0.00  0.00    +0.000 A 
ATOM      4  C   UNL     1       2.690   3.238  19.337  0.00  0.00    +0.000 A 
ATOM      5  C   UNL     1       2.612   4.422  18.604  0.00  0.00    +0.000 A 
ATOM      6  C   UNL     1       2.154   5.600  19.202  0.00  0.00    +0.000 A 
ENDROOT
BRANCH   1   9
ATOM      7  O   UNL     1       1.663   8.204  19.252  0.00  0.00    +0.000 OA
ATOM      8  C   UNL     1       1.487   8.088  20.464  0.00  0.00    +0.000 C 
ATOM      9  N   UNL     1       1.554   6.888  21.132  0.00  0.00    +0.000 N 
ATOM     10  N   UNL     1       1.187   9.197  21.248  0.00  0.00    +0.000 N 
ATOM     11  C   UNL     1       1.007   9.256  22.700  0.00  0.00    +0.000 C 
ATOM     12  C   UNL     1      -0.394   9.765  23.040  0.00  0.00    +0.000 C 
ATOM     13  C   UNL     1      -0.695  11.090  22.334  0.00  0.00    +0.000 C 
ATOM     14  C   UNL     1      -0.414  11.002  20.834  0.00  0.00    +0.000 C 
ATOM     15  C   UNL     1       0.997  10.480  20.574  0.00  0.00    +0.000 C 
ATOM     16  H   UNL     1       1.075   6.848  22.016  0.00  0.00    +0.000 HD
ENDBRANCH   1   9
BRANCH   5  17
ATOM     17  O   UNL     1       2.983   4.360  17.245  0.00  0.00    +0.000 OA
BRANCH  17  18
ATOM     18  C   UNL     1       4.233   3.828  16.896  0.00  0.00    +0.000 C 
ATOM     19  O   UNL     1       4.506   2.632  16.932  0.00  0.00    +0.000 OA
ATOM     20  N   UNL     1       5.146   4.791  16.497  0.00  0.00    +0.000 N 
ATOM     21  C   UNL     1       6.495   4.378  16.128  0.00  0.00    +0.000 C 
ATOM     22  C   UNL     1       7.506   4.969  17.104  0.00  0.00    +0.000 C 
ATOM     23  C   UNL     1       7.361   6.490  17.171  0.00  0.00    +0.000 C 
ATOM     24  C   UNL     1       5.920   6.896  17.490  0.00  0.00    +0.000 C 
ATOM     25  C   UNL     1       4.920   6.230  16.542  0.00  0.00    +0.000 C 
ENDBRANCH  17  18
ENDBRANCH   5  17
TORSDOF 3
ENDMDL
MODEL 7
REMARK VINA RESULT:      -7.3      2.830      4.593
REMARK  Name = 
REMARK  3 active torsions:
REMARK  status: ('A' for Active; 'I' for Inactive)
REMARK    1  A    between atoms: N_3  and  C_4
REMARK    2  A    between atoms: C_8  and  O_9
REMARK    3  A    between atoms: O_9  and  C_10
REMARK                            x       y       z     vdW  Elec       q    Type
REMARK                         _______ _______ _______ _____ _____    ______ ____
ROOT
ATOM      1  C   UNL     1       1.106   9.599  19.695  0.00  0.00    +0.000 A 
ATOM      2  C   UNL     1       1.397   9.878  18.358  0.00  0.00    +0.000 A 
ATOM      3  C   UNL     1       2.091   8.952  17.571  0.00  0.00    +0.000 A 
ATOM      4  C   UNL     1       2.498   7.734  18.114  0.00  0.00    +0.000 A 
ATOM      5  C   UNL     1       2.225   7.461  19.454  0.00  0.00    +0.000 A 
ATOM      6  C   UNL     1       1.578   8.407  20.255  0.00  0.00    +0.000 A 
ENDROOT
BRANCH   1   9
ATOM      7  O   UNL     1      -0.916  11.542  18.952  0.00  0.00    +0.000 OA
ATOM      8  C   UNL     1      -0.605  11.357  20.128  0.00  0.00    +0.000 C 
ATOM      9  N   UNL     1       0.333  10.436  20.532  0.00  0.00    +0.000 N 
ATOM     10  N   UNL     1      -1.213  12.082  21.146  0.00  0.00    +0.000 N 
ATOM     11  C   UNL     1      -0.928  12.039  22.582  0.00  0.00    +0.000 C 
ATOM     12  C   UNL     1      -2.179  11.624  23.358  0.00  0.00    +0.000 C 
ATOM     13  C   UNL     1      -3.378  12.507  23.001  0.00  0.00    +0.000 C 
ATOM     14  C   UNL     1      -3.584  12.587  21.489  0.00  0.00    +0.000 C 
ATOM     15  C   UNL     1      -2.294  12.997  20.784  0.00  0.00    +0.000 C 
ATOM     16  H   UNL     1       0.267  10.130  21.488  0.00  0.00    +0.000 HD
ENDBRANCH   1   9
BRANCH   5  17
ATOM     17  O   UNL     1       2.656   6.215  19.955  0.00  0.00    +0.000 OA
BRANCH  17  18
ATOM     18  C   UNL     1       1.791   5.113  19.896  0.00  0.00    +0.000 C 
ATOM     19  O   UNL     1       0.852   4.933  20.665  0.00  0.00    +0.000 OA
ATOM     20  N   UNL     1       2.095   4.232  18.870  0.00  0.00    +0.000 N 
ATOM     21  C   UNL     1       1.287   3.029  18.708  0.00  0.00    +0.000 C 
ATOM     22  C   UNL     1       2.144   1.790  18.949  0.00  0.00    +0.000 C 
ATOM     23  C   UNL     1       3.368   1.798  18.032  0.00  0.00    +0.000 C 
ATOM     24  C   UNL     1       4.157   3.103  18.172  0.00  0.00    +0.000 C 
ATOM     25  C   UNL     1       3.259   4.330  17.999  0.00  0.00    +0.000 C 
ENDBRANCH  17  18
ENDBRANCH   5  17
TORSDOF 3
ENDMDL
MODEL 8
REMARK VINA RESULT:      -7.3      2.925      4.654
REMARK  Name = 
REMARK  3 active torsions:
REMARK  status: ('A' for Active; 'I' for Inactive)
REMARK    1  A    between atoms: N_3  and  C_4
REMARK    2  A    between atoms: C_8  and  O_9
REMARK    3  A    between atoms: O_9  and  C_10
REMARK                            x       y       z     vdW  Elec       q    Type
REMARK                         _______ _______ _______ _____ _____    ______ ____
ROOT
ATOM      1  C   UNL     1       1.154   9.592  19.648  0.00  0.00    +0.000 A 
ATOM      2  C   UNL     1       1.505   9.604  18.297  0.00  0.00    +0.000 A 
ATOM      3  C   UNL     1       2.096   8.482  17.703  0.00  0.00    +0.000 A 
ATOM      4  C   UNL     1       2.337   7.334  18.457  0.00  0.00    +0.000 A 
ATOM      5  C   UNL     1       2.005   7.327  19.811  0.00  0.00    +0.000 A 
ATOM      6  C   UNL     1       1.464   8.465  20.417  0.00  0.00    +0.000 A 
ENDROOT
BRANCH   1   9
ATOM      7  O   UNL     1      -1.423  10.761  19.010  0.00  0.00    +0.000 OA
ATOM      8  C   UNL     1      -0.745  11.176  19.948  0.00  0.00    +0.000 C 
ATOM      9  N   UNL     1       0.473  10.644  20.302  0.00  0.00    +0.000 N 
ATOM     10  N   UNL     1      -1.193  12.230  20.737  0.00  0.00    +0.000 N 
ATOM     11  C   UNL     1      -0.499  12.889  21.846  0.00  0.00    +0.000 C 
ATOM     12  C   UNL     1      -1.318  12.766  23.131  0.00  0.00    +0.000 C 
ATOM     13  C   UNL     1      -2.753  13.261  22.930  0.00  0.00    +0.000 C 
ATOM     14  C   UNL     1      -3.406  12.606  21.714  0.00  0.00    +0.000 C 
ATOM     15  C   UNL     1      -2.528  12.762  20.474  0.00  0.00    +0.000 C 
ATOM     16  H   UNL     1       0.771  10.814  21.248  0.00  0.00    +0.000 HD
ENDBRANCH   1   9
BRANCH   5  17
ATOM     17  O   UNL     1       2.269   6.142  20.529  0.00  0.00    +0.000 OA
BRANCH  17  18
ATOM     18  C   UNL     1       3.212   5.232  20.031  0.00  0.00    +0.000 C 
ATOM     19  O   UNL     1       4.336   5.545  19.652  0.00  0.00    +0.000 OA
ATOM     20  N   UNL     1       2.755   3.924  20.012  0.00  0.00    +0.000 N 
ATOM     21  C   UNL     1       3.628   2.876  19.496  0.00  0.00    +0.000 C 
ATOM     22  C   UNL     1       3.021   2.264  18.238  0.00  0.00    +0.000 C 
ATOM     23  C   UNL     1       1.605   1.757  18.518  0.00  0.00    +0.000 C 
ATOM     24  C   UNL     1       0.732   2.859  19.124  0.00  0.00    +0.000 C 
ATOM     25  C   UNL     1       1.398   3.506  20.340  0.00  0.00    +0.000 C 
ENDBRANCH  17  18
ENDBRANCH   5  17
TORSDOF 3
ENDMDL
MODEL 9
REMARK VINA RESULT:      -7.3      1.126      1.616
REMARK  Name = 
REMARK  3 active torsions:
REMARK  status: ('A' for Active; 'I' for Inactive)
REMARK    1  A    between atoms: N_3  and  C_4
REMARK    2  A    between atoms: C_8  and  O_9
REMARK    3  A    between atoms: O_9  and  C_10
REMARK                            x       y       z     vdW  Elec       q    Type
REMARK                         _______ _______ _______ _____ _____    ______ ____
ROOT
ATOM      1  C   UNL     1       2.220   5.026  20.677  0.00  0.00    +0.000 A 
ATOM      2  C   UNL     1       1.785   3.860  21.309  0.00  0.00    +0.000 A 
ATOM      3  C   UNL     1       2.306   2.613  20.945  0.00  0.00    +0.000 A 
ATOM      4  C   UNL     1       3.275   2.521  19.947  0.00  0.00    +0.000 A 
ATOM      5  C   UNL     1       3.699   3.682  19.301  0.00  0.00    +0.000 A 
ATOM      6  C   UNL     1       3.139   4.922  19.627  0.00  0.00    +0.000 A 
ENDROOT
BRANCH   1   9
ATOM      7  O   UNL     1       2.011   7.396  19.019  0.00  0.00    +0.000 OA
ATOM      8  C   UNL     1       1.748   7.428  20.221  0.00  0.00    +0.000 C 
ATOM      9  N   UNL     1       1.814   6.329  21.044  0.00  0.00    +0.000 N 
ATOM     10  N   UNL     1       1.343   8.611  20.828  0.00  0.00    +0.000 N 
ATOM     11  C   UNL     1       1.051   8.847  22.244  0.00  0.00    +0.000 C 
ATOM     12  C   UNL     1      -0.392   9.323  22.415  0.00  0.00    +0.000 C 
ATOM     13  C   UNL     1      -0.693  10.529  21.522  0.00  0.00    +0.000 C 
ATOM     14  C   UNL     1      -0.296  10.264  20.070  0.00  0.00    +0.000 C 
ATOM     15  C   UNL     1       1.151   9.786  19.980  0.00  0.00    +0.000 C 
ATOM     16  H   UNL     1       1.272   6.378  21.890  0.00  0.00    +0.000 HD
ENDBRANCH   1   9
BRANCH   5  17
ATOM     17  O   UNL     1       4.681   3.537  18.299  0.00  0.00    +0.000 OA
BRANCH  17  18
ATOM     18  C   UNL     1       4.934   4.602  17.424  0.00  0.00    +0.000 C 
ATOM     19  O   UNL     1       4.571   4.630  16.252  0.00  0.00    +0.000 OA
ATOM     20  N   UNL     1       5.638   5.640  18.013  0.00  0.00    +0.000 N 
ATOM     21  C   UNL     1       5.989   6.804  17.208  0.00  0.00    +0.000 C 
ATOM     22  C   UNL     1       7.505   6.910  17.079  0.00  0.00    +0.000 C 
ATOM     23  C   UNL     1       8.160   6.939  18.461  0.00  0.00    +0.000 C 
ATOM     24  C   UNL     1       7.718   5.744  19.309  0.00  0.00    +0.000 C 
ATOM     25  C   UNL     1       6.194   5.617  19.360  0.00  0.00    +0.000 C 
ENDBRANCH  17  18
ENDBRANCH   5  17
TORSDOF 3
ENDMDL
