MODEL 1
REMARK VINA RESULT:      -7.7      0.000      0.000
REMARK  Name = 
REMARK  13 active torsions:
REMARK  status: ('A' for Active; 'I' for Inactive)
REMARK    1  A    between atoms: C_2  and  O_3
REMARK    2  A    between atoms: C_2  and  C_4
REMARK    3  A    between atoms: N_8  and  C_9
REMARK    4  A    between atoms: C_9  and  C_10
REMARK    5  A    between atoms: C_10  and  O_11
REMARK    6  A    between atoms: O_11  and  C_12
REMARK    7  A    between atoms: C_12  and  C_13
REMARK    8  A    between atoms: C_13  and  O_14
REMARK    9  A    between atoms: O_14  and  C_15
REMARK   10  A    between atoms: C_15  and  C_16
REMARK   11  A    between atoms: C_16  and  N_17
REMARK   12  A    between atoms: N_17  and  C_18
REMARK   13  A    between atoms: N_17  and  C_24
REMARK                            x       y       z     vdW  Elec       q    Type
REMARK                         _______ _______ _______ _____ _____    ______ ____
ROOT
ATOM      1  O   UNL     1       5.859   6.346  16.098  0.00  0.00    +0.000 OA
ENDROOT
BRANCH   1   2
ATOM      2  C   UNL     1       7.035   6.057  16.812  0.00  0.00    +0.000 C 
BRANCH   2   3
ATOM      3  C   UNL     1       7.453   7.166  17.788  0.00  0.00    +0.000 C 
BRANCH   3   4
ATOM      4  O   UNL     1       8.099   8.250  17.118  0.00  0.00    +0.000 OA
BRANCH   4   5
ATOM      5  C   UNL     1       8.043   9.426  17.906  0.00  0.00    +0.000 C 
BRANCH   5   6
ATOM      6  C   UNL     1       9.107   9.453  18.992  0.00  0.00    +0.000 C 
BRANCH   6  11
ATOM      7  C   UNL     1       9.979  12.984  17.935  0.00  0.00    +0.000 C 
ATOM      8  C   UNL     1      10.002  13.679  19.313  0.00  0.00    +0.000 C 
ATOM      9  C   UNL     1      10.487  12.737  20.413  0.00  0.00    +0.000 C 
ATOM     10  C   UNL     1       9.654  11.452  20.398  0.00  0.00    +0.000 C 
ATOM     11  N   UNL     1       9.760  10.786  19.068  0.00  0.00    +0.000 NA
ATOM     12  C   UNL     1       9.186  11.668  18.032  0.00  0.00    +0.000 C 
BRANCH   7  14
ATOM     13  O   UNL     1      12.031  13.657  16.910  0.00  0.00    +0.000 OA
ATOM     14  C   UNL     1      11.369  12.741  17.373  0.00  0.00    +0.000 C 
BRANCH  14  15
ATOM     15  O   UNL     1      11.900  11.499  17.404  0.00  0.00    +0.000 OA
ATOM     16  H   UNL     1      11.355  10.709  17.468  0.00  0.00    +0.000 HD
ENDBRANCH  14  15
ENDBRANCH   7  14
ENDBRANCH   6  11
ENDBRANCH   5   6
ENDBRANCH   4   5
ENDBRANCH   3   4
ENDBRANCH   2   3
ENDBRANCH   1   2
BRANCH   1  17
ATOM     17  C   UNL     1       4.788   5.645  16.720  0.00  0.00    +0.000 C 
BRANCH  17  18
ATOM     18  C   UNL     1       4.716   5.978  18.224  0.00  0.00    +0.000 C 
BRANCH  18  19
ATOM     19  N   UNL     1       3.341   5.995  18.721  0.00  0.00    +0.000 N 
BRANCH  19  20
ATOM     20  C   UNL     1       2.590   7.237  18.840  0.00  0.00    +0.000 A 
ATOM     21  C   UNL     1       2.477   8.175  17.773  0.00  0.00    +0.000 A 
ATOM     22  C   UNL     1       1.724   9.348  17.919  0.00  0.00    +0.000 A 
ATOM     23  C   UNL     1       1.086   9.633  19.125  0.00  0.00    +0.000 A 
ATOM     24  C   UNL     1       1.201   8.747  20.192  0.00  0.00    +0.000 A 
ATOM     25  C   UNL     1       1.943   7.571  20.055  0.00  0.00    +0.000 A 
ENDBRANCH  19  20
BRANCH  19  26
ATOM     26  C   UNL     1       2.728   4.708  18.967  0.00  0.00    +0.000 A 
ATOM     27  C   UNL     1       3.213   3.851  19.985  0.00  0.00    +0.000 A 
ATOM     28  C   UNL     1       2.620   2.616  20.233  0.00  0.00    +0.000 A 
ATOM     29  C   UNL     1       1.547   2.191  19.456  0.00  0.00    +0.000 A 
ATOM     30  C   UNL     1       1.070   3.000  18.425  0.00  0.00    +0.000 A 
ATOM     31  C   UNL     1       1.651   4.247  18.180  0.00  0.00    +0.000 A 
ENDBRANCH  19  26
ENDBRANCH  18  19
ENDBRANCH  17  18
ENDBRANCH   1  17
TORSDOF 13
ENDMDL
MODEL 2
REMARK VINA RESULT:      -7.7      5.321      8.946
REMARK  Name = 
REMARK  13 active torsions:
REMARK  status: ('A' for Active; 'I' for Inactive)
REMARK    1  A    between atoms: C_2  and  O_3
REMARK    2  A    between atoms: C_2  and  C_4
REMARK    3  A    between atoms: N_8  and  C_9
REMARK    4  A    between atoms: C_9  and  C_10
REMARK    5  A    between atoms: C_10  and  O_11
REMARK    6  A    between atoms: O_11  and  C_12
REMARK    7  A    between atoms: C_12  and  C_13
REMARK    8  A    between atoms: C_13  and  O_14
REMARK    9  A    between atoms: O_14  and  C_15
REMARK   10  A    between atoms: C_15  and  C_16
REMARK   11  A    between atoms: C_16  and  N_17
REMARK   12  A    between atoms: N_17  and  C_18
REMARK   13  A    between atoms: N_17  and  C_24
REMARK                            x       y       z     vdW  Elec       q    Type
REMARK                         _______ _______ _______ _____ _____    ______ ____
ROOT
ATOM      1  O   UNL     1       2.615   8.661  17.364  0.00  0.00    +0.000 OA
ENDROOT
BRANCH   1   2
ATOM      2  C   UNL     1       3.403   7.646  17.934  0.00  0.00    +0.000 C 
BRANCH   2   3
ATOM      3  C   UNL     1       4.388   7.002  16.947  0.00  0.00    +0.000 C 
BRANCH   3   4
ATOM      4  O   UNL     1       4.367   5.575  17.029  0.00  0.00    +0.000 OA
BRANCH   4   5
ATOM      5  C   UNL     1       4.789   5.144  18.311  0.00  0.00    +0.000 C 
BRANCH   5   6
ATOM      6  C   UNL     1       4.698   3.636  18.479  0.00  0.00    +0.000 C 
BRANCH   6  11
ATOM      7  C   UNL     1       1.630   3.871  20.689  0.00  0.00    +0.000 C 
ATOM      8  C   UNL     1       0.547   3.398  19.697  0.00  0.00    +0.000 C 
ATOM      9  C   UNL     1       1.091   2.356  18.721  0.00  0.00    +0.000 C 
ATOM     10  C   UNL     1       2.347   2.897  18.033  0.00  0.00    +0.000 C 
ATOM     11  N   UNL     1       3.384   3.239  19.048  0.00  0.00    +0.000 NA
ATOM     12  C   UNL     1       2.881   4.326  19.913  0.00  0.00    +0.000 C 
BRANCH   7  14
ATOM     13  O   UNL     1       1.134   2.344  22.460  0.00  0.00    +0.000 OA
ATOM     14  C   UNL     1       1.985   2.817  21.722  0.00  0.00    +0.000 C 
BRANCH  14  15
ATOM     15  O   UNL     1       3.257   2.368  21.818  0.00  0.00    +0.000 OA
ATOM     16  H   UNL     1       3.594   1.660  21.261  0.00  0.00    +0.000 HD
ENDBRANCH  14  15
ENDBRANCH   7  14
ENDBRANCH   6  11
ENDBRANCH   5   6
ENDBRANCH   4   5
ENDBRANCH   3   4
ENDBRANCH   2   3
ENDBRANCH   1   2
BRANCH   1  17
ATOM     17  C   UNL     1       1.383   8.707  18.076  0.00  0.00    +0.000 C 
BRANCH  17  18
ATOM     18  C   UNL     1       0.885  10.160  18.215  0.00  0.00    +0.000 C 
BRANCH  18  19
ATOM     19  N   UNL     1      -0.390  10.242  18.926  0.00  0.00    +0.000 N 
BRANCH  19  20
ATOM     20  C   UNL     1      -0.452  10.227  20.381  0.00  0.00    +0.000 A 
ATOM     21  C   UNL     1      -0.334   9.030  21.145  0.00  0.00    +0.000 A 
ATOM     22  C   UNL     1      -0.375   9.061  22.546  0.00  0.00    +0.000 A 
ATOM     23  C   UNL     1      -0.556  10.266  23.222  0.00  0.00    +0.000 A 
ATOM     24  C   UNL     1      -0.700  11.446  22.499  0.00  0.00    +0.000 A 
ATOM     25  C   UNL     1      -0.653  11.429  21.103  0.00  0.00    +0.000 A 
ENDBRANCH  19  20
BRANCH  19  26
ATOM     26  C   UNL     1      -1.568  10.462  18.116  0.00  0.00    +0.000 A 
ATOM     27  C   UNL     1      -2.588  11.350  18.536  0.00  0.00    +0.000 A 
ATOM     28  C   UNL     1      -3.718  11.574  17.756  0.00  0.00    +0.000 A 
ATOM     29  C   UNL     1      -3.875  10.899  16.550  0.00  0.00    +0.000 A 
ATOM     30  C   UNL     1      -2.902   9.994  16.127  0.00  0.00    +0.000 A 
ATOM     31  C   UNL     1      -1.759   9.774  16.899  0.00  0.00    +0.000 A 
ENDBRANCH  19  26
ENDBRANCH  18  19
ENDBRANCH  17  18
ENDBRANCH   1  17
TORSDOF 13
ENDMDL
MODEL 3
REMARK VINA RESULT:      -7.3      1.864      2.461
REMARK  Name = 
REMARK  13 active torsions:
REMARK  status: ('A' for Active; 'I' for Inactive)
REMARK    1  A    between atoms: C_2  and  O_3
REMARK    2  A    between atoms: C_2  and  C_4
REMARK    3  A    between atoms: N_8  and  C_9
REMARK    4  A    between atoms: C_9  and  C_10
REMARK    5  A    between atoms: C_10  and  O_11
REMARK    6  A    between atoms: O_11  and  C_12
REMARK    7  A    between atoms: C_12  and  C_13
REMARK    8  A    between atoms: C_13  and  O_14
REMARK    9  A    between atoms: O_14  and  C_15
REMARK   10  A    between atoms: C_15  and  C_16
REMARK   11  A    between atoms: C_16  and  N_17
REMARK   12  A    between atoms: N_17  and  C_18
REMARK   13  A    between atoms: N_17  and  C_24
REMARK                            x       y       z     vdW  Elec       q    Type
REMARK                         _______ _______ _______ _____ _____    ______ ____
ROOT
ATOM      1  O   UNL     1       6.560   5.587  18.210  0.00  0.00    +0.000 OA
ENDROOT
BRANCH   1   2
ATOM      2  C   UNL     1       6.587   6.871  17.638  0.00  0.00    +0.000 C 
BRANCH   2   3
ATOM      3  C   UNL     1       7.929   7.595  17.807  0.00  0.00    +0.000 C 
BRANCH   3   4
ATOM      4  O   UNL     1       7.781   9.015  17.747  0.00  0.00    +0.000 OA
BRANCH   4   5
ATOM      5  C   UNL     1       8.706   9.649  18.613  0.00  0.00    +0.000 C 
BRANCH   5   6
ATOM      6  C   UNL     1       9.256  10.942  18.033  0.00  0.00    +0.000 C 
BRANCH   6  11
ATOM      7  C   UNL     1      10.330  12.886  21.102  0.00  0.00    +0.000 C 
ATOM      8  C   UNL     1      10.170  14.328  20.577  0.00  0.00    +0.000 C 
ATOM      9  C   UNL     1       9.015  14.442  19.582  0.00  0.00    +0.000 C 
ATOM     10  C   UNL     1       9.189  13.408  18.467  0.00  0.00    +0.000 C 
ATOM     11  N   UNL     1       9.236  12.033  19.042  0.00  0.00    +0.000 NA
ATOM     12  C   UNL     1      10.422  11.909  19.915  0.00  0.00    +0.000 C 
BRANCH   7  14
ATOM     13  O   UNL     1       8.931  13.173  23.018  0.00  0.00    +0.000 OA
ATOM     14  C   UNL     1       9.222  12.478  22.057  0.00  0.00    +0.000 C 
BRANCH  14  15
ATOM     15  O   UNL     1       8.524  11.343  21.833  0.00  0.00    +0.000 OA
ATOM     16  H   UNL     1       8.130  10.833  22.548  0.00  0.00    +0.000 HD
ENDBRANCH  14  15
ENDBRANCH   7  14
ENDBRANCH   6  11
ENDBRANCH   5   6
ENDBRANCH   4   5
ENDBRANCH   3   4
ENDBRANCH   2   3
ENDBRANCH   1   2
BRANCH   1  17
ATOM     17  C   UNL     1       5.265   5.384  18.765  0.00  0.00    +0.000 C 
BRANCH  17  18
ATOM     18  C   UNL     1       4.198   6.152  17.959  0.00  0.00    +0.000 C 
BRANCH  18  19
ATOM     19  N   UNL     1       2.953   6.317  18.708  0.00  0.00    +0.000 N 
BRANCH  19  20
ATOM     20  C   UNL     1       2.314   7.618  18.847  0.00  0.00    +0.000 A 
ATOM     21  C   UNL     1       2.285   8.578  17.795  0.00  0.00    +0.000 A 
ATOM     22  C   UNL     1       1.638   9.810  17.959  0.00  0.00    +0.000 A 
ATOM     23  C   UNL     1       1.028  10.133  19.170  0.00  0.00    +0.000 A 
ATOM     24  C   UNL     1       1.064   9.224  20.223  0.00  0.00    +0.000 A 
ATOM     25  C   UNL     1       1.699   7.989  20.068  0.00  0.00    +0.000 A 
ENDBRANCH  19  20
BRANCH  19  26
ATOM     26  C   UNL     1       2.328   5.106  19.195  0.00  0.00    +0.000 A 
ATOM     27  C   UNL     1       1.724   4.186  18.303  0.00  0.00    +0.000 A 
ATOM     28  C   UNL     1       1.131   3.015  18.765  0.00  0.00    +0.000 A 
ATOM     29  C   UNL     1       1.099   2.743  20.129  0.00  0.00    +0.000 A 
ATOM     30  C   UNL     1       1.656   3.647  21.033  0.00  0.00    +0.000 A 
ATOM     31  C   UNL     1       2.265   4.818  20.575  0.00  0.00    +0.000 A 
ENDBRANCH  19  26
ENDBRANCH  18  19
ENDBRANCH  17  18
ENDBRANCH   1  17
TORSDOF 13
ENDMDL
MODEL 4
REMARK VINA RESULT:      -7.2      5.129      9.293
REMARK  Name = 
REMARK  13 active torsions:
REMARK  status: ('A' for Active; 'I' for Inactive)
REMARK    1  A    between atoms: C_2  and  O_3
REMARK    2  A    between atoms: C_2  and  C_4
REMARK    3  A    between atoms: N_8  and  C_9
REMARK    4  A    between atoms: C_9  and  C_10
REMARK    5  A    between atoms: C_10  and  O_11
REMARK    6  A    between atoms: O_11  and  C_12
REMARK    7  A    between atoms: C_12  and  C_13
REMARK    8  A    between atoms: C_13  and  O_14
REMARK    9  A    between atoms: O_14  and  C_15
REMARK   10  A    between atoms: C_15  and  C_16
REMARK   11  A    between atoms: C_16  and  N_17
REMARK   12  A    between atoms: N_17  and  C_18
REMARK   13  A    between atoms: N_17  and  C_24
REMARK                            x       y       z     vdW  Elec       q    Type
REMARK                         _______ _______ _______ _____ _____    ______ ____
ROOT
ATOM      1  O   UNL     1       1.857   8.137  17.617  0.00  0.00    +0.000 OA
ENDROOT
BRANCH   1   2
ATOM      2  C   UNL     1       3.000   7.509  18.143  0.00  0.00    +0.000 C 
BRANCH   2   3
ATOM      3  C   UNL     1       4.141   7.352  17.128  0.00  0.00    +0.000 C 
BRANCH   3   4
ATOM      4  O   UNL     1       5.007   6.267  17.465  0.00  0.00    +0.000 OA
BRANCH   4   5
ATOM      5  C   UNL     1       4.324   5.031  17.353  0.00  0.00    +0.000 C 
BRANCH   5   6
ATOM      6  C   UNL     1       4.631   4.087  18.504  0.00  0.00    +0.000 C 
BRANCH   6  11
ATOM      7  C   UNL     1       1.501   3.770  20.614  0.00  0.00    +0.000 C 
ATOM      8  C   UNL     1       0.550   3.119  19.587  0.00  0.00    +0.000 C 
ATOM      9  C   UNL     1       1.298   2.193  18.630  0.00  0.00    +0.000 C 
ATOM     10  C   UNL     1       2.461   2.949  17.983  0.00  0.00    +0.000 C 
ATOM     11  N   UNL     1       3.389   3.462  19.031  0.00  0.00    +0.000 NA
ATOM     12  C   UNL     1       2.676   4.440  19.878  0.00  0.00    +0.000 C 
BRANCH   7  14
ATOM     13  O   UNL     1       1.253   2.337  22.511  0.00  0.00    +0.000 OA
ATOM     14  C   UNL     1       2.002   2.789  21.659  0.00  0.00    +0.000 C 
BRANCH  14  15
ATOM     15  O   UNL     1       3.291   2.383  21.638  0.00  0.00    +0.000 OA
ATOM     16  H   UNL     1       3.562   1.518  21.962  0.00  0.00    +0.000 HD
ENDBRANCH  14  15
ENDBRANCH   7  14
ENDBRANCH   6  11
ENDBRANCH   5   6
ENDBRANCH   4   5
ENDBRANCH   3   4
ENDBRANCH   2   3
ENDBRANCH   1   2
BRANCH   1  17
ATOM     17  C   UNL     1       1.890   9.504  18.012  0.00  0.00    +0.000 C 
BRANCH  17  18
ATOM     18  C   UNL     1       0.890   9.768  19.155  0.00  0.00    +0.000 C 
BRANCH  18  19
ATOM     19  N   UNL     1       0.072  10.956  18.911  0.00  0.00    +0.000 N 
BRANCH  19  20
ATOM     20  C   UNL     1      -1.281  10.853  18.384  0.00  0.00    +0.000 A 
ATOM     21  C   UNL     1      -1.640   9.934  17.356  0.00  0.00    +0.000 A 
ATOM     22  C   UNL     1      -2.960   9.849  16.892  0.00  0.00    +0.000 A 
ATOM     23  C   UNL     1      -3.948  10.682  17.414  0.00  0.00    +0.000 A 
ATOM     24  C   UNL     1      -3.620  11.606  18.401  0.00  0.00    +0.000 A 
ATOM     25  C   UNL     1      -2.309  11.695  18.876  0.00  0.00    +0.000 A 
ENDBRANCH  19  20
BRANCH  19  26
ATOM     26  C   UNL     1       0.630  12.221  19.335  0.00  0.00    +0.000 A 
ATOM     27  C   UNL     1       0.791  12.525  20.709  0.00  0.00    +0.000 A 
ATOM     28  C   UNL     1       1.338  13.737  21.122  0.00  0.00    +0.000 A 
ATOM     29  C   UNL     1       1.711  14.689  20.179  0.00  0.00    +0.000 A 
ATOM     30  C   UNL     1       1.533  14.430  18.821  0.00  0.00    +0.000 A 
ATOM     31  C   UNL     1       0.998  13.211  18.398  0.00  0.00    +0.000 A 
ENDBRANCH  19  26
ENDBRANCH  18  19
ENDBRANCH  17  18
ENDBRANCH   1  17
TORSDOF 13
ENDMDL
MODEL 5
REMARK VINA RESULT:      -7.2      1.473      1.858
REMARK  Name = 
REMARK  13 active torsions:
REMARK  status: ('A' for Active; 'I' for Inactive)
REMARK    1  A    between atoms: C_2  and  O_3
REMARK    2  A    between atoms: C_2  and  C_4
REMARK    3  A    between atoms: N_8  and  C_9
REMARK    4  A    between atoms: C_9  and  C_10
REMARK    5  A    between atoms: C_10  and  O_11
REMARK    6  A    between atoms: O_11  and  C_12
REMARK    7  A    between atoms: C_12  and  C_13
REMARK    8  A    between atoms: C_13  and  O_14
REMARK    9  A    between atoms: O_14  and  C_15
REMARK   10  A    between atoms: C_15  and  C_16
REMARK   11  A    between atoms: C_16  and  N_17
REMARK   12  A    between atoms: N_17  and  C_18
REMARK   13  A    between atoms: N_17  and  C_24
REMARK                            x       y       z     vdW  Elec       q    Type
REMARK                         _______ _______ _______ _____ _____    ______ ____
ROOT
ATOM      1  O   UNL     1       5.630   6.724  17.068  0.00  0.00    +0.000 OA
ENDROOT
BRANCH   1   2
ATOM      2  C   UNL     1       6.783   6.849  17.864  0.00  0.00    +0.000 C 
BRANCH   2   3
ATOM      3  C   UNL     1       7.795   7.871  17.327  0.00  0.00    +0.000 C 
BRANCH   3   4
ATOM      4  O   UNL     1       7.722   9.113  18.030  0.00  0.00    +0.000 OA
BRANCH   4   5
ATOM      5  C   UNL     1       9.006   9.504  18.483  0.00  0.00    +0.000 C 
BRANCH   5   6
ATOM      6  C   UNL     1       8.960  10.732  19.379  0.00  0.00    +0.000 C 
BRANCH   6  11
ATOM      7  C   UNL     1       9.968  14.353  18.912  0.00  0.00    +0.000 C 
ATOM      8  C   UNL     1      11.184  14.175  17.980  0.00  0.00    +0.000 C 
ATOM      9  C   UNL     1      11.010  12.980  17.044  0.00  0.00    +0.000 C 
ATOM     10  C   UNL     1      10.687  11.727  17.862  0.00  0.00    +0.000 C 
ATOM     11  N   UNL     1       9.445  11.939  18.660  0.00  0.00    +0.000 NA
ATOM     12  C   UNL     1       9.671  13.026  19.635  0.00  0.00    +0.000 C 
BRANCH   7  14
ATOM     13  O   UNL     1       8.758  15.918  17.570  0.00  0.00    +0.000 OA
ATOM     14  C   UNL     1       8.736  14.864  18.186  0.00  0.00    +0.000 C 
BRANCH  14  15
ATOM     15  O   UNL     1       7.598  14.134  18.194  0.00  0.00    +0.000 OA
ATOM     16  H   UNL     1       6.954  14.195  18.906  0.00  0.00    +0.000 HD
ENDBRANCH  14  15
ENDBRANCH   7  14
ENDBRANCH   6  11
ENDBRANCH   5   6
ENDBRANCH   4   5
ENDBRANCH   3   4
ENDBRANCH   2   3
ENDBRANCH   1   2
BRANCH   1  17
ATOM     17  C   UNL     1       4.843   5.668  17.606  0.00  0.00    +0.000 C 
BRANCH  17  18
ATOM     18  C   UNL     1       4.478   5.950  19.077  0.00  0.00    +0.000 C 
BRANCH  18  19
ATOM     19  N   UNL     1       3.037   6.111  19.268  0.00  0.00    +0.000 N 
BRANCH  19  20
ATOM     20  C   UNL     1       2.393   7.411  19.148  0.00  0.00    +0.000 A 
ATOM     21  C   UNL     1       2.441   8.187  17.954  0.00  0.00    +0.000 A 
ATOM     22  C   UNL     1       1.787   9.424  17.869  0.00  0.00    +0.000 A 
ATOM     23  C   UNL     1       1.093   9.933  18.966  0.00  0.00    +0.000 A 
ATOM     24  C   UNL     1       1.052   9.207  20.152  0.00  0.00    +0.000 A 
ATOM     25  C   UNL     1       1.693   7.970  20.245  0.00  0.00    +0.000 A 
ENDBRANCH  19  20
BRANCH  19  26
ATOM     26  C   UNL     1       2.273   4.897  19.458  0.00  0.00    +0.000 A 
ATOM     27  C   UNL     1       2.070   4.356  20.751  0.00  0.00    +0.000 A 
ATOM     28  C   UNL     1       1.326   3.194  20.940  0.00  0.00    +0.000 A 
ATOM     29  C   UNL     1       0.789   2.527  19.844  0.00  0.00    +0.000 A 
ATOM     30  C   UNL     1       1.001   3.018  18.557  0.00  0.00    +0.000 A 
ATOM     31  C   UNL     1       1.735   4.191  18.361  0.00  0.00    +0.000 A 
ENDBRANCH  19  26
ENDBRANCH  18  19
ENDBRANCH  17  18
ENDBRANCH   1  17
TORSDOF 13
ENDMDL
MODEL 6
REMARK VINA RESULT:      -7.1      4.676      7.481
REMARK  Name = 
REMARK  13 active torsions:
REMARK  status: ('A' for Active; 'I' for Inactive)
REMARK    1  A    between atoms: C_2  and  O_3
REMARK    2  A    between atoms: C_2  and  C_4
REMARK    3  A    between atoms: N_8  and  C_9
REMARK    4  A    between atoms: C_9  and  C_10
REMARK    5  A    between atoms: C_10  and  O_11
REMARK    6  A    between atoms: O_11  and  C_12
REMARK    7  A    between atoms: C_12  and  C_13
REMARK    8  A    between atoms: C_13  and  O_14
REMARK    9  A    between atoms: O_14  and  C_15
REMARK   10  A    between atoms: C_15  and  C_16
REMARK   11  A    between atoms: C_16  and  N_17
REMARK   12  A    between atoms: N_17  and  C_18
REMARK   13  A    between atoms: N_17  and  C_24
REMARK                            x       y       z     vdW  Elec       q    Type
REMARK                         _______ _______ _______ _____ _____    ______ ____
ROOT
ATOM      1  O   UNL     1       2.242   8.726  18.877  0.00  0.00    +0.000 OA
ENDROOT
BRANCH   1   2
ATOM      2  C   UNL     1       2.470   7.376  18.556  0.00  0.00    +0.000 C 
BRANCH   2   3
ATOM      3  C   UNL     1       2.311   6.422  19.749  0.00  0.00    +0.000 C 
BRANCH   3   4
ATOM      4  O   UNL     1       2.167   5.064  19.329  0.00  0.00    +0.000 OA
BRANCH   4   5
ATOM      5  C   UNL     1       3.217   4.269  19.851  0.00  0.00    +0.000 C 
BRANCH   5   6
ATOM      6  C   UNL     1       3.935   3.469  18.776  0.00  0.00    +0.000 C 
BRANCH   6  11
ATOM      7  C   UNL     1       5.650   5.673  16.217  0.00  0.00    +0.000 C 
ATOM      8  C   UNL     1       6.465   6.589  17.154  0.00  0.00    +0.000 C 
ATOM      9  C   UNL     1       6.919   5.849  18.412  0.00  0.00    +0.000 C 
ATOM     10  C   UNL     1       5.712   5.205  19.097  0.00  0.00    +0.000 C 
ATOM     11  N   UNL     1       5.034   4.260  18.164  0.00  0.00    +0.000 NA
ATOM     12  C   UNL     1       4.506   5.011  17.007  0.00  0.00    +0.000 C 
BRANCH   7  14
ATOM     13  O   UNL     1       6.021   3.858  14.707  0.00  0.00    +0.000 OA
ATOM     14  C   UNL     1       6.505   4.629  15.521  0.00  0.00    +0.000 C 
BRANCH  14  15
ATOM     15  O   UNL     1       7.830   4.561  15.780  0.00  0.00    +0.000 OA
ATOM     16  H   UNL     1       8.247   3.762  16.117  0.00  0.00    +0.000 HD
ENDBRANCH  14  15
ENDBRANCH   7  14
ENDBRANCH   6  11
ENDBRANCH   5   6
ENDBRANCH   4   5
ENDBRANCH   3   4
ENDBRANCH   2   3
ENDBRANCH   1   2
BRANCH   1  17
ATOM     17  C   UNL     1       1.386   9.273  17.880  0.00  0.00    +0.000 C 
BRANCH  17  18
ATOM     18  C   UNL     1       0.809  10.628  18.337  0.00  0.00    +0.000 C 
BRANCH  18  19
ATOM     19  N   UNL     1      -0.468  10.477  19.034  0.00  0.00    +0.000 N 
BRANCH  19  20
ATOM     20  C   UNL     1      -0.533  10.344  20.482  0.00  0.00    +0.000 A 
ATOM     21  C   UNL     1      -0.398   9.091  21.148  0.00  0.00    +0.000 A 
ATOM     22  C   UNL     1      -0.443   9.007  22.546  0.00  0.00    +0.000 A 
ATOM     23  C   UNL     1      -0.645  10.151  23.317  0.00  0.00    +0.000 A 
ATOM     24  C   UNL     1      -0.806  11.384  22.692  0.00  0.00    +0.000 A 
ATOM     25  C   UNL     1      -0.755  11.480  21.299  0.00  0.00    +0.000 A 
ENDBRANCH  19  20
BRANCH  19  26
ATOM     26  C   UNL     1      -1.662  10.593  18.225  0.00  0.00    +0.000 A 
ATOM     27  C   UNL     1      -1.814   9.840  17.035  0.00  0.00    +0.000 A 
ATOM     28  C   UNL     1      -2.966   9.939  16.260  0.00  0.00    +0.000 A 
ATOM     29  C   UNL     1      -3.982  10.812  16.633  0.00  0.00    +0.000 A 
ATOM     30  C   UNL     1      -3.845  11.591  17.781  0.00  0.00    +0.000 A 
ATOM     31  C   UNL     1      -2.698  11.486  18.572  0.00  0.00    +0.000 A 
ENDBRANCH  19  26
ENDBRANCH  18  19
ENDBRANCH  17  18
ENDBRANCH   1  17
TORSDOF 13
ENDMDL
MODEL 7
REMARK VINA RESULT:      -7.1      1.708      2.064
REMARK  Name = 
REMARK  13 active torsions:
REMARK  status: ('A' for Active; 'I' for Inactive)
REMARK    1  A    between atoms: C_2  and  O_3
REMARK    2  A    between atoms: C_2  and  C_4
REMARK    3  A    between atoms: N_8  and  C_9
REMARK    4  A    between atoms: C_9  and  C_10
REMARK    5  A    between atoms: C_10  and  O_11
REMARK    6  A    between atoms: O_11  and  C_12
REMARK    7  A    between atoms: C_12  and  C_13
REMARK    8  A    between atoms: C_13  and  O_14
REMARK    9  A    between atoms: O_14  and  C_15
REMARK   10  A    between atoms: C_15  and  C_16
REMARK   11  A    between atoms: C_16  and  N_17
REMARK   12  A    between atoms: N_17  and  C_18
REMARK   13  A    between atoms: N_17  and  C_24
REMARK                            x       y       z     vdW  Elec       q    Type
REMARK                         _______ _______ _______ _____ _____    ______ ____
ROOT
ATOM      1  O   UNL     1       6.751   6.319  17.322  0.00  0.00    +0.000 OA
ENDROOT
BRANCH   1   2
ATOM      2  C   UNL     1       7.843   7.153  17.620  0.00  0.00    +0.000 C 
BRANCH   2   3
ATOM      3  C   UNL     1       7.461   8.629  17.804  0.00  0.00    +0.000 C 
BRANCH   3   4
ATOM      4  O   UNL     1       8.597   9.490  17.704  0.00  0.00    +0.000 OA
BRANCH   4   5
ATOM      5  C   UNL     1       8.948  10.000  18.979  0.00  0.00    +0.000 C 
BRANCH   5   6
ATOM      6  C   UNL     1      10.213  10.842  18.943  0.00  0.00    +0.000 C 
BRANCH   6  11
ATOM      7  C   UNL     1       8.656  14.294  18.864  0.00  0.00    +0.000 C 
ATOM      8  C   UNL     1       9.860  15.121  18.369  0.00  0.00    +0.000 C 
ATOM      9  C   UNL     1      10.742  14.319  17.413  0.00  0.00    +0.000 C 
ATOM     10  C   UNL     1      11.146  12.996  18.070  0.00  0.00    +0.000 C 
ATOM     11  N   UNL     1       9.932  12.209  18.431  0.00  0.00    +0.000 NA
ATOM     12  C   UNL     1       9.149  12.954  19.439  0.00  0.00    +0.000 C 
BRANCH   7  14
ATOM     13  O   UNL     1       6.748  14.908  17.562  0.00  0.00    +0.000 OA
ATOM     14  C   UNL     1       7.608  14.072  17.788  0.00  0.00    +0.000 C 
BRANCH  14  15
ATOM     15  O   UNL     1       7.637  12.944  17.043  0.00  0.00    +0.000 OA
ATOM     16  H   UNL     1       7.268  12.906  16.155  0.00  0.00    +0.000 HD
ENDBRANCH  14  15
ENDBRANCH   7  14
ENDBRANCH   6  11
ENDBRANCH   5   6
ENDBRANCH   4   5
ENDBRANCH   3   4
ENDBRANCH   2   3
ENDBRANCH   1   2
BRANCH   1  17
ATOM     17  C   UNL     1       5.565   7.099  17.431  0.00  0.00    +0.000 C 
BRANCH  17  18
ATOM     18  C   UNL     1       4.341   6.308  16.926  0.00  0.00    +0.000 C 
BRANCH  18  19
ATOM     19  N   UNL     1       3.337   6.117  17.971  0.00  0.00    +0.000 N 
BRANCH  19  20
ATOM     20  C   UNL     1       2.582   7.236  18.515  0.00  0.00    +0.000 A 
ATOM     21  C   UNL     1       2.211   8.368  17.733  0.00  0.00    +0.000 A 
ATOM     22  C   UNL     1       1.462   9.415  18.287  0.00  0.00    +0.000 A 
ATOM     23  C   UNL     1       1.082   9.380  19.628  0.00  0.00    +0.000 A 
ATOM     24  C   UNL     1       1.452   8.298  20.421  0.00  0.00    +0.000 A 
ATOM     25  C   UNL     1       2.192   7.246  19.877  0.00  0.00    +0.000 A 
ENDBRANCH  19  20
BRANCH  19  26
ATOM     26  C   UNL     1       3.048   4.749  18.345  0.00  0.00    +0.000 A 
ATOM     27  C   UNL     1       3.944   4.007  19.152  0.00  0.00    +0.000 A 
ATOM     28  C   UNL     1       3.665   2.695  19.523  0.00  0.00    +0.000 A 
ATOM     29  C   UNL     1       2.501   2.079  19.078  0.00  0.00    +0.000 A 
ATOM     30  C   UNL     1       1.616   2.774  18.255  0.00  0.00    +0.000 A 
ATOM     31  C   UNL     1       1.883   4.096  17.890  0.00  0.00    +0.000 A 
ENDBRANCH  19  26
ENDBRANCH  18  19
ENDBRANCH  17  18
ENDBRANCH   1  17
TORSDOF 13
ENDMDL
MODEL 8
REMARK VINA RESULT:      -7.1      5.357      8.548
REMARK  Name = 
REMARK  13 active torsions:
REMARK  status: ('A' for Active; 'I' for Inactive)
REMARK    1  A    between atoms: C_2  and  O_3
REMARK    2  A    between atoms: C_2  and  C_4
REMARK    3  A    between atoms: N_8  and  C_9
REMARK    4  A    between atoms: C_9  and  C_10
REMARK    5  A    between atoms: C_10  and  O_11
REMARK    6  A    between atoms: O_11  and  C_12
REMARK    7  A    between atoms: C_12  and  C_13
REMARK    8  A    between atoms: C_13  and  O_14
REMARK    9  A    between atoms: O_14  and  C_15
REMARK   10  A    between atoms: C_15  and  C_16
REMARK   11  A    between atoms: C_16  and  N_17
REMARK   12  A    between atoms: N_17  and  C_18
REMARK   13  A    between atoms: N_17  and  C_24
REMARK                            x       y       z     vdW  Elec       q    Type
REMARK                         _______ _______ _______ _____ _____    ______ ____
ROOT
ATOM      1  O   UNL     1       1.985   8.575  18.652  0.00  0.00    +0.000 OA
ENDROOT
BRANCH   1   2
ATOM      2  C   UNL     1       1.953   9.763  17.899  0.00  0.00    +0.000 C 
BRANCH   2   3
ATOM      3  C   UNL     1       0.953  10.801  18.425  0.00  0.00    +0.000 C 
BRANCH   3   4
ATOM      4  O   UNL     1      -0.338  10.231  18.651  0.00  0.00    +0.000 OA
BRANCH   4   5
ATOM      5  C   UNL     1      -1.346  11.035  18.065  0.00  0.00    +0.000 C 
BRANCH   5   6
ATOM      6  C   UNL     1      -1.559  12.342  18.813  0.00  0.00    +0.000 C 
BRANCH   6  11
ATOM      7  C   UNL     1      -0.603  12.176  22.474  0.00  0.00    +0.000 C 
ATOM      8  C   UNL     1      -1.905  12.698  23.116  0.00  0.00    +0.000 C 
ATOM      9  C   UNL     1      -3.136  12.291  22.308  0.00  0.00    +0.000 C 
ATOM     10  C   UNL     1      -2.965  12.725  20.850  0.00  0.00    +0.000 C 
ATOM     11  N   UNL     1      -1.741  12.103  20.268  0.00  0.00    +0.000 NA
ATOM     12  C   UNL     1      -0.551  12.595  20.993  0.00  0.00    +0.000 C 
BRANCH   7  14
ATOM     13  O   UNL     1      -0.218  10.166  23.710  0.00  0.00    +0.000 OA
ATOM     14  C   UNL     1      -0.433  10.674  22.620  0.00  0.00    +0.000 C 
BRANCH  14  15
ATOM     15  O   UNL     1      -0.546   9.874  21.536  0.00  0.00    +0.000 OA
ATOM     16  H   UNL     1      -0.084   9.032  21.470  0.00  0.00    +0.000 HD
ENDBRANCH  14  15
ENDBRANCH   7  14
ENDBRANCH   6  11
ENDBRANCH   5   6
ENDBRANCH   4   5
ENDBRANCH   3   4
ENDBRANCH   2   3
ENDBRANCH   1   2
BRANCH   1  17
ATOM     17  C   UNL     1       3.012   7.748  18.117  0.00  0.00    +0.000 C 
BRANCH  17  18
ATOM     18  C   UNL     1       2.450   6.369  17.713  0.00  0.00    +0.000 C 
BRANCH  18  19
ATOM     19  N   UNL     1       3.181   5.269  18.339  0.00  0.00    +0.000 N 
BRANCH  19  20
ATOM     20  C   UNL     1       2.540   4.372  19.290  0.00  0.00    +0.000 A 
ATOM     21  C   UNL     1       1.738   3.266  18.885  0.00  0.00    +0.000 A 
ATOM     22  C   UNL     1       1.157   2.411  19.831  0.00  0.00    +0.000 A 
ATOM     23  C   UNL     1       1.335   2.639  21.195  0.00  0.00    +0.000 A 
ATOM     24  C   UNL     1       2.093   3.727  21.618  0.00  0.00    +0.000 A 
ATOM     25  C   UNL     1       2.683   4.582  20.684  0.00  0.00    +0.000 A 
ENDBRANCH  19  20
BRANCH  19  26
ATOM     26  C   UNL     1       4.532   5.045  17.872  0.00  0.00    +0.000 A 
ATOM     27  C   UNL     1       4.780   4.476  16.598  0.00  0.00    +0.000 A 
ATOM     28  C   UNL     1       6.077   4.268  16.140  0.00  0.00    +0.000 A 
ATOM     29  C   UNL     1       7.161   4.594  16.949  0.00  0.00    +0.000 A 
ATOM     30  C   UNL     1       6.947   5.124  18.220  0.00  0.00    +0.000 A 
ATOM     31  C   UNL     1       5.647   5.348  18.681  0.00  0.00    +0.000 A 
ENDBRANCH  19  26
ENDBRANCH  18  19
ENDBRANCH  17  18
ENDBRANCH   1  17
TORSDOF 13
ENDMDL
MODEL 9
REMARK VINA RESULT:      -7.0      5.238      8.862
REMARK  Name = 
REMARK  13 active torsions:
REMARK  status: ('A' for Active; 'I' for Inactive)
REMARK    1  A    between atoms: C_2  and  O_3
REMARK    2  A    between atoms: C_2  and  C_4
REMARK    3  A    between atoms: N_8  and  C_9
REMARK    4  A    between atoms: C_9  and  C_10
REMARK    5  A    between atoms: C_10  and  O_11
REMARK    6  A    between atoms: O_11  and  C_12
REMARK    7  A    between atoms: C_12  and  C_13
REMARK    8  A    between atoms: C_13  and  O_14
REMARK    9  A    between atoms: O_14  and  C_15
REMARK   10  A    between atoms: C_15  and  C_16
REMARK   11  A    between atoms: C_16  and  N_17
REMARK   12  A    between atoms: N_17  and  C_18
REMARK   13  A    between atoms: N_17  and  C_24
REMARK                            x       y       z     vdW  Elec       q    Type
REMARK                         _______ _______ _______ _____ _____    ______ ____
ROOT
ATOM      1  O   UNL     1       2.536   8.958  17.615  0.00  0.00    +0.000 OA
ENDROOT
BRANCH   1   2
ATOM      2  C   UNL     1       2.747   7.594  17.883  0.00  0.00    +0.000 C 
BRANCH   2   3
ATOM      3  C   UNL     1       4.186   7.128  17.619  0.00  0.00    +0.000 C 
BRANCH   3   4
ATOM      4  O   UNL     1       4.223   5.913  16.868  0.00  0.00    +0.000 OA
BRANCH   4   5
ATOM      5  C   UNL     1       4.902   4.902  17.592  0.00  0.00    +0.000 C 
BRANCH   5   6
ATOM      6  C   UNL     1       4.540   4.897  19.068  0.00  0.00    +0.000 C 
BRANCH   6  11
ATOM      7  C   UNL     1       1.291   3.652  20.567  0.00  0.00    +0.000 C 
ATOM      8  C   UNL     1       0.728   2.860  19.368  0.00  0.00    +0.000 C 
ATOM      9  C   UNL     1       1.842   2.223  18.538  0.00  0.00    +0.000 C 
ATOM     10  C   UNL     1       2.860   3.292  18.132  0.00  0.00    +0.000 C 
ATOM     11  N   UNL     1       3.433   3.944  19.345  0.00  0.00    +0.000 NA
ATOM     12  C   UNL     1       2.358   4.648  20.074  0.00  0.00    +0.000 C 
BRANCH   7  14
ATOM     13  O   UNL     1       1.114   2.253  22.496  0.00  0.00    +0.000 OA
ATOM     14  C   UNL     1       1.847   2.756  21.659  0.00  0.00    +0.000 C 
BRANCH  14  15
ATOM     15  O   UNL     1       3.170   2.483  21.698  0.00  0.00    +0.000 OA
ATOM     16  H   UNL     1       3.601   2.144  22.489  0.00  0.00    +0.000 HD
ENDBRANCH  14  15
ENDBRANCH   7  14
ENDBRANCH   6  11
ENDBRANCH   5   6
ENDBRANCH   4   5
ENDBRANCH   3   4
ENDBRANCH   2   3
ENDBRANCH   1   2
BRANCH   1  17
ATOM     17  C   UNL     1       1.609   9.452  18.576  0.00  0.00    +0.000 C 
BRANCH  17  18
ATOM     18  C   UNL     1       0.601  10.417  17.918  0.00  0.00    +0.000 C 
BRANCH  18  19
ATOM     19  N   UNL     1      -0.628  10.548  18.699  0.00  0.00    +0.000 N 
BRANCH  19  20
ATOM     20  C   UNL     1      -1.924  10.715  18.057  0.00  0.00    +0.000 A 
ATOM     21  C   UNL     1      -2.255  10.097  16.817  0.00  0.00    +0.000 A 
ATOM     22  C   UNL     1      -3.523  10.264  16.242  0.00  0.00    +0.000 A 
ATOM     23  C   UNL     1      -4.483  11.059  16.865  0.00  0.00    +0.000 A 
ATOM     24  C   UNL     1      -4.177  11.695  18.065  0.00  0.00    +0.000 A 
ATOM     25  C   UNL     1      -2.919  11.531  18.650  0.00  0.00    +0.000 A 
ENDBRANCH  19  20
BRANCH  19  26
ATOM     26  C   UNL     1      -0.504  10.378  20.130  0.00  0.00    +0.000 A 
ATOM     27  C   UNL     1      -0.399   9.088  20.707  0.00  0.00    +0.000 A 
ATOM     28  C   UNL     1      -0.269   8.919  22.082  0.00  0.00    +0.000 A 
ATOM     29  C   UNL     1      -0.268  10.029  22.922  0.00  0.00    +0.000 A 
ATOM     30  C   UNL     1      -0.404  11.308  22.385  0.00  0.00    +0.000 A 
ATOM     31  C   UNL     1      -0.521  11.486  21.004  0.00  0.00    +0.000 A 
ENDBRANCH  19  26
ENDBRANCH  18  19
ENDBRANCH  17  18
ENDBRANCH   1  17
TORSDOF 13
ENDMDL
