MODEL 1
REMARK VINA RESULT:      -7.4      0.000      0.000
REMARK  Name = 
REMARK  3 active torsions:
REMARK  status: ('A' for Active; 'I' for Inactive)
REMARK    1  A    between atoms: C_1  and  O_2
REMARK    2  A    between atoms: O_2  and  C_3
REMARK    3  A    between atoms: N_10  and  C_11
REMARK                            x       y       z     vdW  Elec       q    Type
REMARK                         _______ _______ _______ _____ _____    ______ ____
ROOT
ATOM      1  C   UNL     1       1.843   4.232  20.309  0.00  0.00    +0.000 A 
ATOM      2  C   UNL     1       0.727   3.393  20.290  0.00  0.00    +0.000 A 
ATOM      3  C   UNL     1       0.648   2.340  19.370  0.00  0.00    +0.000 A 
ATOM      4  C   UNL     1       1.669   2.121  18.446  0.00  0.00    +0.000 A 
ATOM      5  C   UNL     1       2.771   2.975  18.420  0.00  0.00    +0.000 A 
ATOM      6  C   UNL     1       2.851   4.015  19.360  0.00  0.00    +0.000 A 
ATOM      7  C   UNL     1       4.033   4.893  19.304  0.00  0.00    +0.000 C 
ATOM      8  N   UNL     1       4.759   4.980  18.235  0.00  0.00    +0.000 N 
ATOM      9  C   UNL     1       4.470   4.146  17.019  0.00  0.00    +0.000 C 
ATOM     10  C   UNL     1       3.905   2.789  17.454  0.00  0.00    +0.000 C 
ENDROOT
BRANCH   8  11
ATOM     11  C   UNL     1       5.939   5.787  18.236  0.00  0.00    +0.000 A 
ATOM     12  C   UNL     1       6.981   5.565  19.152  0.00  0.00    +0.000 A 
ATOM     13  C   UNL     1       8.129   6.366  19.122  0.00  0.00    +0.000 A 
ATOM     14  C   UNL     1       8.229   7.419  18.214  0.00  0.00    +0.000 A 
ATOM     15  C   UNL     1       7.199   7.662  17.310  0.00  0.00    +0.000 A 
ATOM     16  C   UNL     1       6.076   6.836  17.312  0.00  0.00    +0.000 A 
ATOM     17  F   UNL     1       5.080   7.132  16.462  0.00  0.00    +0.000 F 
ENDBRANCH   8  11
BRANCH   1  19
ATOM     18  C   UNL     1       1.403   6.526  20.735  0.00  0.00    +0.000 C 
ATOM     19  O   UNL     1       2.002   5.300  21.148  0.00  0.00    +0.000 OA
ENDBRANCH   1  19
TORSDOF 2
ENDMDL
MODEL 2
REMARK VINA RESULT:      -7.2      2.291      3.274
REMARK  Name = 
REMARK  3 active torsions:
REMARK  status: ('A' for Active; 'I' for Inactive)
REMARK    1  A    between atoms: C_1  and  O_2
REMARK    2  A    between atoms: O_2  and  C_3
REMARK    3  A    between atoms: N_10  and  C_11
REMARK                            x       y       z     vdW  Elec       q    Type
REMARK                         _______ _______ _______ _____ _____    ______ ____
ROOT
ATOM      1  C   UNL     1       3.639   2.547  20.661  0.00  0.00    +0.000 A 
ATOM      2  C   UNL     1       2.645   2.389  21.629  0.00  0.00    +0.000 A 
ATOM      3  C   UNL     1       1.357   2.894  21.412  0.00  0.00    +0.000 A 
ATOM      4  C   UNL     1       1.048   3.580  20.237  0.00  0.00    +0.000 A 
ATOM      5  C   UNL     1       2.039   3.786  19.278  0.00  0.00    +0.000 A 
ATOM      6  C   UNL     1       3.321   3.258  19.495  0.00  0.00    +0.000 A 
ATOM      7  C   UNL     1       4.340   3.493  18.457  0.00  0.00    +0.000 C 
ATOM      8  N   UNL     1       4.213   4.448  17.593  0.00  0.00    +0.000 N 
ATOM      9  C   UNL     1       2.994   5.327  17.564  0.00  0.00    +0.000 C 
ATOM     10  C   UNL     1       1.768   4.511  17.991  0.00  0.00    +0.000 C 
ENDROOT
BRANCH   8  11
ATOM     11  C   UNL     1       5.184   4.607  16.554  0.00  0.00    +0.000 A 
ATOM     12  C   UNL     1       5.002   4.032  15.284  0.00  0.00    +0.000 A 
ATOM     13  C   UNL     1       5.966   4.213  14.285  0.00  0.00    +0.000 A 
ATOM     14  C   UNL     1       7.134   4.925  14.554  0.00  0.00    +0.000 A 
ATOM     15  C   UNL     1       7.336   5.486  15.811  0.00  0.00    +0.000 A 
ATOM     16  C   UNL     1       6.356   5.343  16.792  0.00  0.00    +0.000 A 
ATOM     17  F   UNL     1       6.607   5.854  18.008  0.00  0.00    +0.000 F 
ENDBRANCH   8  11
BRANCH   1  19
ATOM     18  C   UNL     1       5.127   0.702  20.799  0.00  0.00    +0.000 C 
ATOM     19  O   UNL     1       4.929   2.114  20.790  0.00  0.00    +0.000 OA
ENDBRANCH   1  19
TORSDOF 2
ENDMDL
MODEL 3
REMARK VINA RESULT:      -7.2      2.567      5.394
REMARK  Name = 
REMARK  3 active torsions:
REMARK  status: ('A' for Active; 'I' for Inactive)
REMARK    1  A    between atoms: C_1  and  O_2
REMARK    2  A    between atoms: O_2  and  C_3
REMARK    3  A    between atoms: N_10  and  C_11
REMARK                            x       y       z     vdW  Elec       q    Type
REMARK                         _______ _______ _______ _____ _____    ______ ____
ROOT
ATOM      1  C   UNL     1       6.147   6.229  16.506  0.00  0.00    +0.000 A 
ATOM      2  C   UNL     1       6.887   5.244  15.847  0.00  0.00    +0.000 A 
ATOM      3  C   UNL     1       6.357   3.962  15.666  0.00  0.00    +0.000 A 
ATOM      4  C   UNL     1       5.092   3.636  16.155  0.00  0.00    +0.000 A 
ATOM      5  C   UNL     1       4.356   4.593  16.854  0.00  0.00    +0.000 A 
ATOM      6  C   UNL     1       4.887   5.883  17.012  0.00  0.00    +0.000 A 
ATOM      7  C   UNL     1       4.078   6.867  17.752  0.00  0.00    +0.000 C 
ATOM      8  N   UNL     1       3.132   6.495  18.554  0.00  0.00    +0.000 N 
ATOM      9  C   UNL     1       2.770   5.046  18.726  0.00  0.00    +0.000 C 
ATOM     10  C   UNL     1       2.986   4.307  17.400  0.00  0.00    +0.000 C 
ENDROOT
BRANCH   8  11
ATOM     11  C   UNL     1       2.318   7.476  19.204  0.00  0.00    +0.000 A 
ATOM     12  C   UNL     1       1.935   7.339  20.549  0.00  0.00    +0.000 A 
ATOM     13  C   UNL     1       1.146   8.320  21.160  0.00  0.00    +0.000 A 
ATOM     14  C   UNL     1       0.696   9.418  20.428  0.00  0.00    +0.000 A 
ATOM     15  C   UNL     1       1.054   9.560  19.091  0.00  0.00    +0.000 A 
ATOM     16  C   UNL     1       1.876   8.605  18.496  0.00  0.00    +0.000 A 
ATOM     17  F   UNL     1       2.159   8.747  17.191  0.00  0.00    +0.000 F 
ENDBRANCH   8  11
BRANCH   1  19
ATOM     18  C   UNL     1       7.737   7.622  17.588  0.00  0.00    +0.000 C 
ATOM     19  O   UNL     1       6.587   7.500  16.754  0.00  0.00    +0.000 OA
ENDBRANCH   1  19
TORSDOF 2
ENDMDL
MODEL 4
REMARK VINA RESULT:      -7.1      2.985      5.635
REMARK  Name = 
REMARK  3 active torsions:
REMARK  status: ('A' for Active; 'I' for Inactive)
REMARK    1  A    between atoms: C_1  and  O_2
REMARK    2  A    between atoms: O_2  and  C_3
REMARK    3  A    between atoms: N_10  and  C_11
REMARK                            x       y       z     vdW  Elec       q    Type
REMARK                         _______ _______ _______ _____ _____    ______ ____
ROOT
ATOM      1  C   UNL     1       6.116   6.237  16.577  0.00  0.00    +0.000 A 
ATOM      2  C   UNL     1       6.855   5.149  16.108  0.00  0.00    +0.000 A 
ATOM      3  C   UNL     1       6.278   3.875  16.044  0.00  0.00    +0.000 A 
ATOM      4  C   UNL     1       4.964   3.664  16.463  0.00  0.00    +0.000 A 
ATOM      5  C   UNL     1       4.224   4.729  16.976  0.00  0.00    +0.000 A 
ATOM      6  C   UNL     1       4.805   6.007  17.017  0.00  0.00    +0.000 A 
ATOM      7  C   UNL     1       3.990   7.108  17.561  0.00  0.00    +0.000 C 
ATOM      8  N   UNL     1       2.969   6.878  18.322  0.00  0.00    +0.000 N 
ATOM      9  C   UNL     1       2.524   5.478  18.640  0.00  0.00    +0.000 C 
ATOM     10  C   UNL     1       2.805   4.569  17.438  0.00  0.00    +0.000 C 
ENDROOT
BRANCH   8  11
ATOM     11  C   UNL     1       2.156   7.964  18.776  0.00  0.00    +0.000 A 
ATOM     12  C   UNL     1       1.843   9.048  17.939  0.00  0.00    +0.000 A 
ATOM     13  C   UNL     1       1.038  10.092  18.410  0.00  0.00    +0.000 A 
ATOM     14  C   UNL     1       0.577  10.088  19.726  0.00  0.00    +0.000 A 
ATOM     15  C   UNL     1       0.893   9.029  20.572  0.00  0.00    +0.000 A 
ATOM     16  C   UNL     1       1.658   7.969  20.089  0.00  0.00    +0.000 A 
ATOM     17  F   UNL     1       1.985   6.991  20.948  0.00  0.00    +0.000 F 
ENDBRANCH   8  11
BRANCH   1  19
ATOM     18  C   UNL     1       7.687   7.692  17.603  0.00  0.00    +0.000 C 
ATOM     19  O   UNL     1       6.596   7.511  16.702  0.00  0.00    +0.000 OA
ENDBRANCH   1  19
TORSDOF 2
ENDMDL
MODEL 5
REMARK VINA RESULT:      -6.9      1.068      1.538
REMARK  Name = 
REMARK  3 active torsions:
REMARK  status: ('A' for Active; 'I' for Inactive)
REMARK    1  A    between atoms: C_1  and  O_2
REMARK    2  A    between atoms: O_2  and  C_3
REMARK    3  A    between atoms: N_10  and  C_11
REMARK                            x       y       z     vdW  Elec       q    Type
REMARK                         _______ _______ _______ _____ _____    ______ ____
ROOT
ATOM      1  C   UNL     1       1.836   4.456  20.218  0.00  0.00    +0.000 A 
ATOM      2  C   UNL     1       0.722   3.614  20.202  0.00  0.00    +0.000 A 
ATOM      3  C   UNL     1       0.634   2.572  19.271  0.00  0.00    +0.000 A 
ATOM      4  C   UNL     1       1.644   2.367  18.331  0.00  0.00    +0.000 A 
ATOM      5  C   UNL     1       2.744   3.225  18.302  0.00  0.00    +0.000 A 
ATOM      6  C   UNL     1       2.833   4.253  19.254  0.00  0.00    +0.000 A 
ATOM      7  C   UNL     1       4.012   5.135  19.195  0.00  0.00    +0.000 C 
ATOM      8  N   UNL     1       4.724   5.238  18.119  0.00  0.00    +0.000 N 
ATOM      9  C   UNL     1       4.422   4.418  16.895  0.00  0.00    +0.000 C 
ATOM     10  C   UNL     1       3.867   3.054  17.320  0.00  0.00    +0.000 C 
ENDROOT
BRANCH   8  11
ATOM     11  C   UNL     1       5.902   6.048  18.115  0.00  0.00    +0.000 A 
ATOM     12  C   UNL     1       6.052   7.123  17.222  0.00  0.00    +0.000 A 
ATOM     13  C   UNL     1       7.214   7.904  17.249  0.00  0.00    +0.000 A 
ATOM     14  C   UNL     1       8.250   7.596  18.129  0.00  0.00    +0.000 A 
ATOM     15  C   UNL     1       8.123   6.524  19.008  0.00  0.00    +0.000 A 
ATOM     16  C   UNL     1       6.948   5.774  19.011  0.00  0.00    +0.000 A 
ATOM     17  F   UNL     1       6.882   4.717  19.836  0.00  0.00    +0.000 F 
ENDBRANCH   8  11
BRANCH   1  19
ATOM     18  C   UNL     1       1.413   6.749  20.668  0.00  0.00    +0.000 C 
ATOM     19  O   UNL     1       2.003   5.513  21.069  0.00  0.00    +0.000 OA
ENDBRANCH   1  19
TORSDOF 2
ENDMDL
MODEL 6
REMARK VINA RESULT:      -6.8      2.380      3.740
REMARK  Name = 
REMARK  3 active torsions:
REMARK  status: ('A' for Active; 'I' for Inactive)
REMARK    1  A    between atoms: C_1  and  O_2
REMARK    2  A    between atoms: O_2  and  C_3
REMARK    3  A    between atoms: N_10  and  C_11
REMARK                            x       y       z     vdW  Elec       q    Type
REMARK                         _______ _______ _______ _____ _____    ______ ____
ROOT
ATOM      1  C   UNL     1       2.878   3.826  19.596  0.00  0.00    +0.000 A 
ATOM      2  C   UNL     1       2.134   4.221  20.710  0.00  0.00    +0.000 A 
ATOM      3  C   UNL     1       1.739   5.555  20.862  0.00  0.00    +0.000 A 
ATOM      4  C   UNL     1       2.094   6.517  19.916  0.00  0.00    +0.000 A 
ATOM      5  C   UNL     1       2.873   6.151  18.820  0.00  0.00    +0.000 A 
ATOM      6  C   UNL     1       3.248   4.806  18.666  0.00  0.00    +0.000 A 
ATOM      7  C   UNL     1       4.067   4.458  17.492  0.00  0.00    +0.000 C 
ATOM      8  N   UNL     1       4.745   5.356  16.852  0.00  0.00    +0.000 N 
ATOM      9  C   UNL     1       4.685   6.808  17.236  0.00  0.00    +0.000 C 
ATOM     10  C   UNL     1       3.284   7.137  17.765  0.00  0.00    +0.000 C 
ENDROOT
BRANCH   8  11
ATOM     11  C   UNL     1       5.475   4.998  15.675  0.00  0.00    +0.000 A 
ATOM     12  C   UNL     1       4.875   4.276  14.629  0.00  0.00    +0.000 A 
ATOM     13  C   UNL     1       5.612   3.949  13.485  0.00  0.00    +0.000 A 
ATOM     14  C   UNL     1       6.959   4.296  13.392  0.00  0.00    +0.000 A 
ATOM     15  C   UNL     1       7.572   4.998  14.427  0.00  0.00    +0.000 A 
ATOM     16  C   UNL     1       6.826   5.361  15.546  0.00  0.00    +0.000 A 
ATOM     17  F   UNL     1       7.462   5.991  16.546  0.00  0.00    +0.000 F 
ENDBRANCH   8  11
BRANCH   1  19
ATOM     18  C   UNL     1       4.396   2.105  20.209  0.00  0.00    +0.000 C 
ATOM     19  O   UNL     1       3.333   2.556  19.372  0.00  0.00    +0.000 OA
ENDBRANCH   1  19
TORSDOF 2
ENDMDL
MODEL 7
REMARK VINA RESULT:      -6.8      3.184      6.013
REMARK  Name = 
REMARK  3 active torsions:
REMARK  status: ('A' for Active; 'I' for Inactive)
REMARK    1  A    between atoms: C_1  and  O_2
REMARK    2  A    between atoms: O_2  and  C_3
REMARK    3  A    between atoms: N_10  and  C_11
REMARK                            x       y       z     vdW  Elec       q    Type
REMARK                         _______ _______ _______ _____ _____    ______ ____
ROOT
ATOM      1  C   UNL     1       0.914   9.812  21.257  0.00  0.00    +0.000 A 
ATOM      2  C   UNL     1       0.805  11.168  20.942  0.00  0.00    +0.000 A 
ATOM      3  C   UNL     1       1.012  11.610  19.630  0.00  0.00    +0.000 A 
ATOM      4  C   UNL     1       1.350  10.711  18.619  0.00  0.00    +0.000 A 
ATOM      5  C   UNL     1       1.508   9.359  18.922  0.00  0.00    +0.000 A 
ATOM      6  C   UNL     1       1.277   8.923  20.237  0.00  0.00    +0.000 A 
ATOM      7  C   UNL     1       1.449   7.486  20.517  0.00  0.00    +0.000 C 
ATOM      8  N   UNL     1       2.147   6.726  19.737  0.00  0.00    +0.000 N 
ATOM      9  C   UNL     1       2.767   7.253  18.473  0.00  0.00    +0.000 C 
ATOM     10  C   UNL     1       1.865   8.340  17.878  0.00  0.00    +0.000 C 
ENDROOT
BRANCH   8  11
ATOM     11  C   UNL     1       2.237   5.322  19.998  0.00  0.00    +0.000 A 
ATOM     12  C   UNL     1       1.113   4.574  20.387  0.00  0.00    +0.000 A 
ATOM     13  C   UNL     1       1.231   3.200  20.627  0.00  0.00    +0.000 A 
ATOM     14  C   UNL     1       2.471   2.570  20.526  0.00  0.00    +0.000 A 
ATOM     15  C   UNL     1       3.596   3.302  20.156  0.00  0.00    +0.000 A 
ATOM     16  C   UNL     1       3.470   4.661  19.875  0.00  0.00    +0.000 A 
ATOM     17  F   UNL     1       4.585   5.344  19.573  0.00  0.00    +0.000 F 
ENDBRANCH   8  11
BRANCH   1  19
ATOM     18  C   UNL     1      -0.356   9.765  23.263  0.00  0.00    +0.000 C 
ATOM     19  O   UNL     1       0.757   9.287  22.510  0.00  0.00    +0.000 OA
ENDBRANCH   1  19
TORSDOF 2
ENDMDL
MODEL 8
REMARK VINA RESULT:      -6.7      3.368      6.087
REMARK  Name = 
REMARK  3 active torsions:
REMARK  status: ('A' for Active; 'I' for Inactive)
REMARK    1  A    between atoms: C_1  and  O_2
REMARK    2  A    between atoms: O_2  and  C_3
REMARK    3  A    between atoms: N_10  and  C_11
REMARK                            x       y       z     vdW  Elec       q    Type
REMARK                         _______ _______ _______ _____ _____    ______ ____
ROOT
ATOM      1  C   UNL     1       0.877   9.768  21.193  0.00  0.00    +0.000 A 
ATOM      2  C   UNL     1       0.875  11.131  20.892  0.00  0.00    +0.000 A 
ATOM      3  C   UNL     1       1.188  11.573  19.601  0.00  0.00    +0.000 A 
ATOM      4  C   UNL     1       1.528  10.665  18.599  0.00  0.00    +0.000 A 
ATOM      5  C   UNL     1       1.579   9.302  18.891  0.00  0.00    +0.000 A 
ATOM      6  C   UNL     1       1.242   8.867  20.183  0.00  0.00    +0.000 A 
ATOM      7  C   UNL     1       1.303   7.420  20.452  0.00  0.00    +0.000 C 
ATOM      8  N   UNL     1       1.996   6.624  19.703  0.00  0.00    +0.000 N 
ATOM      9  C   UNL     1       2.724   7.123  18.486  0.00  0.00    +0.000 C 
ATOM     10  C   UNL     1       1.931   8.274  17.855  0.00  0.00    +0.000 C 
ENDROOT
BRANCH   8  11
ATOM     11  C   UNL     1       1.979   5.215  19.948  0.00  0.00    +0.000 A 
ATOM     12  C   UNL     1       2.315   4.683  21.204  0.00  0.00    +0.000 A 
ATOM     13  C   UNL     1       2.279   3.300  21.416  0.00  0.00    +0.000 A 
ATOM     14  C   UNL     1       1.955   2.435  20.372  0.00  0.00    +0.000 A 
ATOM     15  C   UNL     1       1.634   2.946  19.117  0.00  0.00    +0.000 A 
ATOM     16  C   UNL     1       1.627   4.325  18.919  0.00  0.00    +0.000 A 
ATOM     17  F   UNL     1       1.364   4.779  17.684  0.00  0.00    +0.000 F 
ENDBRANCH   8  11
BRANCH   1  19
ATOM     18  C   UNL     1      -0.522   9.771  23.112  0.00  0.00    +0.000 C 
ATOM     19  O   UNL     1       0.610   9.240  22.426  0.00  0.00    +0.000 OA
ENDBRANCH   1  19
TORSDOF 2
ENDMDL
MODEL 9
REMARK VINA RESULT:      -6.7      2.145      2.812
REMARK  Name = 
REMARK  3 active torsions:
REMARK  status: ('A' for Active; 'I' for Inactive)
REMARK    1  A    between atoms: C_1  and  O_2
REMARK    2  A    between atoms: O_2  and  C_3
REMARK    3  A    between atoms: N_10  and  C_11
REMARK                            x       y       z     vdW  Elec       q    Type
REMARK                         _______ _______ _______ _____ _____    ______ ____
ROOT
ATOM      1  C   UNL     1       2.470   5.248  20.026  0.00  0.00    +0.000 A 
ATOM      2  C   UNL     1       1.553   4.853  21.002  0.00  0.00    +0.000 A 
ATOM      3  C   UNL     1       1.305   3.495  21.233  0.00  0.00    +0.000 A 
ATOM      4  C   UNL     1       1.953   2.513  20.483  0.00  0.00    +0.000 A 
ATOM      5  C   UNL     1       2.839   2.888  19.474  0.00  0.00    +0.000 A 
ATOM      6  C   UNL     1       3.096   4.252  19.263  0.00  0.00    +0.000 A 
ATOM      7  C   UNL     1       4.042   4.609  18.191  0.00  0.00    +0.000 C 
ATOM      8  N   UNL     1       4.320   3.782  17.235  0.00  0.00    +0.000 N 
ATOM      9  C   UNL     1       3.742   2.395  17.202  0.00  0.00    +0.000 C 
ATOM     10  C   UNL     1       3.571   1.880  18.636  0.00  0.00    +0.000 C 
ENDROOT
BRANCH   8  11
ATOM     11  C   UNL     1       5.295   4.131  16.249  0.00  0.00    +0.000 A 
ATOM     12  C   UNL     1       4.998   4.092  14.876  0.00  0.00    +0.000 A 
ATOM     13  C   UNL     1       5.971   4.449  13.934  0.00  0.00    +0.000 A 
ATOM     14  C   UNL     1       7.254   4.802  14.346  0.00  0.00    +0.000 A 
ATOM     15  C   UNL     1       7.569   4.830  15.702  0.00  0.00    +0.000 A 
ATOM     16  C   UNL     1       6.588   4.517  16.641  0.00  0.00    +0.000 A 
ATOM     17  F   UNL     1       6.941   4.504  17.936  0.00  0.00    +0.000 F 
ENDBRANCH   8  11
BRANCH   1  19
ATOM     18  C   UNL     1       1.875   7.539  20.221  0.00  0.00    +0.000 C 
ATOM     19  O   UNL     1       2.761   6.546  19.708  0.00  0.00    +0.000 OA
ENDBRANCH   1  19
TORSDOF 2
ENDMDL
