MODEL 1
REMARK VINA RESULT:      -7.1      0.000      0.000
REMARK  Name = 
REMARK  5 active torsions:
REMARK  status: ('A' for Active; 'I' for Inactive)
REMARK    1  A    between atoms: C_1  and  N_2
REMARK    2  A    between atoms: N_2  and  C_17
REMARK    3  A    between atoms: C_3  and  C_5
REMARK    4  A    between atoms: C_5  and  N_6
REMARK    5  A    between atoms: C_9  and  C_10
REMARK                            x       y       z     vdW  Elec       q    Type
REMARK                         _______ _______ _______ _____ _____    ______ ____
ROOT
ATOM      1  C   UNL     1       2.994   6.935  18.751  0.00  0.00    +0.000 C 
ENDROOT
BRANCH   1   4
ATOM      2  C   UNL     1       1.261   8.694  20.414  0.00  0.00    +0.000 C 
ATOM      3  N   UNL     1       1.638   9.067  19.054  0.00  0.00    +0.000 N 
ATOM      4  C   UNL     1       2.426   8.264  18.207  0.00  0.00    +0.000 C 
ATOM      5  O   UNL     1       2.635   8.610  17.037  0.00  0.00    +0.000 OA
BRANCH   3   6
ATOM      6  C   UNL     1       1.079  10.308  18.456  0.00  0.00    +0.000 C 
ATOM      7  C   UNL     1      -0.357  10.108  17.940  0.00  0.00    +0.000 C 
ATOM      8  C   UNL     1      -1.416  10.230  19.029  0.00  0.00    +0.000 C 
ATOM      9  C   UNL     1      -1.298  11.552  19.778  0.00  0.00    +0.000 C 
ATOM     10  C   UNL     1       0.100  11.793  20.339  0.00  0.00    +0.000 C 
ATOM     11  C   UNL     1       1.204  11.586  19.305  0.00  0.00    +0.000 C 
ENDBRANCH   3   6
ENDBRANCH   1   4
BRANCH   1  12
ATOM     12  N   UNL     1       3.521   6.104  17.664  0.00  0.00    +0.000 NA
ATOM     13  C   UNL     1       4.933   5.737  17.872  0.00  0.00    +0.000 C 
ATOM     14  C   UNL     1       4.608   4.380  17.218  0.00  0.00    +0.000 C 
ATOM     15  C   UNL     1       3.142   4.663  17.654  0.00  0.00    +0.000 C 
BRANCH  15  16
ATOM     16  C   UNL     1       2.606   3.988  19.009  0.00  0.00    +0.000 A 
ATOM     17  C   UNL     1       3.437   3.405  19.992  0.00  0.00    +0.000 A 
ATOM     18  C   UNL     1       2.918   2.770  21.127  0.00  0.00    +0.000 A 
ATOM     19  C   UNL     1       1.546   2.695  21.303  0.00  0.00    +0.000 A 
ATOM     20  F   UNL     1       1.049   2.077  22.382  0.00  0.00    +0.000 F 
ATOM     21  C   UNL     1       0.684   3.247  20.370  0.00  0.00    +0.000 A 
ATOM     22  C   UNL     1       1.214   3.883  19.244  0.00  0.00    +0.000 A 
ENDBRANCH  15  16
ENDBRANCH   1  12
TORSDOF 4
ENDMDL
MODEL 2
REMARK VINA RESULT:      -7.0      5.182      6.999
REMARK  Name = 
REMARK  5 active torsions:
REMARK  status: ('A' for Active; 'I' for Inactive)
REMARK    1  A    between atoms: C_1  and  N_2
REMARK    2  A    between atoms: N_2  and  C_17
REMARK    3  A    between atoms: C_3  and  C_5
REMARK    4  A    between atoms: C_5  and  N_6
REMARK    5  A    between atoms: C_9  and  C_10
REMARK                            x       y       z     vdW  Elec       q    Type
REMARK                         _______ _______ _______ _____ _____    ______ ____
ROOT
ATOM      1  C   UNL     1       4.268   4.764  16.609  0.00  0.00    +0.000 C 
ENDROOT
BRANCH   1   4
ATOM      2  C   UNL     1       4.713   3.629  19.325  0.00  0.00    +0.000 C 
ATOM      3  N   UNL     1       3.518   3.301  18.553  0.00  0.00    +0.000 N 
ATOM      4  C   UNL     1       3.267   3.779  17.252  0.00  0.00    +0.000 C 
ATOM      5  O   UNL     1       2.271   3.391  16.628  0.00  0.00    +0.000 OA
BRANCH   3   6
ATOM      6  C   UNL     1       2.546   2.318  19.097  0.00  0.00    +0.000 C 
ATOM      7  C   UNL     1       3.010   1.724  20.439  0.00  0.00    +0.000 C 
ATOM      8  C   UNL     1       2.688   2.609  21.638  0.00  0.00    +0.000 C 
ATOM      9  C   UNL     1       1.206   2.959  21.692  0.00  0.00    +0.000 C 
ATOM     10  C   UNL     1       0.694   3.580  20.396  0.00  0.00    +0.000 C 
ATOM     11  C   UNL     1       1.078   2.776  19.155  0.00  0.00    +0.000 C 
ENDBRANCH   3   6
ENDBRANCH   1   4
BRANCH   1  12
ATOM     12  N   UNL     1       5.204   4.061  15.726  0.00  0.00    +0.000 NA
ATOM     13  C   UNL     1       5.376   4.746  14.433  0.00  0.00    +0.000 C 
ATOM     14  C   UNL     1       6.849   4.294  14.464  0.00  0.00    +0.000 C 
ATOM     15  C   UNL     1       6.659   4.212  16.007  0.00  0.00    +0.000 C 
BRANCH  15  16
ATOM     16  C   UNL     1       7.156   5.448  16.904  0.00  0.00    +0.000 A 
ATOM     17  C   UNL     1       7.206   6.788  16.457  0.00  0.00    +0.000 A 
ATOM     18  C   UNL     1       7.709   7.822  17.255  0.00  0.00    +0.000 A 
ATOM     19  C   UNL     1       8.187   7.538  18.524  0.00  0.00    +0.000 A 
ATOM     20  F   UNL     1       8.680   8.525  19.283  0.00  0.00    +0.000 F 
ATOM     21  C   UNL     1       8.165   6.242  19.012  0.00  0.00    +0.000 A 
ATOM     22  C   UNL     1       7.656   5.219  18.208  0.00  0.00    +0.000 A 
ENDBRANCH  15  16
ENDBRANCH   1  12
TORSDOF 4
ENDMDL
MODEL 3
REMARK VINA RESULT:      -7.0      0.137      1.032
REMARK  Name = 
REMARK  5 active torsions:
REMARK  status: ('A' for Active; 'I' for Inactive)
REMARK    1  A    between atoms: C_1  and  N_2
REMARK    2  A    between atoms: N_2  and  C_17
REMARK    3  A    between atoms: C_3  and  C_5
REMARK    4  A    between atoms: C_5  and  N_6
REMARK    5  A    between atoms: C_9  and  C_10
REMARK                            x       y       z     vdW  Elec       q    Type
REMARK                         _______ _______ _______ _____ _____    ______ ____
ROOT
ATOM      1  C   UNL     1       2.836   6.919  18.807  0.00  0.00    +0.000 C 
ENDROOT
BRANCH   1   4
ATOM      2  C   UNL     1       1.170   8.711  20.503  0.00  0.00    +0.000 C 
ATOM      3  N   UNL     1       1.549   9.089  19.145  0.00  0.00    +0.000 N 
ATOM      4  C   UNL     1       2.306   8.272  18.283  0.00  0.00    +0.000 C 
ATOM      5  O   UNL     1       2.518   8.626  17.116  0.00  0.00    +0.000 OA
BRANCH   3   6
ATOM      6  C   UNL     1       1.024  10.354  18.567  0.00  0.00    +0.000 C 
ATOM      7  C   UNL     1      -0.407  10.194  18.025  0.00  0.00    +0.000 C 
ATOM      8  C   UNL     1      -1.480  10.315  19.101  0.00  0.00    +0.000 C 
ATOM      9  C   UNL     1      -1.346  11.618  19.880  0.00  0.00    +0.000 C 
ATOM     10  C   UNL     1       0.047  11.818  20.466  0.00  0.00    +0.000 C 
ATOM     11  C   UNL     1       1.163  11.610  19.444  0.00  0.00    +0.000 C 
ENDBRANCH   3   6
ENDBRANCH   1   4
BRANCH   1  12
ATOM     12  N   UNL     1       3.509   6.170  17.742  0.00  0.00    +0.000 NA
ATOM     13  C   UNL     1       4.916   5.876  18.065  0.00  0.00    +0.000 C 
ATOM     14  C   UNL     1       4.736   4.533  17.330  0.00  0.00    +0.000 C 
ATOM     15  C   UNL     1       3.221   4.712  17.640  0.00  0.00    +0.000 C 
BRANCH  15  16
ATOM     16  C   UNL     1       2.607   3.947  18.912  0.00  0.00    +0.000 A 
ATOM     17  C   UNL     1       1.226   3.852  19.195  0.00  0.00    +0.000 A 
ATOM     18  C   UNL     1       0.742   3.230  20.351  0.00  0.00    +0.000 A 
ATOM     19  C   UNL     1       1.634   2.693  21.265  0.00  0.00    +0.000 A 
ATOM     20  F   UNL     1       1.172   2.109  22.379  0.00  0.00    +0.000 F 
ATOM     21  C   UNL     1       2.999   2.761  21.041  0.00  0.00    +0.000 A 
ATOM     22  C   UNL     1       3.470   3.379  19.880  0.00  0.00    +0.000 A 
ENDBRANCH  15  16
ENDBRANCH   1  12
TORSDOF 4
ENDMDL
MODEL 4
REMARK VINA RESULT:      -7.0      4.518      6.770
REMARK  Name = 
REMARK  5 active torsions:
REMARK  status: ('A' for Active; 'I' for Inactive)
REMARK    1  A    between atoms: C_1  and  N_2
REMARK    2  A    between atoms: N_2  and  C_17
REMARK    3  A    between atoms: C_3  and  C_5
REMARK    4  A    between atoms: C_5  and  N_6
REMARK    5  A    between atoms: C_9  and  C_10
REMARK                            x       y       z     vdW  Elec       q    Type
REMARK                         _______ _______ _______ _____ _____    ______ ____
ROOT
ATOM      1  C   UNL     1       4.426   6.018  17.074  0.00  0.00    +0.000 C 
ENDROOT
BRANCH   1   4
ATOM      2  C   UNL     1       2.821   3.524  17.333  0.00  0.00    +0.000 C 
ATOM      3  N   UNL     1       2.602   4.662  18.221  0.00  0.00    +0.000 N 
ATOM      4  C   UNL     1       3.305   5.879  18.127  0.00  0.00    +0.000 C 
ATOM      5  O   UNL     1       3.006   6.829  18.863  0.00  0.00    +0.000 OA
BRANCH   3   6
ATOM      6  C   UNL     1       1.502   4.609  19.218  0.00  0.00    +0.000 C 
ATOM      7  C   UNL     1       0.760   3.261  19.191  0.00  0.00    +0.000 C 
ATOM      8  C   UNL     1       1.456   2.168  19.994  0.00  0.00    +0.000 C 
ATOM      9  C   UNL     1       1.713   2.608  21.431  0.00  0.00    +0.000 C 
ATOM     10  C   UNL     1       2.472   3.928  21.521  0.00  0.00    +0.000 C 
ATOM     11  C   UNL     1       1.865   5.028  20.653  0.00  0.00    +0.000 C 
ENDBRANCH   3   6
ENDBRANCH   1   4
BRANCH   1  12
ATOM     12  N   UNL     1       5.747   6.032  17.711  0.00  0.00    +0.000 NA
ATOM     13  C   UNL     1       6.034   4.779  18.433  0.00  0.00    +0.000 C 
ATOM     14  C   UNL     1       7.505   4.946  18.000  0.00  0.00    +0.000 C 
ATOM     15  C   UNL     1       6.933   5.810  16.839  0.00  0.00    +0.000 C 
BRANCH  15  16
ATOM     16  C   UNL     1       6.728   5.118  15.404  0.00  0.00    +0.000 A 
ATOM     17  C   UNL     1       5.788   4.096  15.139  0.00  0.00    +0.000 A 
ATOM     18  C   UNL     1       5.690   3.479  13.887  0.00  0.00    +0.000 A 
ATOM     19  C   UNL     1       6.543   3.863  12.864  0.00  0.00    +0.000 A 
ATOM     20  F   UNL     1       6.459   3.263  11.670  0.00  0.00    +0.000 F 
ATOM     21  C   UNL     1       7.486   4.856  13.069  0.00  0.00    +0.000 A 
ATOM     22  C   UNL     1       7.570   5.470  14.322  0.00  0.00    +0.000 A 
ENDBRANCH  15  16
ENDBRANCH   1  12
TORSDOF 4
ENDMDL
MODEL 5
REMARK VINA RESULT:      -6.8      4.466      6.658
REMARK  Name = 
REMARK  5 active torsions:
REMARK  status: ('A' for Active; 'I' for Inactive)
REMARK    1  A    between atoms: C_1  and  N_2
REMARK    2  A    between atoms: N_2  and  C_17
REMARK    3  A    between atoms: C_3  and  C_5
REMARK    4  A    between atoms: C_5  and  N_6
REMARK    5  A    between atoms: C_9  and  C_10
REMARK                            x       y       z     vdW  Elec       q    Type
REMARK                         _______ _______ _______ _____ _____    ______ ____
ROOT
ATOM      1  C   UNL     1       4.488   6.057  17.086  0.00  0.00    +0.000 C 
ENDROOT
BRANCH   1   4
ATOM      2  C   UNL     1       2.923   3.539  17.352  0.00  0.00    +0.000 C 
ATOM      3  N   UNL     1       2.663   4.688  18.214  0.00  0.00    +0.000 N 
ATOM      4  C   UNL     1       3.345   5.916  18.115  0.00  0.00    +0.000 C 
ATOM      5  O   UNL     1       3.012   6.873  18.827  0.00  0.00    +0.000 OA
BRANCH   3   6
ATOM      6  C   UNL     1       1.541   4.631  19.187  0.00  0.00    +0.000 C 
ATOM      7  C   UNL     1       0.806   3.279  19.147  0.00  0.00    +0.000 C 
ATOM      8  C   UNL     1       1.490   2.192  19.968  0.00  0.00    +0.000 C 
ATOM      9  C   UNL     1       1.712   2.637  21.408  0.00  0.00    +0.000 C 
ATOM     10  C   UNL     1       2.463   3.961  21.512  0.00  0.00    +0.000 C 
ATOM     11  C   UNL     1       1.870   5.056  20.629  0.00  0.00    +0.000 C 
ENDBRANCH   3   6
ENDBRANCH   1   4
BRANCH   1  12
ATOM     12  N   UNL     1       5.792   6.118  17.754  0.00  0.00    +0.000 NA
ATOM     13  C   UNL     1       6.075   4.906  18.543  0.00  0.00    +0.000 C 
ATOM     14  C   UNL     1       7.554   5.069  18.139  0.00  0.00    +0.000 C 
ATOM     15  C   UNL     1       7.003   5.868  16.922  0.00  0.00    +0.000 C 
BRANCH  15  16
ATOM     16  C   UNL     1       6.840   5.104  15.519  0.00  0.00    +0.000 A 
ATOM     17  C   UNL     1       7.506   5.474  14.328  0.00  0.00    +0.000 A 
ATOM     18  C   UNL     1       7.283   4.817  13.113  0.00  0.00    +0.000 A 
ATOM     19  C   UNL     1       6.374   3.773  13.056  0.00  0.00    +0.000 A 
ATOM     20  F   UNL     1       6.150   3.152  11.890  0.00  0.00    +0.000 F 
ATOM     21  C   UNL     1       5.690   3.370  14.190  0.00  0.00    +0.000 A 
ATOM     22  C   UNL     1       5.926   4.030  15.400  0.00  0.00    +0.000 A 
ENDBRANCH  15  16
ENDBRANCH   1  12
TORSDOF 4
ENDMDL
MODEL 6
REMARK VINA RESULT:      -6.8      3.558      6.022
REMARK  Name = 
REMARK  5 active torsions:
REMARK  status: ('A' for Active; 'I' for Inactive)
REMARK    1  A    between atoms: C_1  and  N_2
REMARK    2  A    between atoms: N_2  and  C_17
REMARK    3  A    between atoms: C_3  and  C_5
REMARK    4  A    between atoms: C_5  and  N_6
REMARK    5  A    between atoms: C_9  and  C_10
REMARK                            x       y       z     vdW  Elec       q    Type
REMARK                         _______ _______ _______ _____ _____    ______ ____
ROOT
ATOM      1  C   UNL     1       3.726   2.622  19.088  0.00  0.00    +0.000 C 
ENDROOT
BRANCH   1   4
ATOM      2  C   UNL     1       5.424   5.009  19.616  0.00  0.00    +0.000 C 
ATOM      3  N   UNL     1       5.471   4.314  18.333  0.00  0.00    +0.000 N 
ATOM      4  C   UNL     1       4.670   3.202  18.012  0.00  0.00    +0.000 C 
ATOM      5  O   UNL     1       4.707   2.716  16.873  0.00  0.00    +0.000 OA
BRANCH   3   6
ATOM      6  C   UNL     1       6.321   4.856  17.241  0.00  0.00    +0.000 C 
ATOM      7  C   UNL     1       5.593   5.938  16.423  0.00  0.00    +0.000 C 
ATOM      8  C   UNL     1       5.645   7.321  17.064  0.00  0.00    +0.000 C 
ATOM      9  C   UNL     1       7.078   7.747  17.358  0.00  0.00    +0.000 C 
ATOM     10  C   UNL     1       7.842   6.724  18.192  0.00  0.00    +0.000 C 
ATOM     11  C   UNL     1       7.738   5.303  17.641  0.00  0.00    +0.000 C 
ENDBRANCH   3   6
ENDBRANCH   1   4
BRANCH   1  12
ATOM     12  N   UNL     1       2.422   2.277  18.512  0.00  0.00    +0.000 NA
ATOM     13  C   UNL     1       1.483   1.757  19.522  0.00  0.00    +0.000 C 
ATOM     14  C   UNL     1       0.358   2.470  18.747  0.00  0.00    +0.000 C 
ATOM     15  C   UNL     1       1.486   3.397  18.210  0.00  0.00    +0.000 C 
BRANCH  15  16
ATOM     16  C   UNL     1       1.712   4.817  18.926  0.00  0.00    +0.000 A 
ATOM     17  C   UNL     1       1.388   5.090  20.275  0.00  0.00    +0.000 A 
ATOM     18  C   UNL     1       1.543   6.363  20.836  0.00  0.00    +0.000 A 
ATOM     19  C   UNL     1       2.021   7.403  20.055  0.00  0.00    +0.000 A 
ATOM     20  F   UNL     1       2.157   8.624  20.588  0.00  0.00    +0.000 F 
ATOM     21  C   UNL     1       2.352   7.193  18.727  0.00  0.00    +0.000 A 
ATOM     22  C   UNL     1       2.198   5.917  18.179  0.00  0.00    +0.000 A 
ENDBRANCH  15  16
ENDBRANCH   1  12
TORSDOF 4
ENDMDL
MODEL 7
REMARK VINA RESULT:      -6.8      5.209      6.954
REMARK  Name = 
REMARK  5 active torsions:
REMARK  status: ('A' for Active; 'I' for Inactive)
REMARK    1  A    between atoms: C_1  and  N_2
REMARK    2  A    between atoms: N_2  and  C_17
REMARK    3  A    between atoms: C_3  and  C_5
REMARK    4  A    between atoms: C_5  and  N_6
REMARK    5  A    between atoms: C_9  and  C_10
REMARK                            x       y       z     vdW  Elec       q    Type
REMARK                         _______ _______ _______ _____ _____    ______ ____
ROOT
ATOM      1  C   UNL     1       4.287   4.709  16.623  0.00  0.00    +0.000 C 
ENDROOT
BRANCH   1   4
ATOM      2  C   UNL     1       4.833   3.549  19.310  0.00  0.00    +0.000 C 
ATOM      3  N   UNL     1       3.611   3.227  18.580  0.00  0.00    +0.000 N 
ATOM      4  C   UNL     1       3.312   3.717  17.293  0.00  0.00    +0.000 C 
ATOM      5  O   UNL     1       2.293   3.333  16.703  0.00  0.00    +0.000 OA
BRANCH   3   6
ATOM      6  C   UNL     1       2.660   2.238  19.149  0.00  0.00    +0.000 C 
ATOM      7  C   UNL     1       3.075   1.780  20.559  0.00  0.00    +0.000 C 
ATOM      8  C   UNL     1       2.639   2.739  21.661  0.00  0.00    +0.000 C 
ATOM      9  C   UNL     1       1.140   3.008  21.606  0.00  0.00    +0.000 C 
ATOM     10  C   UNL     1       0.674   3.494  20.237  0.00  0.00    +0.000 C 
ATOM     11  C   UNL     1       1.170   2.617  19.090  0.00  0.00    +0.000 C 
ENDBRANCH   3   6
ENDBRANCH   1   4
BRANCH   1  12
ATOM     12  N   UNL     1       5.151   4.025  15.656  0.00  0.00    +0.000 NA
ATOM     13  C   UNL     1       5.297   4.783  14.401  0.00  0.00    +0.000 C 
ATOM     14  C   UNL     1       6.749   4.269  14.336  0.00  0.00    +0.000 C 
ATOM     15  C   UNL     1       6.623   4.097  15.878  0.00  0.00    +0.000 C 
BRANCH  15  16
ATOM     16  C   UNL     1       7.214   5.251  16.825  0.00  0.00    +0.000 A 
ATOM     17  C   UNL     1       7.667   5.043  18.147  0.00  0.00    +0.000 A 
ATOM     18  C   UNL     1       8.113   6.094  18.957  0.00  0.00    +0.000 A 
ATOM     19  C   UNL     1       8.109   7.389  18.464  0.00  0.00    +0.000 A 
ATOM     20  F   UNL     1       8.523   8.397  19.243  0.00  0.00    +0.000 F 
ATOM     21  C   UNL     1       7.672   7.651  17.177  0.00  0.00    +0.000 A 
ATOM     22  C   UNL     1       7.234   6.593  16.375  0.00  0.00    +0.000 A 
ENDBRANCH  15  16
ENDBRANCH   1  12
TORSDOF 4
ENDMDL
MODEL 8
REMARK VINA RESULT:      -6.8      4.399      6.666
REMARK  Name = 
REMARK  5 active torsions:
REMARK  status: ('A' for Active; 'I' for Inactive)
REMARK    1  A    between atoms: C_1  and  N_2
REMARK    2  A    between atoms: N_2  and  C_17
REMARK    3  A    between atoms: C_3  and  C_5
REMARK    4  A    between atoms: C_5  and  N_6
REMARK    5  A    between atoms: C_9  and  C_10
REMARK                            x       y       z     vdW  Elec       q    Type
REMARK                         _______ _______ _______ _____ _____    ______ ____
ROOT
ATOM      1  C   UNL     1       4.124   5.081  16.603  0.00  0.00    +0.000 C 
ENDROOT
BRANCH   1   4
ATOM      2  C   UNL     1       3.092   5.869  19.282  0.00  0.00    +0.000 C 
ATOM      3  N   UNL     1       2.517   4.746  18.548  0.00  0.00    +0.000 N 
ATOM      4  C   UNL     1       2.982   4.304  17.295  0.00  0.00    +0.000 C 
ATOM      5  O   UNL     1       2.497   3.293  16.772  0.00  0.00    +0.000 OA
BRANCH   3   6
ATOM      6  C   UNL     1       1.451   3.928  19.185  0.00  0.00    +0.000 C 
ATOM      7  C   UNL     1       1.732   2.419  19.070  0.00  0.00    +0.000 C 
ATOM      8  C   UNL     1       2.685   1.896  20.139  0.00  0.00    +0.000 C 
ATOM      9  C   UNL     1       2.197   2.243  21.540  0.00  0.00    +0.000 C 
ATOM     10  C   UNL     1       1.929   3.734  21.723  0.00  0.00    +0.000 C 
ATOM     11  C   UNL     1       1.056   4.325  20.618  0.00  0.00    +0.000 C 
ENDBRANCH   3   6
ENDBRANCH   1   4
BRANCH   1  12
ATOM     12  N   UNL     1       5.025   4.168  15.892  0.00  0.00    +0.000 NA
ATOM     13  C   UNL     1       5.382   4.665  14.551  0.00  0.00    +0.000 C 
ATOM     14  C   UNL     1       6.777   4.046  14.766  0.00  0.00    +0.000 C 
ATOM     15  C   UNL     1       6.462   4.176  16.285  0.00  0.00    +0.000 C 
BRANCH  15  16
ATOM     16  C   UNL     1       7.046   5.443  17.079  0.00  0.00    +0.000 A 
ATOM     17  C   UNL     1       7.143   6.746  16.541  0.00  0.00    +0.000 A 
ATOM     18  C   UNL     1       7.721   7.805  17.250  0.00  0.00    +0.000 A 
ATOM     19  C   UNL     1       8.227   7.584  18.521  0.00  0.00    +0.000 A 
ATOM     20  F   UNL     1       8.792   8.595  19.195  0.00  0.00    +0.000 F 
ATOM     21  C   UNL     1       8.162   6.326  19.096  0.00  0.00    +0.000 A 
ATOM     22  C   UNL     1       7.578   5.278  18.381  0.00  0.00    +0.000 A 
ENDBRANCH  15  16
ENDBRANCH   1  12
TORSDOF 4
ENDMDL
MODEL 9
REMARK VINA RESULT:      -6.6      2.662      4.207
REMARK  Name = 
REMARK  5 active torsions:
REMARK  status: ('A' for Active; 'I' for Inactive)
REMARK    1  A    between atoms: C_1  and  N_2
REMARK    2  A    between atoms: N_2  and  C_17
REMARK    3  A    between atoms: C_3  and  C_5
REMARK    4  A    between atoms: C_5  and  N_6
REMARK    5  A    between atoms: C_9  and  C_10
REMARK                            x       y       z     vdW  Elec       q    Type
REMARK                         _______ _______ _______ _____ _____    ______ ____
ROOT
ATOM      1  C   UNL     1       2.737   6.791  19.200  0.00  0.00    +0.000 C 
ENDROOT
BRANCH   1   4
ATOM      2  C   UNL     1       1.915   9.322  17.864  0.00  0.00    +0.000 C 
ATOM      3  N   UNL     1       1.433   8.977  19.198  0.00  0.00    +0.000 N 
ATOM      4  C   UNL     1       1.811   7.814  19.895  0.00  0.00    +0.000 C 
ATOM      5  O   UNL     1       1.425   7.630  21.057  0.00  0.00    +0.000 OA
BRANCH   3   6
ATOM      6  C   UNL     1       0.583   9.945  19.939  0.00  0.00    +0.000 C 
ATOM      7  C   UNL     1       1.212  11.349  19.991  0.00  0.00    +0.000 C 
ATOM      8  C   UNL     1       0.954  12.177  18.738  0.00  0.00    +0.000 C 
ATOM      9  C   UNL     1      -0.536  12.271  18.428  0.00  0.00    +0.000 C 
ATOM     10  C   UNL     1      -1.210  10.906  18.335  0.00  0.00    +0.000 C 
ATOM     11  C   UNL     1      -0.899  10.002  19.526  0.00  0.00    +0.000 C 
ENDBRANCH   3   6
ENDBRANCH   1   4
BRANCH   1  12
ATOM     12  N   UNL     1       2.689   5.492  19.879  0.00  0.00    +0.000 NA
ATOM     13  C   UNL     1       1.750   4.557  19.234  0.00  0.00    +0.000 C 
ATOM     14  C   UNL     1       2.732   3.426  19.595  0.00  0.00    +0.000 C 
ATOM     15  C   UNL     1       3.812   4.546  19.630  0.00  0.00    +0.000 C 
BRANCH  15  16
ATOM     16  C   UNL     1       4.737   4.755  18.333  0.00  0.00    +0.000 A 
ATOM     17  C   UNL     1       4.354   4.408  17.018  0.00  0.00    +0.000 A 
ATOM     18  C   UNL     1       5.220   4.550  15.927  0.00  0.00    +0.000 A 
ATOM     19  C   UNL     1       6.502   5.035  16.128  0.00  0.00    +0.000 A 
ATOM     20  F   UNL     1       7.336   5.158  15.087  0.00  0.00    +0.000 F 
ATOM     21  C   UNL     1       6.932   5.387  17.397  0.00  0.00    +0.000 A 
ATOM     22  C   UNL     1       6.056   5.247  18.477  0.00  0.00    +0.000 A 
ENDBRANCH  15  16
ENDBRANCH   1  12
TORSDOF 4
ENDMDL
