MODEL 1
REMARK VINA RESULT:      -7.8      0.000      0.000
REMARK  Name = 
REMARK  4 active torsions:
REMARK  status: ('A' for Active; 'I' for Inactive)
REMARK    1  A    between atoms: S_2  and  N_4
REMARK    2  A    between atoms: S_2  and  C_14
REMARK    3  A    between atoms: N_4  and  C_5
REMARK    4  A    between atoms: C_5  and  C_6
REMARK                            x       y       z     vdW  Elec       q    Type
REMARK                         _______ _______ _______ _____ _____    ______ ____
ROOT
ATOM      1  O   UNL     1       1.604   2.602  21.465  0.00  0.00    +0.000 OA
ATOM      2  S   UNL     1       1.228   3.183  20.200  0.00  0.00    +0.000 S 
ATOM      3  O   UNL     1       0.217   2.582  19.356  0.00  0.00    +0.000 OA
ENDROOT
BRANCH   2   4
ATOM      4  C   UNL     1       2.694   3.346  19.241  0.00  0.00    +0.000 A 
ATOM      5  C   UNL     1       3.933   3.483  19.839  0.00  0.00    +0.000 A 
ATOM      6  C   UNL     1       5.051   3.701  19.032  0.00  0.00    +0.000 A 
ATOM      7  C   UNL     1       4.924   3.790  17.645  0.00  0.00    +0.000 A 
ATOM      8  N   UNL     1       6.020   3.987  16.837  0.00  0.00    +0.000 N 
ATOM      9  C   UNL     1       7.212   4.732  17.260  0.00  0.00    +0.000 C 
ATOM     10  C   UNL     1       7.424   5.960  16.360  0.00  0.00    +0.000 C 
ATOM     11  O   UNL     1       7.467   5.599  14.972  0.00  0.00    +0.000 OA
ATOM     12  C   UNL     1       6.225   4.984  14.585  0.00  0.00    +0.000 C 
ATOM     13  C   UNL     1       5.946   3.711  15.396  0.00  0.00    +0.000 C 
ATOM     14  N   UNL     1       3.703   3.650  17.073  0.00  0.00    +0.000 NA
ATOM     15  C   UNL     1       2.616   3.454  17.867  0.00  0.00    +0.000 A 
ENDBRANCH   2   4
BRANCH   2  16
ATOM     16  N   UNL     1       0.780   4.794  20.501  0.00  0.00    +0.000 NA
ATOM     17  H   UNL     1       0.056   4.854  21.218  0.00  0.00    +0.000 HD
BRANCH  16  18
ATOM     18  C   UNL     1       1.904   5.715  20.745  0.00  0.00    +0.000 C 
BRANCH  18  19
ATOM     19  C   UNL     1       1.571   7.144  20.380  0.00  0.00    +0.000 A 
ATOM     20  C   UNL     1       0.767   7.903  21.250  0.00  0.00    +0.000 A 
ATOM     21  C   UNL     1       0.427   9.223  20.942  0.00  0.00    +0.000 A 
ATOM     22  C   UNL     1       0.891   9.798  19.762  0.00  0.00    +0.000 A 
ATOM     23 CL   UNL     1       0.486  11.427  19.388  0.00  0.00    +0.000 Cl
ATOM     24  C   UNL     1       1.692   9.067  18.888  0.00  0.00    +0.000 A 
ATOM     25  C   UNL     1       2.038   7.749  19.201  0.00  0.00    +0.000 A 
ATOM     26 CL   UNL     1       3.061   6.904  18.096  0.00  0.00    +0.000 Cl
ENDBRANCH  18  19
ENDBRANCH  16  18
ENDBRANCH   2  16
TORSDOF 4
ENDMDL
MODEL 2
REMARK VINA RESULT:      -7.8      1.093      1.573
REMARK  Name = 
REMARK  4 active torsions:
REMARK  status: ('A' for Active; 'I' for Inactive)
REMARK    1  A    between atoms: S_2  and  N_4
REMARK    2  A    between atoms: S_2  and  C_14
REMARK    3  A    between atoms: N_4  and  C_5
REMARK    4  A    between atoms: C_5  and  C_6
REMARK                            x       y       z     vdW  Elec       q    Type
REMARK                         _______ _______ _______ _____ _____    ______ ____
ROOT
ATOM      1  O   UNL     1       1.525   2.397  21.278  0.00  0.00    +0.000 OA
ATOM      2  S   UNL     1       1.177   2.989  20.010  0.00  0.00    +0.000 S 
ATOM      3  O   UNL     1       0.215   2.374  19.120  0.00  0.00    +0.000 OA
ENDROOT
BRANCH   2   4
ATOM      4  C   UNL     1       2.670   3.214  19.108  0.00  0.00    +0.000 A 
ATOM      5  C   UNL     1       3.883   3.367  19.753  0.00  0.00    +0.000 A 
ATOM      6  C   UNL     1       5.023   3.635  18.992  0.00  0.00    +0.000 A 
ATOM      7  C   UNL     1       4.942   3.757  17.604  0.00  0.00    +0.000 A 
ATOM      8  N   UNL     1       6.060   4.003  16.841  0.00  0.00    +0.000 N 
ATOM      9  C   UNL     1       7.216   4.766  17.325  0.00  0.00    +0.000 C 
ATOM     10  C   UNL     1       7.427   6.022  16.464  0.00  0.00    +0.000 C 
ATOM     11  O   UNL     1       7.528   5.700  15.071  0.00  0.00    +0.000 OA
ATOM     12  C   UNL     1       6.317   5.063  14.624  0.00  0.00    +0.000 C 
ATOM     13  C   UNL     1       6.044   3.763  15.392  0.00  0.00    +0.000 C 
ATOM     14  N   UNL     1       3.745   3.601  16.986  0.00  0.00    +0.000 NA
ATOM     15  C   UNL     1       2.637   3.357  17.736  0.00  0.00    +0.000 A 
ENDBRANCH   2   4
BRANCH   2  16
ATOM     16  N   UNL     1       0.668   4.580  20.322  0.00  0.00    +0.000 NA
ATOM     17  H   UNL     1      -0.183   4.598  20.886  0.00  0.00    +0.000 HD
BRANCH  16  18
ATOM     18  C   UNL     1       1.716   5.475  20.841  0.00  0.00    +0.000 C 
BRANCH  18  19
ATOM     19  C   UNL     1       1.795   6.778  20.078  0.00  0.00    +0.000 A 
ATOM     20  C   UNL     1       2.515   6.821  18.869  0.00  0.00    +0.000 A 
ATOM     21  C   UNL     1       2.621   8.008  18.140  0.00  0.00    +0.000 A 
ATOM     22  C   UNL     1       2.005   9.165  18.611  0.00  0.00    +0.000 A 
ATOM     23 CL   UNL     1       2.121  10.624  17.709  0.00  0.00    +0.000 Cl
ATOM     24  C   UNL     1       1.284   9.145  19.802  0.00  0.00    +0.000 A 
ATOM     25  C   UNL     1       1.172   7.954  20.527  0.00  0.00    +0.000 A 
ATOM     26 CL   UNL     1       0.237   7.983  21.979  0.00  0.00    +0.000 Cl
ENDBRANCH  18  19
ENDBRANCH  16  18
ENDBRANCH   2  16
TORSDOF 4
ENDMDL
MODEL 3
REMARK VINA RESULT:      -7.7      3.627      7.408
REMARK  Name = 
REMARK  4 active torsions:
REMARK  status: ('A' for Active; 'I' for Inactive)
REMARK    1  A    between atoms: S_2  and  N_4
REMARK    2  A    between atoms: S_2  and  C_14
REMARK    3  A    between atoms: N_4  and  C_5
REMARK    4  A    between atoms: C_5  and  C_6
REMARK                            x       y       z     vdW  Elec       q    Type
REMARK                         _______ _______ _______ _____ _____    ______ ____
ROOT
ATOM      1  O   UNL     1       2.137   4.624  18.504  0.00  0.00    +0.000 OA
ATOM      2  S   UNL     1       2.609   5.373  19.643  0.00  0.00    +0.000 S 
ATOM      3  O   UNL     1       2.272   4.992  20.998  0.00  0.00    +0.000 OA
ENDROOT
BRANCH   2   4
ATOM      4  C   UNL     1       2.107   7.043  19.419  0.00  0.00    +0.000 A 
ATOM      5  C   UNL     1       2.390   7.729  18.252  0.00  0.00    +0.000 A 
ATOM      6  C   UNL     1       2.049   9.080  18.164  0.00  0.00    +0.000 A 
ATOM      7  C   UNL     1       1.442   9.735  19.237  0.00  0.00    +0.000 A 
ATOM      8  N   UNL     1       1.085  11.061  19.156  0.00  0.00    +0.000 N 
ATOM      9  C   UNL     1       1.806  12.044  18.338  0.00  0.00    +0.000 C 
ATOM     10  C   UNL     1       2.383  13.159  19.225  0.00  0.00    +0.000 C 
ATOM     11  O   UNL     1       1.372  13.763  20.043  0.00  0.00    +0.000 OA
ATOM     12  C   UNL     1       0.784  12.776  20.910  0.00  0.00    +0.000 C 
ATOM     13  C   UNL     1       0.132  11.638  20.113  0.00  0.00    +0.000 C 
ATOM     14  N   UNL     1       1.167   9.048  20.372  0.00  0.00    +0.000 NA
ATOM     15  C   UNL     1       1.517   7.737  20.457  0.00  0.00    +0.000 A 
ENDBRANCH   2   4
BRANCH   2  16
ATOM     16  N   UNL     1       4.302   5.457  19.521  0.00  0.00    +0.000 NA
ATOM     17  H   UNL     1       4.724   5.796  20.387  0.00  0.00    +0.000 HD
BRANCH  16  18
ATOM     18  C   UNL     1       4.948   4.235  19.010  0.00  0.00    +0.000 C 
BRANCH  18  19
ATOM     19  C   UNL     1       5.572   4.438  17.648  0.00  0.00    +0.000 A 
ATOM     20  C   UNL     1       4.856   4.043  16.501  0.00  0.00    +0.000 A 
ATOM     21  C   UNL     1       5.403   4.203  15.226  0.00  0.00    +0.000 A 
ATOM     22  C   UNL     1       6.670   4.762  15.083  0.00  0.00    +0.000 A 
ATOM     23 CL   UNL     1       7.341   4.972  13.513  0.00  0.00    +0.000 Cl
ATOM     24  C   UNL     1       7.395   5.163  16.202  0.00  0.00    +0.000 A 
ATOM     25  C   UNL     1       6.843   5.010  17.478  0.00  0.00    +0.000 A 
ATOM     26 CL   UNL     1       7.775   5.557  18.826  0.00  0.00    +0.000 Cl
ENDBRANCH  18  19
ENDBRANCH  16  18
ENDBRANCH   2  16
TORSDOF 4
ENDMDL
MODEL 4
REMARK VINA RESULT:      -7.6      2.842      6.653
REMARK  Name = 
REMARK  4 active torsions:
REMARK  status: ('A' for Active; 'I' for Inactive)
REMARK    1  A    between atoms: S_2  and  N_4
REMARK    2  A    between atoms: S_2  and  C_14
REMARK    3  A    between atoms: N_4  and  C_5
REMARK    4  A    between atoms: C_5  and  C_6
REMARK                            x       y       z     vdW  Elec       q    Type
REMARK                         _______ _______ _______ _____ _____    ______ ____
ROOT
ATOM      1  O   UNL     1       2.208   2.592  17.321  0.00  0.00    +0.000 OA
ATOM      2  S   UNL     1       2.750   2.845  18.634  0.00  0.00    +0.000 S 
ATOM      3  O   UNL     1       2.318   2.093  19.793  0.00  0.00    +0.000 OA
ENDROOT
BRANCH   2   4
ATOM      4  C   UNL     1       2.507   4.551  18.983  0.00  0.00    +0.000 A 
ATOM      5  C   UNL     1       2.426   5.015  20.284  0.00  0.00    +0.000 A 
ATOM      6  C   UNL     1       2.141   6.363  20.502  0.00  0.00    +0.000 A 
ATOM      7  C   UNL     1       1.928   7.231  19.430  0.00  0.00    +0.000 A 
ATOM      8  N   UNL     1       1.663   8.566  19.632  0.00  0.00    +0.000 N 
ATOM      9  C   UNL     1       0.962   9.081  20.814  0.00  0.00    +0.000 C 
ATOM     10  C   UNL     1      -0.341   9.785  20.400  0.00  0.00    +0.000 C 
ATOM     11  O   UNL     1      -0.105  10.802  19.417  0.00  0.00    +0.000 OA
ATOM     12  C   UNL     1       0.470  10.219  18.234  0.00  0.00    +0.000 C 
ATOM     13  C   UNL     1       1.809   9.532  18.535  0.00  0.00    +0.000 C 
ATOM     14  N   UNL     1       2.014   6.762  18.161  0.00  0.00    +0.000 NA
ATOM     15  C   UNL     1       2.276   5.444  17.956  0.00  0.00    +0.000 A 
ENDBRANCH   2   4
BRANCH   2  16
ATOM     16  N   UNL     1       4.439   2.710  18.513  0.00  0.00    +0.000 NA
ATOM     17  H   UNL     1       4.713   2.107  17.735  0.00  0.00    +0.000 HD
BRANCH  16  18
ATOM     18  C   UNL     1       5.166   3.991  18.527  0.00  0.00    +0.000 C 
BRANCH  18  19
ATOM     19  C   UNL     1       5.798   4.312  17.191  0.00  0.00    +0.000 A 
ATOM     20  C   UNL     1       5.221   3.791  16.018  0.00  0.00    +0.000 A 
ATOM     21  C   UNL     1       5.782   4.054  14.765  0.00  0.00    +0.000 A 
ATOM     22  C   UNL     1       6.925   4.844  14.673  0.00  0.00    +0.000 A 
ATOM     23 CL   UNL     1       7.609   5.182  13.132  0.00  0.00    +0.000 Cl
ATOM     24  C   UNL     1       7.511   5.374  15.820  0.00  0.00    +0.000 A 
ATOM     25  C   UNL     1       6.944   5.116  17.072  0.00  0.00    +0.000 A 
ATOM     26 CL   UNL     1       7.695   5.828  18.455  0.00  0.00    +0.000 Cl
ENDBRANCH  18  19
ENDBRANCH  16  18
ENDBRANCH   2  16
TORSDOF 4
ENDMDL
MODEL 5
REMARK VINA RESULT:      -7.5      4.935      6.438
REMARK  Name = 
REMARK  4 active torsions:
REMARK  status: ('A' for Active; 'I' for Inactive)
REMARK    1  A    between atoms: S_2  and  N_4
REMARK    2  A    between atoms: S_2  and  C_14
REMARK    3  A    between atoms: N_4  and  C_5
REMARK    4  A    between atoms: C_5  and  C_6
REMARK                            x       y       z     vdW  Elec       q    Type
REMARK                         _______ _______ _______ _____ _____    ______ ____
ROOT
ATOM      1  O   UNL     1       1.570  12.017  19.273  0.00  0.00    +0.000 OA
ATOM      2  S   UNL     1       0.586  10.963  19.303  0.00  0.00    +0.000 S 
ATOM      3  O   UNL     1      -0.340  10.817  20.407  0.00  0.00    +0.000 OA
ENDROOT
BRANCH   2   4
ATOM      4  C   UNL     1       1.444   9.438  19.122  0.00  0.00    +0.000 A 
ATOM      5  C   UNL     1       2.051   9.093  17.929  0.00  0.00    +0.000 A 
ATOM      6  C   UNL     1       2.639   7.832  17.811  0.00  0.00    +0.000 A 
ATOM      7  C   UNL     1       2.606   6.927  18.874  0.00  0.00    +0.000 A 
ATOM      8  N   UNL     1       3.196   5.688  18.777  0.00  0.00    +0.000 N 
ATOM      9  C   UNL     1       3.315   4.946  17.516  0.00  0.00    +0.000 C 
ATOM     10  C   UNL     1       2.560   3.610  17.608  0.00  0.00    +0.000 C 
ATOM     11  O   UNL     1       2.985   2.838  18.740  0.00  0.00    +0.000 OA
ATOM     12  C   UNL     1       2.731   3.566  19.955  0.00  0.00    +0.000 C 
ATOM     13  C   UNL     1       3.487   4.902  19.983  0.00  0.00    +0.000 C 
ATOM     14  N   UNL     1       2.010   7.282  20.038  0.00  0.00    +0.000 NA
ATOM     15  C   UNL     1       1.425   8.506  20.139  0.00  0.00    +0.000 A 
ENDBRANCH   2   4
BRANCH   2  16
ATOM     16  N   UNL     1      -0.314  11.076  17.867  0.00  0.00    +0.000 NA
ATOM     17  H   UNL     1       0.292  11.108  17.046  0.00  0.00    +0.000 HD
BRANCH  16  18
ATOM     18  C   UNL     1      -1.401  10.090  17.737  0.00  0.00    +0.000 C 
BRANCH  18  19
ATOM     19  C   UNL     1      -2.758  10.741  17.586  0.00  0.00    +0.000 A 
ATOM     20  C   UNL     1      -3.346  11.364  18.703  0.00  0.00    +0.000 A 
ATOM     21  C   UNL     1      -4.603  11.967  18.607  0.00  0.00    +0.000 A 
ATOM     22  C   UNL     1      -5.283  11.955  17.393  0.00  0.00    +0.000 A 
ATOM     23 CL   UNL     1      -6.825  12.708  17.269  0.00  0.00    +0.000 Cl
ATOM     24  C   UNL     1      -4.719  11.348  16.274  0.00  0.00    +0.000 A 
ATOM     25  C   UNL     1      -3.458  10.753  16.369  0.00  0.00    +0.000 A 
ATOM     26 CL   UNL     1      -2.794  10.046  14.939  0.00  0.00    +0.000 Cl
ENDBRANCH  18  19
ENDBRANCH  16  18
ENDBRANCH   2  16
TORSDOF 4
ENDMDL
MODEL 6
REMARK VINA RESULT:      -7.5      2.962      6.289
REMARK  Name = 
REMARK  4 active torsions:
REMARK  status: ('A' for Active; 'I' for Inactive)
REMARK    1  A    between atoms: S_2  and  N_4
REMARK    2  A    between atoms: S_2  and  C_14
REMARK    3  A    between atoms: N_4  and  C_5
REMARK    4  A    between atoms: C_5  and  C_6
REMARK                            x       y       z     vdW  Elec       q    Type
REMARK                         _______ _______ _______ _____ _____    ______ ____
ROOT
ATOM      1  O   UNL     1       3.041   2.970  17.616  0.00  0.00    +0.000 OA
ATOM      2  S   UNL     1       3.497   3.373  18.925  0.00  0.00    +0.000 S 
ATOM      3  O   UNL     1       3.146   2.628  20.116  0.00  0.00    +0.000 OA
ENDROOT
BRANCH   2   4
ATOM      4  C   UNL     1       2.988   5.039  19.168  0.00  0.00    +0.000 A 
ATOM      5  C   UNL     1       2.643   5.509  20.422  0.00  0.00    +0.000 A 
ATOM      6  C   UNL     1       2.158   6.813  20.543  0.00  0.00    +0.000 A 
ATOM      7  C   UNL     1       2.012   7.628  19.419  0.00  0.00    +0.000 A 
ATOM      8  N   UNL     1       1.552   8.920  19.527  0.00  0.00    +0.000 N 
ATOM      9  C   UNL     1       0.612   9.359  20.565  0.00  0.00    +0.000 C 
ATOM     10  C   UNL     1      -0.686   9.880  19.928  0.00  0.00    +0.000 C 
ATOM     11  O   UNL     1      -0.426  10.902  18.956  0.00  0.00    +0.000 OA
ATOM     12  C   UNL     1       0.399  10.379  17.899  0.00  0.00    +0.000 C 
ATOM     13  C   UNL     1       1.749   9.877  18.431  0.00  0.00    +0.000 C 
ATOM     14  N   UNL     1       2.358   7.153  18.197  0.00  0.00    +0.000 NA
ATOM     15  C   UNL     1       2.813   5.876  18.085  0.00  0.00    +0.000 A 
ENDBRANCH   2   4
BRANCH   2  16
ATOM     16  N   UNL     1       5.190   3.490  18.851  0.00  0.00    +0.000 NA
ATOM     17  H   UNL     1       5.639   2.619  19.137  0.00  0.00    +0.000 HD
BRANCH  16  18
ATOM     18  C   UNL     1       5.720   4.019  17.583  0.00  0.00    +0.000 C 
BRANCH  18  19
ATOM     19  C   UNL     1       6.478   5.314  17.768  0.00  0.00    +0.000 A 
ATOM     20  C   UNL     1       7.412   5.417  18.816  0.00  0.00    +0.000 A 
ATOM     21  C   UNL     1       8.124   6.601  19.027  0.00  0.00    +0.000 A 
ATOM     22  C   UNL     1       7.912   7.693  18.190  0.00  0.00    +0.000 A 
ATOM     23 CL   UNL     1       8.797   9.146  18.439  0.00  0.00    +0.000 Cl
ATOM     24  C   UNL     1       6.996   7.613  17.144  0.00  0.00    +0.000 A 
ATOM     25  C   UNL     1       6.289   6.425  16.929  0.00  0.00    +0.000 A 
ATOM     26 CL   UNL     1       5.192   6.374  15.596  0.00  0.00    +0.000 Cl
ENDBRANCH  18  19
ENDBRANCH  16  18
ENDBRANCH   2  16
TORSDOF 4
ENDMDL
MODEL 7
REMARK VINA RESULT:      -7.3      3.671      5.443
REMARK  Name = 
REMARK  4 active torsions:
REMARK  status: ('A' for Active; 'I' for Inactive)
REMARK    1  A    between atoms: S_2  and  N_4
REMARK    2  A    between atoms: S_2  and  C_14
REMARK    3  A    between atoms: N_4  and  C_5
REMARK    4  A    between atoms: C_5  and  C_6
REMARK                            x       y       z     vdW  Elec       q    Type
REMARK                         _______ _______ _______ _____ _____    ______ ____
ROOT
ATOM      1  O   UNL     1       1.482   9.520  22.543  0.00  0.00    +0.000 OA
ATOM      2  S   UNL     1       0.664   9.054  21.450  0.00  0.00    +0.000 S 
ATOM      3  O   UNL     1      -0.698   8.610  21.654  0.00  0.00    +0.000 OA
ENDROOT
BRANCH   2   4
ATOM      4  C   UNL     1       1.538   7.747  20.661  0.00  0.00    +0.000 A 
ATOM      5  C   UNL     1       2.082   7.905  19.399  0.00  0.00    +0.000 A 
ATOM      6  C   UNL     1       2.684   6.807  18.782  0.00  0.00    +0.000 A 
ATOM      7  C   UNL     1       2.729   5.566  19.419  0.00  0.00    +0.000 A 
ATOM      8  N   UNL     1       3.335   4.481  18.830  0.00  0.00    +0.000 N 
ATOM      9  C   UNL     1       3.395   4.279  17.377  0.00  0.00    +0.000 C 
ATOM     10  C   UNL     1       2.671   2.980  16.987  0.00  0.00    +0.000 C 
ATOM     11  O   UNL     1       3.173   1.853  17.717  0.00  0.00    +0.000 OA
ATOM     12  C   UNL     1       2.977   2.054  19.129  0.00  0.00    +0.000 C 
ATOM     13  C   UNL     1       3.708   3.307  19.629  0.00  0.00    +0.000 C 
ATOM     14  N   UNL     1       2.194   5.428  20.657  0.00  0.00    +0.000 NA
ATOM     15  C   UNL     1       1.594   6.498  21.245  0.00  0.00    +0.000 A 
ENDBRANCH   2   4
BRANCH   2  16
ATOM     16  N   UNL     1       0.653  10.280  20.274  0.00  0.00    +0.000 NA
ATOM     17  H   UNL     1       0.856   9.910  19.345  0.00  0.00    +0.000 HD
BRANCH  16  18
ATOM     18  C   UNL     1      -0.535  11.150  20.297  0.00  0.00    +0.000 C 
BRANCH  18  19
ATOM     19  C   UNL     1      -1.399  10.982  19.068  0.00  0.00    +0.000 A 
ATOM     20  C   UNL     1      -0.986  10.093  18.057  0.00  0.00    +0.000 A 
ATOM     21  C   UNL     1      -1.751   9.918  16.901  0.00  0.00    +0.000 A 
ATOM     22  C   UNL     1      -2.938  10.627  16.745  0.00  0.00    +0.000 A 
ATOM     23 CL   UNL     1      -3.889  10.404  15.329  0.00  0.00    +0.000 Cl
ATOM     24  C   UNL     1      -3.369  11.509  17.733  0.00  0.00    +0.000 A 
ATOM     25  C   UNL     1      -2.607  11.677  18.894  0.00  0.00    +0.000 A 
ATOM     26 CL   UNL     1      -3.209  12.758  20.099  0.00  0.00    +0.000 Cl
ENDBRANCH  18  19
ENDBRANCH  16  18
ENDBRANCH   2  16
TORSDOF 4
ENDMDL
MODEL 8
REMARK VINA RESULT:      -7.3      1.199      1.327
REMARK  Name = 
REMARK  4 active torsions:
REMARK  status: ('A' for Active; 'I' for Inactive)
REMARK    1  A    between atoms: S_2  and  N_4
REMARK    2  A    between atoms: S_2  and  C_14
REMARK    3  A    between atoms: N_4  and  C_5
REMARK    4  A    between atoms: C_5  and  C_6
REMARK                            x       y       z     vdW  Elec       q    Type
REMARK                         _______ _______ _______ _____ _____    ______ ____
ROOT
ATOM      1  O   UNL     1       2.246   3.532  21.932  0.00  0.00    +0.000 OA
ATOM      2  S   UNL     1       1.850   4.304  20.780  0.00  0.00    +0.000 S 
ATOM      3  O   UNL     1       0.589   4.077  20.107  0.00  0.00    +0.000 OA
ENDROOT
BRANCH   2   4
ATOM      4  C   UNL     1       3.129   4.151  19.581  0.00  0.00    +0.000 A 
ATOM      5  C   UNL     1       4.456   4.341  19.918  0.00  0.00    +0.000 A 
ATOM      6  C   UNL     1       5.421   4.298  18.909  0.00  0.00    +0.000 A 
ATOM      7  C   UNL     1       5.054   4.077  17.580  0.00  0.00    +0.000 A 
ATOM      8  N   UNL     1       5.996   4.015  16.579  0.00  0.00    +0.000 N 
ATOM      9  C   UNL     1       7.261   4.759  16.613  0.00  0.00    +0.000 C 
ATOM     10  C   UNL     1       7.341   5.733  15.427  0.00  0.00    +0.000 C 
ATOM     11  O   UNL     1       7.132   5.065  14.176  0.00  0.00    +0.000 OA
ATOM     12  C   UNL     1       5.827   4.457  14.154  0.00  0.00    +0.000 C 
ATOM     13  C   UNL     1       5.665   3.423  15.276  0.00  0.00    +0.000 C 
ATOM     14  N   UNL     1       3.749   3.888  17.267  0.00  0.00    +0.000 NA
ATOM     15  C   UNL     1       2.814   3.948  18.253  0.00  0.00    +0.000 A 
ENDBRANCH   2   4
BRANCH   2  16
ATOM     16  N   UNL     1       1.928   5.943  21.222  0.00  0.00    +0.000 NA
ATOM     17  H   UNL     1       2.649   6.107  21.927  0.00  0.00    +0.000 HD
BRANCH  16  18
ATOM     18  C   UNL     1       2.005   6.887  20.094  0.00  0.00    +0.000 C 
BRANCH  18  19
ATOM     19  C   UNL     1       1.431   8.244  20.436  0.00  0.00    +0.000 A 
ATOM     20  C   UNL     1       1.097   8.529  21.773  0.00  0.00    +0.000 A 
ATOM     21  C   UNL     1       0.553   9.766  22.127  0.00  0.00    +0.000 A 
ATOM     22  C   UNL     1       0.341  10.733  21.148  0.00  0.00    +0.000 A 
ATOM     23 CL   UNL     1      -0.315  12.262  21.583  0.00  0.00    +0.000 Cl
ATOM     24  C   UNL     1       0.668  10.474  19.819  0.00  0.00    +0.000 A 
ATOM     25  C   UNL     1       1.219   9.238  19.467  0.00  0.00    +0.000 A 
ATOM     26 CL   UNL     1       1.636   8.988  17.809  0.00  0.00    +0.000 Cl
ENDBRANCH  18  19
ENDBRANCH  16  18
ENDBRANCH   2  16
TORSDOF 4
ENDMDL
MODEL 9
REMARK VINA RESULT:      -7.3      3.610      7.593
REMARK  Name = 
REMARK  4 active torsions:
REMARK  status: ('A' for Active; 'I' for Inactive)
REMARK    1  A    between atoms: S_2  and  N_4
REMARK    2  A    between atoms: S_2  and  C_14
REMARK    3  A    between atoms: N_4  and  C_5
REMARK    4  A    between atoms: C_5  and  C_6
REMARK                            x       y       z     vdW  Elec       q    Type
REMARK                         _______ _______ _______ _____ _____    ______ ____
ROOT
ATOM      1  O   UNL     1       2.147   4.354  19.763  0.00  0.00    +0.000 OA
ATOM      2  S   UNL     1       3.183   5.223  19.260  0.00  0.00    +0.000 S 
ATOM      3  O   UNL     1       4.466   5.339  19.920  0.00  0.00    +0.000 OA
ENDROOT
BRANCH   2   4
ATOM      4  C   UNL     1       2.498   6.838  19.136  0.00  0.00    +0.000 A 
ATOM      5  C   UNL     1       2.700   7.621  18.014  0.00  0.00    +0.000 A 
ATOM      6  C   UNL     1       2.212   8.929  18.007  0.00  0.00    +0.000 A 
ATOM      7  C   UNL     1       1.541   9.446  19.117  0.00  0.00    +0.000 A 
ATOM      8  N   UNL     1       1.040  10.728  19.116  0.00  0.00    +0.000 N 
ATOM      9  C   UNL     1       1.645  11.831  18.362  0.00  0.00    +0.000 C 
ATOM     10  C   UNL     1       2.099  12.947  19.317  0.00  0.00    +0.000 C 
ATOM     11  O   UNL     1       1.031  13.386  20.166  0.00  0.00    +0.000 OA
ATOM     12  C   UNL     1       0.559  12.289  20.970  0.00  0.00    +0.000 C 
ATOM     13  C   UNL     1       0.033  11.137  20.103  0.00  0.00    +0.000 C 
ATOM     14  N   UNL     1       1.348   8.665  20.207  0.00  0.00    +0.000 NA
ATOM     15  C   UNL     1       1.840   7.398  20.213  0.00  0.00    +0.000 A 
ENDBRANCH   2   4
BRANCH   2  16
ATOM     16  N   UNL     1       3.456   4.792  17.640  0.00  0.00    +0.000 NA
ATOM     17  H   UNL     1       3.534   5.615  17.041  0.00  0.00    +0.000 HD
BRANCH  16  18
ATOM     18  C   UNL     1       4.550   3.827  17.431  0.00  0.00    +0.000 C 
BRANCH  18  19
ATOM     19  C   UNL     1       5.440   4.204  16.269  0.00  0.00    +0.000 A 
ATOM     20  C   UNL     1       4.939   4.090  14.958  0.00  0.00    +0.000 A 
ATOM     21  C   UNL     1       5.735   4.417  13.857  0.00  0.00    +0.000 A 
ATOM     22  C   UNL     1       7.038   4.865  14.055  0.00  0.00    +0.000 A 
ATOM     23 CL   UNL     1       8.015   5.281  12.702  0.00  0.00    +0.000 Cl
ATOM     24  C   UNL     1       7.554   4.988  15.343  0.00  0.00    +0.000 A 
ATOM     25  C   UNL     1       6.754   4.668  16.444  0.00  0.00    +0.000 A 
ATOM     26 CL   UNL     1       7.436   4.874  18.018  0.00  0.00    +0.000 Cl
ENDBRANCH  18  19
ENDBRANCH  16  18
ENDBRANCH   2  16
TORSDOF 4
ENDMDL
