MODEL 1
REMARK VINA RESULT:      -7.6      0.000      0.000
REMARK  Name = 
REMARK  9 active torsions:
REMARK  status: ('A' for Active; 'I' for Inactive)
REMARK    1  A    between atoms: C_1  and  C_2
REMARK    2  A    between atoms: C_2  and  N_3
REMARK    3  A    between atoms: C_2  and  C_26
REMARK    4  A    between atoms: C_4  and  C_6
REMARK    5  A    between atoms: C_7  and  C_8
REMARK    6  A    between atoms: N_16  and  C_17
REMARK    7  A    between atoms: C_17  and  C_18
REMARK    8  A    between atoms: C_29  and  C_30
REMARK    9  A    between atoms: C_30  and  O_32
REMARK                            x       y       z     vdW  Elec       q    Type
REMARK                         _______ _______ _______ _____ _____    ______ ____
ROOT
ATOM      1  C   UNL     1      -0.613  12.574  20.946  0.00  0.00    +0.000 A 
ATOM      2  C   UNL     1      -0.877  12.248  22.274  0.00  0.00    +0.000 A 
ATOM      3  N   UNL     1      -0.042  11.240  22.683  0.00  0.00    +0.000 NA
ATOM      4  N   UNL     1       0.762  10.945  21.681  0.00  0.00    +0.000 NA
ATOM      5  N   UNL     1       0.518  11.827  20.699  0.00  0.00    +0.000 N 
ENDROOT
BRANCH   2   6
ATOM      6  C   UNL     1      -1.844  12.832  23.185  0.00  0.00    +0.000 A 
ATOM      7  C   UNL     1      -3.055  12.208  23.500  0.00  0.00    +0.000 A 
ATOM      8  C   UNL     1      -3.952  12.812  24.386  0.00  0.00    +0.000 A 
ATOM      9  C   UNL     1      -3.643  14.038  24.973  0.00  0.00    +0.000 A 
ATOM     10  C   UNL     1      -2.432  14.662  24.681  0.00  0.00    +0.000 A 
ATOM     11  C   UNL     1      -1.537  14.059  23.795  0.00  0.00    +0.000 A 
ENDBRANCH   2   6
BRANCH   1  13
ATOM     12  N   UNL     1      -2.505  13.367  19.598  0.00  0.00    +0.000 N 
ATOM     13  C   UNL     1      -1.241  13.561  20.108  0.00  0.00    +0.000 C 
ATOM     14  O   UNL     1      -0.722  14.648  19.854  0.00  0.00    +0.000 OA
ATOM     15  H   UNL     1      -2.810  14.183  19.079  0.00  0.00    +0.000 HD
BRANCH  12  17
ATOM     16  C   UNL     1      -4.739  12.375  20.010  0.00  0.00    +0.000 C 
ATOM     17  C   UNL     1      -3.329  12.172  19.471  0.00  0.00    +0.000 C 
BRANCH  17  18
ATOM     18  C   UNL     1      -3.322  11.623  18.038  0.00  0.00    +0.000 A 
ATOM     19  C   UNL     1      -2.270  10.847  17.514  0.00  0.00    +0.000 A 
ATOM     20  C   UNL     1      -2.348  10.300  16.227  0.00  0.00    +0.000 A 
ATOM     21  C   UNL     1      -3.476  10.521  15.433  0.00  0.00    +0.000 A 
ATOM     22  C   UNL     1      -4.552  11.243  15.958  0.00  0.00    +0.000 A 
ATOM     23  C   UNL     1      -4.471  11.790  17.242  0.00  0.00    +0.000 A 
BRANCH  21  24
ATOM     24  C   UNL     1      -3.500   9.930  14.070  0.00  0.00    +0.000 C 
ATOM     25  O   UNL     1      -2.491   9.757  13.409  0.00  0.00    +0.000 OA
BRANCH  24  26
ATOM     26  O   UNL     1      -4.737   9.645  13.613  0.00  0.00    +0.000 OA
ATOM     27  H   UNL     1      -5.448   9.660  14.279  0.00  0.00    +0.000 HD
ENDBRANCH  24  26
ENDBRANCH  21  24
ENDBRANCH  17  18
ENDBRANCH  12  17
ENDBRANCH   1  13
BRANCH   5  28
ATOM     28  C   UNL     1       1.398  11.835  19.547  0.00  0.00    +0.000 C 
BRANCH  28  29
ATOM     29  C   UNL     1       2.219  13.074  19.413  0.00  0.00    +0.000 A 
ATOM     30  C   UNL     1       2.398  13.645  18.137  0.00  0.00    +0.000 A 
ATOM     31  C   UNL     1       3.154  14.809  17.998  0.00  0.00    +0.000 A 
ATOM     32  C   UNL     1       3.715  15.389  19.123  0.00  0.00    +0.000 A 
ATOM     33  F   UNL     1       4.427  16.520  18.984  0.00  0.00    +0.000 F 
ATOM     34  C   UNL     1       3.560  14.815  20.380  0.00  0.00    +0.000 A 
ATOM     35  F   UNL     1       4.122  15.372  21.459  0.00  0.00    +0.000 F 
ATOM     36  C   UNL     1       2.816  13.654  20.534  0.00  0.00    +0.000 A 
ENDBRANCH  28  29
ENDBRANCH   5  28
TORSDOF 8
ENDMDL
MODEL 2
REMARK VINA RESULT:      -7.6      4.212      7.190
REMARK  Name = 
REMARK  9 active torsions:
REMARK  status: ('A' for Active; 'I' for Inactive)
REMARK    1  A    between atoms: C_1  and  C_2
REMARK    2  A    between atoms: C_2  and  N_3
REMARK    3  A    between atoms: C_2  and  C_26
REMARK    4  A    between atoms: C_4  and  C_6
REMARK    5  A    between atoms: C_7  and  C_8
REMARK    6  A    between atoms: N_16  and  C_17
REMARK    7  A    between atoms: C_17  and  C_18
REMARK    8  A    between atoms: C_29  and  C_30
REMARK    9  A    between atoms: C_30  and  O_32
REMARK                            x       y       z     vdW  Elec       q    Type
REMARK                         _______ _______ _______ _____ _____    ______ ____
ROOT
ATOM      1  C   UNL     1      -0.698  12.662  21.124  0.00  0.00    +0.000 A 
ATOM      2  C   UNL     1       0.304  13.628  21.095  0.00  0.00    +0.000 A 
ATOM      3  N   UNL     1       0.326  14.315  22.282  0.00  0.00    +0.000 NA
ATOM      4  N   UNL     1      -0.594  13.796  23.070  0.00  0.00    +0.000 NA
ATOM      5  N   UNL     1      -1.107  12.729  22.438  0.00  0.00    +0.000 N 
ENDROOT
BRANCH   2   6
ATOM      6  C   UNL     1       1.251  13.935  20.039  0.00  0.00    +0.000 A 
ATOM      7  C   UNL     1       1.974  12.946  19.364  0.00  0.00    +0.000 A 
ATOM      8  C   UNL     1       2.873  13.294  18.353  0.00  0.00    +0.000 A 
ATOM      9  C   UNL     1       3.051  14.631  17.999  0.00  0.00    +0.000 A 
ATOM     10  C   UNL     1       2.325  15.625  18.651  0.00  0.00    +0.000 A 
ATOM     11  C   UNL     1       1.427  15.276  19.663  0.00  0.00    +0.000 A 
ENDBRANCH   2   6
BRANCH   1  13
ATOM     12  N   UNL     1      -0.712  10.396  20.179  0.00  0.00    +0.000 N 
ATOM     13  C   UNL     1      -1.085  11.720  20.107  0.00  0.00    +0.000 C 
ATOM     14  O   UNL     1      -1.815  12.021  19.163  0.00  0.00    +0.000 OA
ATOM     15  H   UNL     1      -1.117   9.870  19.412  0.00  0.00    +0.000 HD
BRANCH  12  17
ATOM     16  C   UNL     1      -0.293   8.929  22.132  0.00  0.00    +0.000 C 
ATOM     17  C   UNL     1       0.303   9.714  20.970  0.00  0.00    +0.000 C 
BRANCH  17  18
ATOM     18  C   UNL     1       1.229   8.857  20.096  0.00  0.00    +0.000 A 
ATOM     19  C   UNL     1       1.755   7.619  20.511  0.00  0.00    +0.000 A 
ATOM     20  C   UNL     1       2.529   6.837  19.644  0.00  0.00    +0.000 A 
ATOM     21  C   UNL     1       2.797   7.275  18.346  0.00  0.00    +0.000 A 
ATOM     22  C   UNL     1       2.236   8.476  17.899  0.00  0.00    +0.000 A 
ATOM     23  C   UNL     1       1.466   9.257  18.768  0.00  0.00    +0.000 A 
BRANCH  21  24
ATOM     24  C   UNL     1       3.635   6.412  17.473  0.00  0.00    +0.000 C 
ATOM     25  O   UNL     1       4.550   6.851  16.798  0.00  0.00    +0.000 OA
BRANCH  24  26
ATOM     26  O   UNL     1       3.266   5.115  17.461  0.00  0.00    +0.000 OA
ATOM     27  H   UNL     1       2.458   4.909  16.956  0.00  0.00    +0.000 HD
ENDBRANCH  24  26
ENDBRANCH  21  24
ENDBRANCH  17  18
ENDBRANCH  12  17
ENDBRANCH   1  13
BRANCH   5  28
ATOM     28  C   UNL     1      -2.017  11.868  23.168  0.00  0.00    +0.000 C 
BRANCH  28  29
ATOM     29  C   UNL     1      -3.427  12.356  23.200  0.00  0.00    +0.000 A 
ATOM     30  C   UNL     1      -4.130  12.349  24.421  0.00  0.00    +0.000 A 
ATOM     31  C   UNL     1      -5.445  12.811  24.467  0.00  0.00    +0.000 A 
ATOM     32  C   UNL     1      -6.039  13.277  23.306  0.00  0.00    +0.000 A 
ATOM     33  F   UNL     1      -7.299  13.739  23.362  0.00  0.00    +0.000 F 
ATOM     34  C   UNL     1      -5.356  13.265  22.095  0.00  0.00    +0.000 A 
ATOM     35  F   UNL     1      -5.945  13.700  20.975  0.00  0.00    +0.000 F 
ATOM     36  C   UNL     1      -4.050  12.802  22.032  0.00  0.00    +0.000 A 
ENDBRANCH  28  29
ENDBRANCH   5  28
TORSDOF 8
ENDMDL
MODEL 3
REMARK VINA RESULT:      -7.6      0.468      1.512
REMARK  Name = 
REMARK  9 active torsions:
REMARK  status: ('A' for Active; 'I' for Inactive)
REMARK    1  A    between atoms: C_1  and  C_2
REMARK    2  A    between atoms: C_2  and  N_3
REMARK    3  A    between atoms: C_2  and  C_26
REMARK    4  A    between atoms: C_4  and  C_6
REMARK    5  A    between atoms: C_7  and  C_8
REMARK    6  A    between atoms: N_16  and  C_17
REMARK    7  A    between atoms: C_17  and  C_18
REMARK    8  A    between atoms: C_29  and  C_30
REMARK    9  A    between atoms: C_30  and  O_32
REMARK                            x       y       z     vdW  Elec       q    Type
REMARK                         _______ _______ _______ _____ _____    ______ ____
ROOT
ATOM      1  C   UNL     1      -0.630  12.591  20.880  0.00  0.00    +0.000 A 
ATOM      2  C   UNL     1      -0.866  12.265  22.213  0.00  0.00    +0.000 A 
ATOM      3  N   UNL     1       0.025  11.307  22.625  0.00  0.00    +0.000 NA
ATOM      4  N   UNL     1       0.835  11.045  21.619  0.00  0.00    +0.000 NA
ATOM      5  N   UNL     1       0.537  11.903  20.631  0.00  0.00    +0.000 N 
ENDROOT
BRANCH   2   6
ATOM      6  C   UNL     1      -1.856  12.805  23.127  0.00  0.00    +0.000 A 
ATOM      7  C   UNL     1      -3.023  12.115  23.470  0.00  0.00    +0.000 A 
ATOM      8  C   UNL     1      -3.943  12.680  24.356  0.00  0.00    +0.000 A 
ATOM      9  C   UNL     1      -3.702  13.933  24.917  0.00  0.00    +0.000 A 
ATOM     10  C   UNL     1      -2.536  14.625  24.598  0.00  0.00    +0.000 A 
ATOM     11  C   UNL     1      -1.616  14.060  23.711  0.00  0.00    +0.000 A 
ENDBRANCH   2   6
BRANCH   1  13
ATOM     12  N   UNL     1      -2.605  13.307  19.611  0.00  0.00    +0.000 N 
ATOM     13  C   UNL     1      -1.316  13.535  20.038  0.00  0.00    +0.000 C 
ATOM     14  O   UNL     1      -0.825  14.615  19.709  0.00  0.00    +0.000 OA
ATOM     15  H   UNL     1      -2.948  14.098  19.075  0.00  0.00    +0.000 HD
BRANCH  12  17
ATOM     16  C   UNL     1      -4.788  12.304  20.223  0.00  0.00    +0.000 C 
ATOM     17  C   UNL     1      -3.421  12.100  19.582  0.00  0.00    +0.000 C 
BRANCH  17  18
ATOM     18  C   UNL     1      -3.517  11.510  18.169  0.00  0.00    +0.000 A 
ATOM     19  C   UNL     1      -4.570  11.803  17.279  0.00  0.00    +0.000 A 
ATOM     20  C   UNL     1      -4.568  11.303  15.971  0.00  0.00    +0.000 A 
ATOM     21  C   UNL     1      -3.519  10.498  15.522  0.00  0.00    +0.000 A 
ATOM     22  C   UNL     1      -2.440  10.243  16.374  0.00  0.00    +0.000 A 
ATOM     23  C   UNL     1      -2.444  10.740  17.682  0.00  0.00    +0.000 A 
BRANCH  21  24
ATOM     24  C   UNL     1      -3.575   9.983  14.130  0.00  0.00    +0.000 C 
ATOM     25  O   UNL     1      -4.613   9.623  13.603  0.00  0.00    +0.000 OA
BRANCH  24  26
ATOM     26  O   UNL     1      -2.374   9.909  13.519  0.00  0.00    +0.000 OA
ATOM     27  H   UNL     1      -1.980  10.760  13.257  0.00  0.00    +0.000 HD
ENDBRANCH  24  26
ENDBRANCH  21  24
ENDBRANCH  17  18
ENDBRANCH  12  17
ENDBRANCH   1  13
BRANCH   5  28
ATOM     28  C   UNL     1       1.406  11.946  19.472  0.00  0.00    +0.000 C 
BRANCH  28  29
ATOM     29  C   UNL     1       2.335  13.114  19.446  0.00  0.00    +0.000 A 
ATOM     30  C   UNL     1       2.804  13.647  20.664  0.00  0.00    +0.000 A 
ATOM     31  C   UNL     1       3.680  14.732  20.654  0.00  0.00    +0.000 A 
ATOM     32  C   UNL     1       4.081  15.266  19.441  0.00  0.00    +0.000 A 
ATOM     33  F   UNL     1       4.941  16.299  19.440  0.00  0.00    +0.000 F 
ATOM     34  C   UNL     1       3.604  14.757  18.239  0.00  0.00    +0.000 A 
ATOM     35  F   UNL     1       3.982  15.293  17.073  0.00  0.00    +0.000 F 
ATOM     36  C   UNL     1       2.726  13.683  18.232  0.00  0.00    +0.000 A 
ENDBRANCH  28  29
ENDBRANCH   5  28
TORSDOF 8
ENDMDL
MODEL 4
REMARK VINA RESULT:      -7.5      3.505      4.752
REMARK  Name = 
REMARK  9 active torsions:
REMARK  status: ('A' for Active; 'I' for Inactive)
REMARK    1  A    between atoms: C_1  and  C_2
REMARK    2  A    between atoms: C_2  and  N_3
REMARK    3  A    between atoms: C_2  and  C_26
REMARK    4  A    between atoms: C_4  and  C_6
REMARK    5  A    between atoms: C_7  and  C_8
REMARK    6  A    between atoms: N_16  and  C_17
REMARK    7  A    between atoms: C_17  and  C_18
REMARK    8  A    between atoms: C_29  and  C_30
REMARK    9  A    between atoms: C_30  and  O_32
REMARK                            x       y       z     vdW  Elec       q    Type
REMARK                         _______ _______ _______ _____ _____    ______ ____
ROOT
ATOM      1  C   UNL     1      -0.064  12.698  20.819  0.00  0.00    +0.000 A 
ATOM      2  C   UNL     1      -0.714  13.302  21.891  0.00  0.00    +0.000 A 
ATOM      3  N   UNL     1       0.175  14.060  22.610  0.00  0.00    +0.000 NA
ATOM      4  N   UNL     1       1.348  13.988  22.013  0.00  0.00    +0.000 NA
ATOM      5  N   UNL     1       1.176  13.295  20.876  0.00  0.00    +0.000 N 
ENDROOT
BRANCH   2   6
ATOM      6  C   UNL     1      -2.113  13.232  22.273  0.00  0.00    +0.000 A 
ATOM      7  C   UNL     1      -3.127  13.855  21.538  0.00  0.00    +0.000 A 
ATOM      8  C   UNL     1      -4.459  13.755  21.948  0.00  0.00    +0.000 A 
ATOM      9  C   UNL     1      -4.792  13.025  23.088  0.00  0.00    +0.000 A 
ATOM     10  C   UNL     1      -3.794  12.386  23.820  0.00  0.00    +0.000 A 
ATOM     11  C   UNL     1      -2.462  12.487  23.411  0.00  0.00    +0.000 A 
ENDBRANCH   2   6
BRANCH   1  13
ATOM     12  N   UNL     1      -0.421  10.456  19.884  0.00  0.00    +0.000 N 
ATOM     13  C   UNL     1      -0.595  11.820  19.809  0.00  0.00    +0.000 C 
ATOM     14  O   UNL     1      -1.281  12.223  18.870  0.00  0.00    +0.000 OA
ATOM     15  H   UNL     1      -0.906   9.993  19.123  0.00  0.00    +0.000 HD
BRANCH  12  17
ATOM     16  C   UNL     1      -0.221   8.889  21.794  0.00  0.00    +0.000 C 
ATOM     17  C   UNL     1       0.489   9.633  20.670  0.00  0.00    +0.000 C 
BRANCH  17  18
ATOM     18  C   UNL     1       1.325   8.701  19.784  0.00  0.00    +0.000 A 
ATOM     19  C   UNL     1       1.781   9.059  18.500  0.00  0.00    +0.000 A 
ATOM     20  C   UNL     1       2.611   8.203  17.765  0.00  0.00    +0.000 A 
ATOM     21  C   UNL     1       3.002   6.971  18.293  0.00  0.00    +0.000 A 
ATOM     22  C   UNL     1       2.604   6.624  19.588  0.00  0.00    +0.000 A 
ATOM     23  C   UNL     1       1.772   7.478  20.320  0.00  0.00    +0.000 A 
BRANCH  21  24
ATOM     24  C   UNL     1       3.871   6.097  17.464  0.00  0.00    +0.000 C 
ATOM     25  O   UNL     1       4.702   6.538  16.689  0.00  0.00    +0.000 OA
BRANCH  24  26
ATOM     26  O   UNL     1       3.630   4.777  17.612  0.00  0.00    +0.000 OA
ATOM     27  H   UNL     1       2.725   4.486  17.399  0.00  0.00    +0.000 HD
ENDBRANCH  24  26
ENDBRANCH  21  24
ENDBRANCH  17  18
ENDBRANCH  12  17
ENDBRANCH   1  13
BRANCH   5  28
ATOM     28  C   UNL     1       2.280  13.226  19.940  0.00  0.00    +0.000 C 
BRANCH  28  29
ATOM     29  C   UNL     1       2.408  14.421  19.055  0.00  0.00    +0.000 A 
ATOM     30  C   UNL     1       3.508  14.514  18.179  0.00  0.00    +0.000 A 
ATOM     31  C   UNL     1       3.635  15.621  17.340  0.00  0.00    +0.000 A 
ATOM     32  C   UNL     1       2.669  16.612  17.378  0.00  0.00    +0.000 A 
ATOM     33  F   UNL     1       2.788  17.666  16.553  0.00  0.00    +0.000 F 
ATOM     34  C   UNL     1       1.594  16.534  18.257  0.00  0.00    +0.000 A 
ATOM     35  F   UNL     1       0.676  17.507  18.300  0.00  0.00    +0.000 F 
ATOM     36  C   UNL     1       1.458  15.444  19.103  0.00  0.00    +0.000 A 
ENDBRANCH  28  29
ENDBRANCH   5  28
TORSDOF 8
ENDMDL
MODEL 5
REMARK VINA RESULT:      -7.5      7.950      9.993
REMARK  Name = 
REMARK  9 active torsions:
REMARK  status: ('A' for Active; 'I' for Inactive)
REMARK    1  A    between atoms: C_1  and  C_2
REMARK    2  A    between atoms: C_2  and  N_3
REMARK    3  A    between atoms: C_2  and  C_26
REMARK    4  A    between atoms: C_4  and  C_6
REMARK    5  A    between atoms: C_7  and  C_8
REMARK    6  A    between atoms: N_16  and  C_17
REMARK    7  A    between atoms: C_17  and  C_18
REMARK    8  A    between atoms: C_29  and  C_30
REMARK    9  A    between atoms: C_30  and  O_32
REMARK                            x       y       z     vdW  Elec       q    Type
REMARK                         _______ _______ _______ _____ _____    ______ ____
ROOT
ATOM      1  C   UNL     1       6.317   6.876  17.315  0.00  0.00    +0.000 A 
ATOM      2  C   UNL     1       6.534   5.808  18.181  0.00  0.00    +0.000 A 
ATOM      3  N   UNL     1       7.656   6.038  18.936  0.00  0.00    +0.000 NA
ATOM      4  N   UNL     1       8.132   7.222  18.607  0.00  0.00    +0.000 NA
ATOM      5  N   UNL     1       7.263   7.778  17.748  0.00  0.00    +0.000 N 
ENDROOT
BRANCH   2   6
ATOM      6  C   UNL     1       5.749   4.600  18.362  0.00  0.00    +0.000 A 
ATOM      7  C   UNL     1       5.442   4.081  19.624  0.00  0.00    +0.000 A 
ATOM      8  C   UNL     1       4.681   2.915  19.742  0.00  0.00    +0.000 A 
ATOM      9  C   UNL     1       4.210   2.263  18.604  0.00  0.00    +0.000 A 
ATOM     10  C   UNL     1       4.494   2.778  17.341  0.00  0.00    +0.000 A 
ATOM     11  C   UNL     1       5.255   3.944  17.222  0.00  0.00    +0.000 A 
ENDBRANCH   2   6
BRANCH   1  13
ATOM     12  N   UNL     1       4.059   7.615  16.697  0.00  0.00    +0.000 N 
ATOM     13  C   UNL     1       5.271   7.064  16.345  0.00  0.00    +0.000 C 
ATOM     14  O   UNL     1       5.417   6.810  15.149  0.00  0.00    +0.000 OA
ATOM     15  H   UNL     1       3.466   7.723  15.881  0.00  0.00    +0.000 HD
BRANCH  12  17
ATOM     16  C   UNL     1       2.566   9.080  18.027  0.00  0.00    +0.000 C 
ATOM     17  C   UNL     1       3.425   7.822  17.992  0.00  0.00    +0.000 C 
BRANCH  17  18
ATOM     18  C   UNL     1       2.662   6.576  18.461  0.00  0.00    +0.000 A 
ATOM     19  C   UNL     1       2.149   5.607  17.578  0.00  0.00    +0.000 A 
ATOM     20  C   UNL     1       1.533   4.445  18.060  0.00  0.00    +0.000 A 
ATOM     21  C   UNL     1       1.412   4.228  19.434  0.00  0.00    +0.000 A 
ATOM     22  C   UNL     1       1.964   5.153  20.325  0.00  0.00    +0.000 A 
ATOM     23  C   UNL     1       2.577   6.314  19.841  0.00  0.00    +0.000 A 
BRANCH  21  24
ATOM     24  C   UNL     1       0.736   2.986  19.890  0.00  0.00    +0.000 C 
ATOM     25  O   UNL     1       0.177   2.221  19.124  0.00  0.00    +0.000 OA
BRANCH  24  26
ATOM     26  O   UNL     1       0.757   2.804  21.227  0.00  0.00    +0.000 OA
ATOM     27  H   UNL     1       0.816   1.880  21.528  0.00  0.00    +0.000 HD
ENDBRANCH  24  26
ENDBRANCH  21  24
ENDBRANCH  17  18
ENDBRANCH  12  17
ENDBRANCH   1  13
BRANCH   5  28
ATOM     28  C   UNL     1       7.462   9.163  17.369  0.00  0.00    +0.000 C 
BRANCH  28  29
ATOM     29  C   UNL     1       8.537   9.859  18.136  0.00  0.00    +0.000 A 
ATOM     30  C   UNL     1       8.544   9.774  19.542  0.00  0.00    +0.000 A 
ATOM     31  C   UNL     1       9.549  10.410  20.271  0.00  0.00    +0.000 A 
ATOM     32  C   UNL     1      10.531  11.115  19.595  0.00  0.00    +0.000 A 
ATOM     33  F   UNL     1      11.506  11.710  20.302  0.00  0.00    +0.000 F 
ATOM     34  C   UNL     1      10.515  11.219  18.208  0.00  0.00    +0.000 A 
ATOM     35  F   UNL     1      11.457  11.919  17.565  0.00  0.00    +0.000 F 
ATOM     36  C   UNL     1       9.518  10.598  17.470  0.00  0.00    +0.000 A 
ENDBRANCH  28  29
ENDBRANCH   5  28
TORSDOF 8
ENDMDL
MODEL 6
REMARK VINA RESULT:      -7.4      4.694      7.181
REMARK  Name = 
REMARK  9 active torsions:
REMARK  status: ('A' for Active; 'I' for Inactive)
REMARK    1  A    between atoms: C_1  and  C_2
REMARK    2  A    between atoms: C_2  and  N_3
REMARK    3  A    between atoms: C_2  and  C_26
REMARK    4  A    between atoms: C_4  and  C_6
REMARK    5  A    between atoms: C_7  and  C_8
REMARK    6  A    between atoms: N_16  and  C_17
REMARK    7  A    between atoms: C_17  and  C_18
REMARK    8  A    between atoms: C_29  and  C_30
REMARK    9  A    between atoms: C_30  and  O_32
REMARK                            x       y       z     vdW  Elec       q    Type
REMARK                         _______ _______ _______ _____ _____    ______ ____
ROOT
ATOM      1  C   UNL     1       0.398   9.683  19.947  0.00  0.00    +0.000 A 
ATOM      2  C   UNL     1      -0.126  10.072  21.177  0.00  0.00    +0.000 A 
ATOM      3  N   UNL     1       0.334   9.240  22.165  0.00  0.00    +0.000 NA
ATOM      4  N   UNL     1       1.154   8.368  21.615  0.00  0.00    +0.000 NA
ATOM      5  N   UNL     1       1.301   8.714  20.326  0.00  0.00    +0.000 N 
ENDROOT
BRANCH   2   6
ATOM      6  C   UNL     1      -1.010  11.181  21.487  0.00  0.00    +0.000 A 
ATOM      7  C   UNL     1      -1.892  11.727  20.549  0.00  0.00    +0.000 A 
ATOM      8  C   UNL     1      -2.723  12.795  20.900  0.00  0.00    +0.000 A 
ATOM      9  C   UNL     1      -2.689  13.319  22.191  0.00  0.00    +0.000 A 
ATOM     10  C   UNL     1      -1.827  12.774  23.139  0.00  0.00    +0.000 A 
ATOM     11  C   UNL     1      -0.995  11.707  22.789  0.00  0.00    +0.000 A 
ENDBRANCH   2   6
BRANCH   1  13
ATOM     12  N   UNL     1       0.983  11.279  18.176  0.00  0.00    +0.000 N 
ATOM     13  C   UNL     1       0.188  10.258  18.644  0.00  0.00    +0.000 C 
ATOM     14  O   UNL     1      -0.659   9.834  17.857  0.00  0.00    +0.000 OA
ATOM     15  H   UNL     1       0.730  11.521  17.224  0.00  0.00    +0.000 HD
BRANCH  12  17
ATOM     16  C   UNL     1       3.007  12.691  17.936  0.00  0.00    +0.000 C 
ATOM     17  C   UNL     1       1.901  12.186  18.854  0.00  0.00    +0.000 C 
BRANCH  17  18
ATOM     18  C   UNL     1       1.158  13.326  19.562  0.00  0.00    +0.000 A 
ATOM     19  C   UNL     1       1.426  13.714  20.889  0.00  0.00    +0.000 A 
ATOM     20  C   UNL     1       0.777  14.815  21.463  0.00  0.00    +0.000 A 
ATOM     21  C   UNL     1      -0.155  15.550  20.727  0.00  0.00    +0.000 A 
ATOM     22  C   UNL     1      -0.391  15.211  19.391  0.00  0.00    +0.000 A 
ATOM     23  C   UNL     1       0.255  14.110  18.821  0.00  0.00    +0.000 A 
BRANCH  21  24
ATOM     24  C   UNL     1      -0.824  16.699  21.390  0.00  0.00    +0.000 C 
ATOM     25  O   UNL     1      -1.079  16.714  22.581  0.00  0.00    +0.000 OA
BRANCH  24  26
ATOM     26  O   UNL     1      -1.162  17.700  20.551  0.00  0.00    +0.000 OA
ATOM     27  H   UNL     1      -1.613  18.461  20.960  0.00  0.00    +0.000 HD
ENDBRANCH  24  26
ENDBRANCH  21  24
ENDBRANCH  17  18
ENDBRANCH  12  17
ENDBRANCH   1  13
BRANCH   5  28
ATOM     28  C   UNL     1       2.298   8.020  19.536  0.00  0.00    +0.000 C 
BRANCH  28  29
ATOM     29  C   UNL     1       2.036   6.560  19.366  0.00  0.00    +0.000 A 
ATOM     30  C   UNL     1       2.119   5.992  18.080  0.00  0.00    +0.000 A 
ATOM     31  C   UNL     1       1.886   4.627  17.908  0.00  0.00    +0.000 A 
ATOM     32  C   UNL     1       1.581   3.849  19.012  0.00  0.00    +0.000 A 
ATOM     33  F   UNL     1       1.377   2.532  18.842  0.00  0.00    +0.000 F 
ATOM     34  C   UNL     1       1.476   4.411  20.280  0.00  0.00    +0.000 A 
ATOM     35  F   UNL     1       1.161   3.654  21.338  0.00  0.00    +0.000 F 
ATOM     36  C   UNL     1       1.698   5.768  20.466  0.00  0.00    +0.000 A 
ENDBRANCH  28  29
ENDBRANCH   5  28
TORSDOF 8
ENDMDL
MODEL 7
REMARK VINA RESULT:      -7.4      2.669      5.055
REMARK  Name = 
REMARK  9 active torsions:
REMARK  status: ('A' for Active; 'I' for Inactive)
REMARK    1  A    between atoms: C_1  and  C_2
REMARK    2  A    between atoms: C_2  and  N_3
REMARK    3  A    between atoms: C_2  and  C_26
REMARK    4  A    between atoms: C_4  and  C_6
REMARK    5  A    between atoms: C_7  and  C_8
REMARK    6  A    between atoms: N_16  and  C_17
REMARK    7  A    between atoms: C_17  and  C_18
REMARK    8  A    between atoms: C_29  and  C_30
REMARK    9  A    between atoms: C_30  and  O_32
REMARK                            x       y       z     vdW  Elec       q    Type
REMARK                         _______ _______ _______ _____ _____    ______ ____
ROOT
ATOM      1  C   UNL     1      -0.587  11.486  20.871  0.00  0.00    +0.000 A 
ATOM      2  C   UNL     1       0.032  10.250  21.040  0.00  0.00    +0.000 A 
ATOM      3  N   UNL     1      -0.182   9.790  22.314  0.00  0.00    +0.000 NA
ATOM      4  N   UNL     1      -0.941  10.666  22.942  0.00  0.00    +0.000 NA
ATOM      5  N   UNL     1      -1.296  11.601  22.047  0.00  0.00    +0.000 N 
ENDROOT
BRANCH   2   6
ATOM      6  C   UNL     1       0.791   9.467  20.083  0.00  0.00    +0.000 A 
ATOM      7  C   UNL     1       0.928   9.841  18.742  0.00  0.00    +0.000 A 
ATOM      8  C   UNL     1       1.671   9.051  17.861  0.00  0.00    +0.000 A 
ATOM      9  C   UNL     1       2.293   7.888  18.311  0.00  0.00    +0.000 A 
ATOM     10  C   UNL     1       2.179   7.512  19.648  0.00  0.00    +0.000 A 
ATOM     11  C   UNL     1       1.435   8.301  20.529  0.00  0.00    +0.000 A 
ENDBRANCH   2   6
BRANCH   1  13
ATOM     12  N   UNL     1      -1.744  12.409  18.913  0.00  0.00    +0.000 N 
ATOM     13  C   UNL     1      -0.624  12.335  19.710  0.00  0.00    +0.000 C 
ATOM     14  O   UNL     1       0.304  13.083  19.402  0.00  0.00    +0.000 OA
ATOM     15  H   UNL     1      -1.613  13.094  18.176  0.00  0.00    +0.000 HD
BRANCH  12  17
ATOM     16  C   UNL     1      -4.167  12.185  19.388  0.00  0.00    +0.000 C 
ATOM     17  C   UNL     1      -2.915  11.549  18.798  0.00  0.00    +0.000 C 
BRANCH  17  18
ATOM     18  C   UNL     1      -3.126  11.060  17.359  0.00  0.00    +0.000 A 
ATOM     19  C   UNL     1      -4.120  11.576  16.506  0.00  0.00    +0.000 A 
ATOM     20  C   UNL     1      -4.218  11.154  15.174  0.00  0.00    +0.000 A 
ATOM     21  C   UNL     1      -3.328  10.206  14.666  0.00  0.00    +0.000 A 
ATOM     22  C   UNL     1      -2.301   9.724  15.483  0.00  0.00    +0.000 A 
ATOM     23  C   UNL     1      -2.207  10.144  16.813  0.00  0.00    +0.000 A 
BRANCH  21  24
ATOM     24  C   UNL     1      -3.487   9.783  13.250  0.00  0.00    +0.000 C 
ATOM     25  O   UNL     1      -4.577   9.657  12.719  0.00  0.00    +0.000 OA
BRANCH  24  26
ATOM     26  O   UNL     1      -2.325   9.510  12.621  0.00  0.00    +0.000 OA
ATOM     27  H   UNL     1      -2.312   9.681  11.662  0.00  0.00    +0.000 HD
ENDBRANCH  24  26
ENDBRANCH  21  24
ENDBRANCH  17  18
ENDBRANCH  12  17
ENDBRANCH   1  13
BRANCH   5  28
ATOM     28  C   UNL     1      -2.283  12.588  22.438  0.00  0.00    +0.000 C 
BRANCH  28  29
ATOM     29  C   UNL     1      -1.713  13.788  23.117  0.00  0.00    +0.000 A 
ATOM     30  C   UNL     1      -0.659  14.492  22.500  0.00  0.00    +0.000 A 
ATOM     31  C   UNL     1      -0.123  15.621  23.119  0.00  0.00    +0.000 A 
ATOM     32  C   UNL     1      -0.643  16.038  24.333  0.00  0.00    +0.000 A 
ATOM     33  F   UNL     1      -0.135  17.138  24.913  0.00  0.00    +0.000 F 
ATOM     34  C   UNL     1      -1.668  15.334  24.954  0.00  0.00    +0.000 A 
ATOM     35  F   UNL     1      -2.151  15.733  26.137  0.00  0.00    +0.000 F 
ATOM     36  C   UNL     1      -2.207  14.204  24.355  0.00  0.00    +0.000 A 
ENDBRANCH  28  29
ENDBRANCH   5  28
TORSDOF 8
ENDMDL
MODEL 8
REMARK VINA RESULT:      -7.4      3.527      4.803
REMARK  Name = 
REMARK  9 active torsions:
REMARK  status: ('A' for Active; 'I' for Inactive)
REMARK    1  A    between atoms: C_1  and  C_2
REMARK    2  A    between atoms: C_2  and  N_3
REMARK    3  A    between atoms: C_2  and  C_26
REMARK    4  A    between atoms: C_4  and  C_6
REMARK    5  A    between atoms: C_7  and  C_8
REMARK    6  A    between atoms: N_16  and  C_17
REMARK    7  A    between atoms: C_17  and  C_18
REMARK    8  A    between atoms: C_29  and  C_30
REMARK    9  A    between atoms: C_30  and  O_32
REMARK                            x       y       z     vdW  Elec       q    Type
REMARK                         _______ _______ _______ _____ _____    ______ ____
ROOT
ATOM      1  C   UNL     1       0.253  12.981  20.699  0.00  0.00    +0.000 A 
ATOM      2  C   UNL     1      -0.492  13.455  21.775  0.00  0.00    +0.000 A 
ATOM      3  N   UNL     1       0.316  14.162  22.628  0.00  0.00    +0.000 NA
ATOM      4  N   UNL     1       1.530  14.184  22.115  0.00  0.00    +0.000 NA
ATOM      5  N   UNL     1       1.464  13.604  20.907  0.00  0.00    +0.000 N 
ENDROOT
BRANCH   2   6
ATOM      6  C   UNL     1      -1.911  13.307  22.043  0.00  0.00    +0.000 A 
ATOM      7  C   UNL     1      -2.400  12.606  23.150  0.00  0.00    +0.000 A 
ATOM      8  C   UNL     1      -3.777  12.494  23.364  0.00  0.00    +0.000 A 
ATOM      9  C   UNL     1      -4.676  13.089  22.481  0.00  0.00    +0.000 A 
ATOM     10  C   UNL     1      -4.203  13.804  21.383  0.00  0.00    +0.000 A 
ATOM     11  C   UNL     1      -2.827  13.916  21.169  0.00  0.00    +0.000 A 
ENDBRANCH   2   6
BRANCH   1  13
ATOM     12  N   UNL     1      -0.108  10.818  19.594  0.00  0.00    +0.000 N 
ATOM     13  C   UNL     1      -0.173  12.193  19.572  0.00  0.00    +0.000 C 
ATOM     14  O   UNL     1      -0.675  12.690  18.564  0.00  0.00    +0.000 OA
ATOM     15  H   UNL     1      -0.499  10.429  18.743  0.00  0.00    +0.000 HD
BRANCH  12  17
ATOM     16  C   UNL     1      -0.289   9.277  21.527  0.00  0.00    +0.000 C 
ATOM     17  C   UNL     1       0.608   9.892  20.462  0.00  0.00    +0.000 C 
BRANCH  17  18
ATOM     18  C   UNL     1       1.376   8.835  19.658  0.00  0.00    +0.000 A 
ATOM     19  C   UNL     1       1.791   9.028  18.326  0.00  0.00    +0.000 A 
ATOM     20  C   UNL     1       2.561   8.064  17.663  0.00  0.00    +0.000 A 
ATOM     21  C   UNL     1       2.930   6.885  18.313  0.00  0.00    +0.000 A 
ATOM     22  C   UNL     1       2.573   6.701  19.653  0.00  0.00    +0.000 A 
ATOM     23  C   UNL     1       1.802   7.664  20.312  0.00  0.00    +0.000 A 
BRANCH  21  24
ATOM     24  C   UNL     1       3.735   5.890  17.558  0.00  0.00    +0.000 C 
ATOM     25  O   UNL     1       3.498   4.695  17.585  0.00  0.00    +0.000 OA
BRANCH  24  26
ATOM     26  O   UNL     1       4.772   6.420  16.878  0.00  0.00    +0.000 OA
ATOM     27  H   UNL     1       4.744   6.311  15.910  0.00  0.00    +0.000 HD
ENDBRANCH  24  26
ENDBRANCH  21  24
ENDBRANCH  17  18
ENDBRANCH  12  17
ENDBRANCH   1  13
BRANCH   5  28
ATOM     28  C   UNL     1       2.633  13.661  20.052  0.00  0.00    +0.000 C 
BRANCH  28  29
ATOM     29  C   UNL     1       2.617  14.782  19.066  0.00  0.00    +0.000 A 
ATOM     30  C   UNL     1       3.577  14.805  18.035  0.00  0.00    +0.000 A 
ATOM     31  C   UNL     1       3.567  15.841  17.101  0.00  0.00    +0.000 A 
ATOM     32  C   UNL     1       2.605  16.832  17.201  0.00  0.00    +0.000 A 
ATOM     33  F   UNL     1       2.590  17.816  16.287  0.00  0.00    +0.000 F 
ATOM     34  C   UNL     1       1.670  16.824  18.230  0.00  0.00    +0.000 A 
ATOM     35  F   UNL     1       0.756  17.797  18.330  0.00  0.00    +0.000 F 
ATOM     36  C   UNL     1       1.671  15.804  19.171  0.00  0.00    +0.000 A 
ENDBRANCH  28  29
ENDBRANCH   5  28
TORSDOF 8
ENDMDL
MODEL 9
REMARK VINA RESULT:      -7.3      8.527     11.547
REMARK  Name = 
REMARK  9 active torsions:
REMARK  status: ('A' for Active; 'I' for Inactive)
REMARK    1  A    between atoms: C_1  and  C_2
REMARK    2  A    between atoms: C_2  and  N_3
REMARK    3  A    between atoms: C_2  and  C_26
REMARK    4  A    between atoms: C_4  and  C_6
REMARK    5  A    between atoms: C_7  and  C_8
REMARK    6  A    between atoms: N_16  and  C_17
REMARK    7  A    between atoms: C_17  and  C_18
REMARK    8  A    between atoms: C_29  and  C_30
REMARK    9  A    between atoms: C_30  and  O_32
REMARK                            x       y       z     vdW  Elec       q    Type
REMARK                         _______ _______ _______ _____ _____    ______ ____
ROOT
ATOM      1  C   UNL     1       5.673   4.665  17.074  0.00  0.00    +0.000 A 
ATOM      2  C   UNL     1       6.779   4.493  16.246  0.00  0.00    +0.000 A 
ATOM      3  N   UNL     1       7.908   4.317  17.003  0.00  0.00    +0.000 NA
ATOM      4  N   UNL     1       7.554   4.333  18.273  0.00  0.00    +0.000 NA
ATOM      5  N   UNL     1       6.214   4.401  18.313  0.00  0.00    +0.000 N 
ENDROOT
BRANCH   2   6
ATOM      6  C   UNL     1       6.842   4.463  14.796  0.00  0.00    +0.000 A 
ATOM      7  C   UNL     1       7.673   5.313  14.059  0.00  0.00    +0.000 A 
ATOM      8  C   UNL     1       7.697   5.242  12.663  0.00  0.00    +0.000 A 
ATOM      9  C   UNL     1       6.901   4.316  11.992  0.00  0.00    +0.000 A 
ATOM     10  C   UNL     1       6.081   3.452  12.714  0.00  0.00    +0.000 A 
ATOM     11  C   UNL     1       6.056   3.523  14.109  0.00  0.00    +0.000 A 
ENDBRANCH   2   6
BRANCH   1  13
ATOM     12  N   UNL     1       3.662   6.072  17.009  0.00  0.00    +0.000 N 
ATOM     13  C   UNL     1       4.295   4.884  16.720  0.00  0.00    +0.000 C 
ATOM     14  O   UNL     1       3.631   4.061  16.090  0.00  0.00    +0.000 OA
ATOM     15  H   UNL     1       2.717   6.071  16.641  0.00  0.00    +0.000 HD
BRANCH  12  17
ATOM     16  C   UNL     1       5.058   8.095  17.329  0.00  0.00    +0.000 C 
ATOM     17  C   UNL     1       4.005   7.162  17.913  0.00  0.00    +0.000 C 
BRANCH  17  18
ATOM     18  C   UNL     1       2.759   7.912  18.401  0.00  0.00    +0.000 A 
ATOM     19  C   UNL     1       2.228   7.766  19.698  0.00  0.00    +0.000 A 
ATOM     20  C   UNL     1       1.137   8.536  20.121  0.00  0.00    +0.000 A 
ATOM     21  C   UNL     1       0.551   9.466  19.260  0.00  0.00    +0.000 A 
ATOM     22  C   UNL     1       1.100   9.663  17.989  0.00  0.00    +0.000 A 
ATOM     23  C   UNL     1       2.187   8.890  17.566  0.00  0.00    +0.000 A 
BRANCH  21  24
ATOM     24  C   UNL     1      -0.613  10.245  19.756  0.00  0.00    +0.000 C 
ATOM     25  O   UNL     1      -0.748  10.552  20.927  0.00  0.00    +0.000 OA
BRANCH  24  26
ATOM     26  O   UNL     1      -1.524  10.543  18.806  0.00  0.00    +0.000 OA
ATOM     27  H   UNL     1      -2.074  11.328  18.979  0.00  0.00    +0.000 HD
ENDBRANCH  24  26
ENDBRANCH  21  24
ENDBRANCH  17  18
ENDBRANCH  12  17
ENDBRANCH   1  13
BRANCH   5  28
ATOM     28  C   UNL     1       5.556   4.250  19.596  0.00  0.00    +0.000 C 
BRANCH  28  29
ATOM     29  C   UNL     1       4.185   3.665  19.515  0.00  0.00    +0.000 A 
ATOM     30  C   UNL     1       4.013   2.391  18.940  0.00  0.00    +0.000 A 
ATOM     31  C   UNL     1       2.739   1.828  18.867  0.00  0.00    +0.000 A 
ATOM     32  C   UNL     1       1.659   2.534  19.370  0.00  0.00    +0.000 A 
ATOM     33  F   UNL     1       0.437   1.977  19.315  0.00  0.00    +0.000 F 
ATOM     34  C   UNL     1       1.821   3.801  19.919  0.00  0.00    +0.000 A 
ATOM     35  F   UNL     1       0.769   4.483  20.384  0.00  0.00    +0.000 F 
ATOM     36  C   UNL     1       3.081   4.377  19.991  0.00  0.00    +0.000 A 
ENDBRANCH  28  29
ENDBRANCH   5  28
TORSDOF 8
ENDMDL
