MODEL 1
REMARK VINA RESULT:      -8.5      0.000      0.000
REMARK  Name = 
REMARK  7 active torsions:
REMARK  status: ('A' for Active; 'I' for Inactive)
REMARK    1  A    between atoms: C_1  and  C_2
REMARK    2  A    between atoms: C_10  and  C_11
REMARK    3  A    between atoms: C_12  and  N_13
REMARK    4  A    between atoms: N_13  and  C_14
REMARK    5  A    between atoms: C_14  and  C_15
REMARK    6  A    between atoms: C_15  and  C_16
REMARK    7  A    between atoms: N_24  and  C_25
REMARK                            x       y       z     vdW  Elec       q    Type
REMARK                         _______ _______ _______ _____ _____    ______ ____
ROOT
ATOM      1  C   UNL     1       4.396   4.484  18.570  0.00  0.00    +0.000 C 
ATOM      2  C   UNL     1       3.221   5.116  18.554  0.00  0.00    +0.000 C 
ATOM      3  C   UNL     1       2.356   4.446  19.574  0.00  0.00    +0.000 C 
ATOM      4  O   UNL     1       1.200   4.751  19.821  0.00  0.00    +0.000 OA
ATOM      5  N   UNL     1       3.090   3.465  20.146  0.00  0.00    +0.000 N 
ATOM      6  C   UNL     1       2.630   2.607  21.206  0.00  0.00    +0.000 C 
ATOM      7  C   UNL     1       4.330   3.416  19.591  0.00  0.00    +0.000 C 
ATOM      8  O   UNL     1       5.226   2.639  19.880  0.00  0.00    +0.000 OA
ENDROOT
BRANCH   1  18
ATOM      9  C   UNL     1       7.191   5.649  19.555  0.00  0.00    +0.000 C 
ATOM     10  C   UNL     1       6.741   5.236  18.199  0.00  0.00    +0.000 A 
ATOM     11  N   UNL     1       7.568   5.324  17.108  0.00  0.00    +0.000 N 
ATOM     12  C   UNL     1       6.926   4.891  15.970  0.00  0.00    +0.000 A 
ATOM     13  C   UNL     1       7.389   4.815  14.650  0.00  0.00    +0.000 A 
ATOM     14  C   UNL     1       6.507   4.330  13.680  0.00  0.00    +0.000 A 
ATOM     15  C   UNL     1       5.216   3.935  14.020  0.00  0.00    +0.000 A 
ATOM     16  C   UNL     1       4.772   4.011  15.347  0.00  0.00    +0.000 A 
ATOM     17  C   UNL     1       5.641   4.500  16.346  0.00  0.00    +0.000 A 
ATOM     18  C   UNL     1       5.535   4.725  17.752  0.00  0.00    +0.000 A 
ATOM     19  H   UNL     1       8.522   5.661  17.125  0.00  0.00    +0.000 HD
ENDBRANCH   1  18
BRANCH   2  20
ATOM     20  N   UNL     1       2.738   6.204  17.829  0.00  0.00    +0.000 N 
ATOM     21  H   UNL     1       1.720   6.232  17.878  0.00  0.00    +0.000 HD
BRANCH  20  22
ATOM     22  C   UNL     1       3.269   7.557  18.067  0.00  0.00    +0.000 C 
BRANCH  22  23
ATOM     23  C   UNL     1       2.192   8.627  17.853  0.00  0.00    +0.000 C 
BRANCH  23  24
ATOM     24  C   UNL     1       1.417   8.927  19.112  0.00  0.00    +0.000 A 
ATOM     25  C   UNL     1       1.662   8.199  20.285  0.00  0.00    +0.000 A 
ATOM     26  C   UNL     1       0.916   8.443  21.438  0.00  0.00    +0.000 A 
ATOM     27  C   UNL     1      -0.084   9.414  21.431  0.00  0.00    +0.000 A 
ATOM     28  C   UNL     1      -0.324  10.156  20.275  0.00  0.00    +0.000 A 
ATOM     29  C   UNL     1       0.426   9.917  19.122  0.00  0.00    +0.000 A 
ENDBRANCH  23  24
ENDBRANCH  22  23
ENDBRANCH  20  22
ENDBRANCH   2  20
TORSDOF 5
ENDMDL
MODEL 2
REMARK VINA RESULT:      -8.4      2.408      5.531
REMARK  Name = 
REMARK  7 active torsions:
REMARK  status: ('A' for Active; 'I' for Inactive)
REMARK    1  A    between atoms: C_1  and  C_2
REMARK    2  A    between atoms: C_10  and  C_11
REMARK    3  A    between atoms: C_12  and  N_13
REMARK    4  A    between atoms: N_13  and  C_14
REMARK    5  A    between atoms: C_14  and  C_15
REMARK    6  A    between atoms: C_15  and  C_16
REMARK    7  A    between atoms: N_24  and  C_25
REMARK                            x       y       z     vdW  Elec       q    Type
REMARK                         _______ _______ _______ _____ _____    ______ ____
ROOT
ATOM      1  C   UNL     1       2.623   7.014  18.703  0.00  0.00    +0.000 C 
ATOM      2  C   UNL     1       2.225   6.975  19.976  0.00  0.00    +0.000 C 
ATOM      3  C   UNL     1       1.618   8.308  20.281  0.00  0.00    +0.000 C 
ATOM      4  O   UNL     1       1.162   8.638  21.363  0.00  0.00    +0.000 OA
ATOM      5  N   UNL     1       1.680   9.048  19.151  0.00  0.00    +0.000 N 
ATOM      6  C   UNL     1       1.165  10.387  19.017  0.00  0.00    +0.000 C 
ATOM      7  C   UNL     1       2.279   8.344  18.154  0.00  0.00    +0.000 C 
ATOM      8  O   UNL     1       2.493   8.732  17.017  0.00  0.00    +0.000 OA
ENDROOT
BRANCH   1  18
ATOM      9  C   UNL     1       1.282   4.407  17.463  0.00  0.00    +0.000 C 
ATOM     10  C   UNL     1       2.693   4.874  17.432  0.00  0.00    +0.000 A 
ATOM     11  N   UNL     1       3.676   4.155  16.800  0.00  0.00    +0.000 N 
ATOM     12  C   UNL     1       4.894   4.785  16.913  0.00  0.00    +0.000 A 
ATOM     13  C   UNL     1       6.152   4.406  16.429  0.00  0.00    +0.000 A 
ATOM     14  C   UNL     1       7.233   5.249  16.698  0.00  0.00    +0.000 A 
ATOM     15  C   UNL     1       7.060   6.427  17.420  0.00  0.00    +0.000 A 
ATOM     16  C   UNL     1       5.793   6.796  17.890  0.00  0.00    +0.000 A 
ATOM     17  C   UNL     1       4.684   5.960  17.636  0.00  0.00    +0.000 A 
ATOM     18  C   UNL     1       3.293   6.003  17.960  0.00  0.00    +0.000 A 
ATOM     19  H   UNL     1       3.537   3.278  16.315  0.00  0.00    +0.000 HD
ENDBRANCH   1  18
BRANCH   2  20
ATOM     20  N   UNL     1       2.262   5.981  20.952  0.00  0.00    +0.000 N 
ATOM     21  H   UNL     1       2.284   6.403  21.880  0.00  0.00    +0.000 HD
BRANCH  20  22
ATOM     22  C   UNL     1       1.274   4.888  20.944  0.00  0.00    +0.000 C 
BRANCH  22  23
ATOM     23  C   UNL     1       1.859   3.599  21.532  0.00  0.00    +0.000 C 
BRANCH  23  24
ATOM     24  C   UNL     1       2.554   2.754  20.493  0.00  0.00    +0.000 A 
ATOM     25  C   UNL     1       3.954   2.716  20.431  0.00  0.00    +0.000 A 
ATOM     26  C   UNL     1       4.599   1.972  19.443  0.00  0.00    +0.000 A 
ATOM     27  C   UNL     1       3.852   1.261  18.504  0.00  0.00    +0.000 A 
ATOM     28  C   UNL     1       2.460   1.278  18.567  0.00  0.00    +0.000 A 
ATOM     29  C   UNL     1       1.813   2.018  19.559  0.00  0.00    +0.000 A 
ENDBRANCH  23  24
ENDBRANCH  22  23
ENDBRANCH  20  22
ENDBRANCH   2  20
TORSDOF 5
ENDMDL
MODEL 3
REMARK VINA RESULT:      -8.4      0.372      1.020
REMARK  Name = 
REMARK  7 active torsions:
REMARK  status: ('A' for Active; 'I' for Inactive)
REMARK    1  A    between atoms: C_1  and  C_2
REMARK    2  A    between atoms: C_10  and  C_11
REMARK    3  A    between atoms: C_12  and  N_13
REMARK    4  A    between atoms: N_13  and  C_14
REMARK    5  A    between atoms: C_14  and  C_15
REMARK    6  A    between atoms: C_15  and  C_16
REMARK    7  A    between atoms: N_24  and  C_25
REMARK                            x       y       z     vdW  Elec       q    Type
REMARK                         _______ _______ _______ _____ _____    ______ ____
ROOT
ATOM      1  C   UNL     1       4.416   4.485  18.622  0.00  0.00    +0.000 C 
ATOM      2  C   UNL     1       3.250   5.134  18.608  0.00  0.00    +0.000 C 
ATOM      3  C   UNL     1       2.374   4.473  19.624  0.00  0.00    +0.000 C 
ATOM      4  O   UNL     1       1.223   4.793  19.870  0.00  0.00    +0.000 OA
ATOM      5  N   UNL     1       3.093   3.478  20.192  0.00  0.00    +0.000 N 
ATOM      6  C   UNL     1       2.618   2.622  21.248  0.00  0.00    +0.000 C 
ATOM      7  C   UNL     1       4.333   3.413  19.638  0.00  0.00    +0.000 C 
ATOM      8  O   UNL     1       5.217   2.622  19.926  0.00  0.00    +0.000 OA
ENDROOT
BRANCH   1  18
ATOM      9  C   UNL     1       7.234   5.579  19.621  0.00  0.00    +0.000 C 
ATOM     10  C   UNL     1       6.776   5.194  18.260  0.00  0.00    +0.000 A 
ATOM     11  N   UNL     1       7.604   5.278  17.171  0.00  0.00    +0.000 N 
ATOM     12  C   UNL     1       6.954   4.873  16.027  0.00  0.00    +0.000 A 
ATOM     13  C   UNL     1       7.415   4.804  14.706  0.00  0.00    +0.000 A 
ATOM     14  C   UNL     1       6.523   4.350  13.730  0.00  0.00    +0.000 A 
ATOM     15  C   UNL     1       5.225   3.978  14.066  0.00  0.00    +0.000 A 
ATOM     16  C   UNL     1       4.783   4.045  15.393  0.00  0.00    +0.000 A 
ATOM     17  C   UNL     1       5.661   4.503  16.398  0.00  0.00    +0.000 A 
ATOM     18  C   UNL     1       5.560   4.713  17.808  0.00  0.00    +0.000 A 
ATOM     19  H   UNL     1       8.566   5.595  17.192  0.00  0.00    +0.000 HD
ENDBRANCH   1  18
BRANCH   2  20
ATOM     20  N   UNL     1       2.785   6.232  17.887  0.00  0.00    +0.000 N 
ATOM     21  H   UNL     1       1.791   6.121  17.685  0.00  0.00    +0.000 HD
BRANCH  20  22
ATOM     22  C   UNL     1       3.027   7.602  18.371  0.00  0.00    +0.000 C 
BRANCH  22  23
ATOM     23  C   UNL     1       2.016   8.592  17.779  0.00  0.00    +0.000 C 
BRANCH  23  24
ATOM     24  C   UNL     1       1.127   9.208  18.831  0.00  0.00    +0.000 A 
ATOM     25  C   UNL     1       0.167  10.166  18.475  0.00  0.00    +0.000 A 
ATOM     26  C   UNL     1      -0.624  10.771  19.451  0.00  0.00    +0.000 A 
ATOM     27  C   UNL     1      -0.463  10.428  20.792  0.00  0.00    +0.000 A 
ATOM     28  C   UNL     1       0.476   9.464  21.155  0.00  0.00    +0.000 A 
ATOM     29  C   UNL     1       1.266   8.854  20.179  0.00  0.00    +0.000 A 
ENDBRANCH  23  24
ENDBRANCH  22  23
ENDBRANCH  20  22
ENDBRANCH   2  20
TORSDOF 5
ENDMDL
MODEL 4
REMARK VINA RESULT:      -8.3      1.253      6.552
REMARK  Name = 
REMARK  7 active torsions:
REMARK  status: ('A' for Active; 'I' for Inactive)
REMARK    1  A    between atoms: C_1  and  C_2
REMARK    2  A    between atoms: C_10  and  C_11
REMARK    3  A    between atoms: C_12  and  N_13
REMARK    4  A    between atoms: N_13  and  C_14
REMARK    5  A    between atoms: C_14  and  C_15
REMARK    6  A    between atoms: C_15  and  C_16
REMARK    7  A    between atoms: N_24  and  C_25
REMARK                            x       y       z     vdW  Elec       q    Type
REMARK                         _______ _______ _______ _____ _____    ______ ____
ROOT
ATOM      1  C   UNL     1       3.359   5.284  18.851  0.00  0.00    +0.000 C 
ATOM      2  C   UNL     1       4.533   4.813  19.278  0.00  0.00    +0.000 C 
ATOM      3  C   UNL     1       4.385   3.330  19.399  0.00  0.00    +0.000 C 
ATOM      4  O   UNL     1       5.259   2.569  19.783  0.00  0.00    +0.000 OA
ATOM      5  N   UNL     1       3.128   3.015  19.012  0.00  0.00    +0.000 N 
ATOM      6  C   UNL     1       2.599   1.677  18.950  0.00  0.00    +0.000 C 
ATOM      7  C   UNL     1       2.441   4.138  18.673  0.00  0.00    +0.000 C 
ATOM      8  O   UNL     1       1.283   4.195  18.290  0.00  0.00    +0.000 OA
ENDROOT
BRANCH   1  18
ATOM      9  C   UNL     1       4.265   7.077  16.380  0.00  0.00    +0.000 C 
ATOM     10  C   UNL     1       3.394   7.402  17.541  0.00  0.00    +0.000 A 
ATOM     11  N   UNL     1       2.827   8.642  17.691  0.00  0.00    +0.000 N 
ATOM     12  C   UNL     1       2.072   8.700  18.840  0.00  0.00    +0.000 A 
ATOM     13  C   UNL     1       1.331   9.761  19.378  0.00  0.00    +0.000 A 
ATOM     14  C   UNL     1       0.652   9.536  20.579  0.00  0.00    +0.000 A 
ATOM     15  C   UNL     1       0.710   8.297  21.212  0.00  0.00    +0.000 A 
ATOM     16  C   UNL     1       1.449   7.245  20.656  0.00  0.00    +0.000 A 
ATOM     17  C   UNL     1       2.147   7.446  19.446  0.00  0.00    +0.000 A 
ATOM     18  C   UNL     1       2.986   6.637  18.620  0.00  0.00    +0.000 A 
ATOM     19  H   UNL     1       2.942   9.418  17.051  0.00  0.00    +0.000 HD
ENDBRANCH   1  18
BRANCH   2  20
ATOM     20  N   UNL     1       5.750   5.425  19.573  0.00  0.00    +0.000 N 
ATOM     21  H   UNL     1       6.274   4.856  20.238  0.00  0.00    +0.000 HD
BRANCH  20  22
ATOM     22  C   UNL     1       6.652   5.855  18.491  0.00  0.00    +0.000 C 
BRANCH  22  23
ATOM     23  C   UNL     1       7.296   4.653  17.789  0.00  0.00    +0.000 C 
BRANCH  23  24
ATOM     24  C   UNL     1       6.836   4.506  16.359  0.00  0.00    +0.000 A 
ATOM     25  C   UNL     1       5.702   3.740  16.056  0.00  0.00    +0.000 A 
ATOM     26  C   UNL     1       5.301   3.563  14.731  0.00  0.00    +0.000 A 
ATOM     27  C   UNL     1       6.030   4.148  13.697  0.00  0.00    +0.000 A 
ATOM     28  C   UNL     1       7.150   4.926  13.989  0.00  0.00    +0.000 A 
ATOM     29  C   UNL     1       7.549   5.108  15.314  0.00  0.00    +0.000 A 
ENDBRANCH  23  24
ENDBRANCH  22  23
ENDBRANCH  20  22
ENDBRANCH   2  20
TORSDOF 5
ENDMDL
MODEL 5
REMARK VINA RESULT:      -8.1      0.892      1.261
REMARK  Name = 
REMARK  7 active torsions:
REMARK  status: ('A' for Active; 'I' for Inactive)
REMARK    1  A    between atoms: C_1  and  C_2
REMARK    2  A    between atoms: C_10  and  C_11
REMARK    3  A    between atoms: C_12  and  N_13
REMARK    4  A    between atoms: N_13  and  C_14
REMARK    5  A    between atoms: C_14  and  C_15
REMARK    6  A    between atoms: C_15  and  C_16
REMARK    7  A    between atoms: N_24  and  C_25
REMARK                            x       y       z     vdW  Elec       q    Type
REMARK                         _______ _______ _______ _____ _____    ______ ____
ROOT
ATOM      1  C   UNL     1       4.421   4.477  18.665  0.00  0.00    +0.000 C 
ATOM      2  C   UNL     1       3.259   5.134  18.672  0.00  0.00    +0.000 C 
ATOM      3  C   UNL     1       2.387   4.459  19.682  0.00  0.00    +0.000 C 
ATOM      4  O   UNL     1       1.240   4.782  19.944  0.00  0.00    +0.000 OA
ATOM      5  N   UNL     1       3.104   3.450  20.226  0.00  0.00    +0.000 N 
ATOM      6  C   UNL     1       2.632   2.576  21.269  0.00  0.00    +0.000 C 
ATOM      7  C   UNL     1       4.339   3.387  19.661  0.00  0.00    +0.000 C 
ATOM      8  O   UNL     1       5.221   2.586  19.926  0.00  0.00    +0.000 OA
ENDROOT
BRANCH   1  18
ATOM      9  C   UNL     1       7.236   5.590  19.652  0.00  0.00    +0.000 C 
ATOM     10  C   UNL     1       6.774   5.203  18.293  0.00  0.00    +0.000 A 
ATOM     11  N   UNL     1       7.598   5.293  17.200  0.00  0.00    +0.000 N 
ATOM     12  C   UNL     1       6.945   4.884  16.059  0.00  0.00    +0.000 A 
ATOM     13  C   UNL     1       7.401   4.819  14.736  0.00  0.00    +0.000 A 
ATOM     14  C   UNL     1       6.508   4.360  13.764  0.00  0.00    +0.000 A 
ATOM     15  C   UNL     1       5.213   3.979  14.104  0.00  0.00    +0.000 A 
ATOM     16  C   UNL     1       4.777   4.042  15.434  0.00  0.00    +0.000 A 
ATOM     17  C   UNL     1       5.656   4.506  16.435  0.00  0.00    +0.000 A 
ATOM     18  C   UNL     1       5.560   4.714  17.845  0.00  0.00    +0.000 A 
ATOM     19  H   UNL     1       8.557   5.617  17.217  0.00  0.00    +0.000 HD
ENDBRANCH   1  18
BRANCH   2  20
ATOM     20  N   UNL     1       2.795   6.248  17.975  0.00  0.00    +0.000 N 
ATOM     21  H   UNL     1       1.962   6.003  17.440  0.00  0.00    +0.000 HD
BRANCH  20  22
ATOM     22  C   UNL     1       2.557   7.523  18.675  0.00  0.00    +0.000 C 
BRANCH  22  23
ATOM     23  C   UNL     1       2.098   8.617  17.705  0.00  0.00    +0.000 C 
BRANCH  23  24
ATOM     24  C   UNL     1       1.618   9.857  18.419  0.00  0.00    +0.000 A 
ATOM     25  C   UNL     1       0.622   9.768  19.402  0.00  0.00    +0.000 A 
ATOM     26  C   UNL     1       0.144  10.918  20.031  0.00  0.00    +0.000 A 
ATOM     27  C   UNL     1       0.653  12.168  19.682  0.00  0.00    +0.000 A 
ATOM     28  C   UNL     1       1.655  12.266  18.718  0.00  0.00    +0.000 A 
ATOM     29  C   UNL     1       2.139  11.116  18.091  0.00  0.00    +0.000 A 
ENDBRANCH  23  24
ENDBRANCH  22  23
ENDBRANCH  20  22
ENDBRANCH   2  20
TORSDOF 5
ENDMDL
MODEL 6
REMARK VINA RESULT:      -7.9      3.941      8.195
REMARK  Name = 
REMARK  7 active torsions:
REMARK  status: ('A' for Active; 'I' for Inactive)
REMARK    1  A    between atoms: C_1  and  C_2
REMARK    2  A    between atoms: C_10  and  C_11
REMARK    3  A    between atoms: C_12  and  N_13
REMARK    4  A    between atoms: N_13  and  C_14
REMARK    5  A    between atoms: C_14  and  C_15
REMARK    6  A    between atoms: C_15  and  C_16
REMARK    7  A    between atoms: N_24  and  C_25
REMARK                            x       y       z     vdW  Elec       q    Type
REMARK                         _______ _______ _______ _____ _____    ______ ____
ROOT
ATOM      1  C   UNL     1       0.726   9.876  19.194  0.00  0.00    +0.000 C 
ATOM      2  C   UNL     1       0.524   9.170  20.309  0.00  0.00    +0.000 C 
ATOM      3  C   UNL     1       1.380   7.948  20.209  0.00  0.00    +0.000 C 
ATOM      4  O   UNL     1       1.437   7.062  21.046  0.00  0.00    +0.000 OA
ATOM      5  N   UNL     1       2.055   8.023  19.039  0.00  0.00    +0.000 N 
ATOM      6  C   UNL     1       3.017   7.052  18.583  0.00  0.00    +0.000 C 
ATOM      7  C   UNL     1       1.712   9.151  18.363  0.00  0.00    +0.000 C 
ATOM      8  O   UNL     1       2.137   9.506  17.276  0.00  0.00    +0.000 OA
ENDROOT
BRANCH   1  18
ATOM      9  C   UNL     1      -1.846  10.163  17.339  0.00  0.00    +0.000 C 
ATOM     10  C   UNL     1      -1.006  11.202  17.992  0.00  0.00    +0.000 A 
ATOM     11  N   UNL     1      -1.275  12.539  17.850  0.00  0.00    +0.000 N 
ATOM     12  C   UNL     1      -0.359  13.300  18.540  0.00  0.00    +0.000 A 
ATOM     13  C   UNL     1      -0.254  14.691  18.663  0.00  0.00    +0.000 A 
ATOM     14  C   UNL     1       0.794  15.198  19.436  0.00  0.00    +0.000 A 
ATOM     15  C   UNL     1       1.697  14.345  20.064  0.00  0.00    +0.000 A 
ATOM     16  C   UNL     1       1.574  12.955  19.937  0.00  0.00    +0.000 A 
ATOM     17  C   UNL     1       0.527  12.417  19.159  0.00  0.00    +0.000 A 
ATOM     18  C   UNL     1       0.110  11.097  18.803  0.00  0.00    +0.000 A 
ATOM     19  H   UNL     1      -2.040  12.927  17.312  0.00  0.00    +0.000 HD
ENDBRANCH   1  18
BRANCH   2  20
ATOM     20  N   UNL     1      -0.261   9.387  21.440  0.00  0.00    +0.000 N 
ATOM     21  H   UNL     1      -0.368   8.518  21.962  0.00  0.00    +0.000 HD
BRANCH  20  22
ATOM     22  C   UNL     1       0.066  10.474  22.379  0.00  0.00    +0.000 C 
BRANCH  22  23
ATOM     23  C   UNL     1      -1.196  11.048  23.033  0.00  0.00    +0.000 C 
BRANCH  23  24
ATOM     24  C   UNL     1      -1.582  12.391  22.463  0.00  0.00    +0.000 A 
ATOM     25  C   UNL     1      -0.956  13.560  22.917  0.00  0.00    +0.000 A 
ATOM     26  C   UNL     1      -1.343  14.807  22.426  0.00  0.00    +0.000 A 
ATOM     27  C   UNL     1      -2.361  14.899  21.477  0.00  0.00    +0.000 A 
ATOM     28  C   UNL     1      -2.978  13.741  21.006  0.00  0.00    +0.000 A 
ATOM     29  C   UNL     1      -2.588  12.492  21.494  0.00  0.00    +0.000 A 
ENDBRANCH  23  24
ENDBRANCH  22  23
ENDBRANCH  20  22
ENDBRANCH   2  20
TORSDOF 5
ENDMDL
MODEL 7
REMARK VINA RESULT:      -7.9      3.456      6.522
REMARK  Name = 
REMARK  7 active torsions:
REMARK  status: ('A' for Active; 'I' for Inactive)
REMARK    1  A    between atoms: C_1  and  C_2
REMARK    2  A    between atoms: C_10  and  C_11
REMARK    3  A    between atoms: C_12  and  N_13
REMARK    4  A    between atoms: N_13  and  C_14
REMARK    5  A    between atoms: C_14  and  C_15
REMARK    6  A    between atoms: C_15  and  C_16
REMARK    7  A    between atoms: N_24  and  C_25
REMARK                            x       y       z     vdW  Elec       q    Type
REMARK                         _______ _______ _______ _____ _____    ______ ____
ROOT
ATOM      1  C   UNL     1       4.846   5.314  17.392  0.00  0.00    +0.000 C 
ATOM      2  C   UNL     1       6.040   5.908  17.331  0.00  0.00    +0.000 C 
ATOM      3  C   UNL     1       6.686   5.450  16.061  0.00  0.00    +0.000 C 
ATOM      4  O   UNL     1       7.799   5.779  15.684  0.00  0.00    +0.000 OA
ATOM      5  N   UNL     1       5.814   4.625  15.439  0.00  0.00    +0.000 N 
ATOM      6  C   UNL     1       6.045   3.999  14.162  0.00  0.00    +0.000 C 
ATOM      7  C   UNL     1       4.683   4.483  16.179  0.00  0.00    +0.000 C 
ATOM      8  O   UNL     1       3.710   3.801  15.898  0.00  0.00    +0.000 OA
ENDROOT
BRANCH   1  18
ATOM      9  C   UNL     1       2.955   7.808  17.977  0.00  0.00    +0.000 C 
ATOM     10  C   UNL     1       3.063   6.496  18.668  0.00  0.00    +0.000 A 
ATOM     11  N   UNL     1       2.278   6.183  19.748  0.00  0.00    +0.000 N 
ATOM     12  C   UNL     1       2.565   4.921  20.214  0.00  0.00    +0.000 A 
ATOM     13  C   UNL     1       2.013   4.211  21.289  0.00  0.00    +0.000 A 
ATOM     14  C   UNL     1       2.505   2.927  21.540  0.00  0.00    +0.000 A 
ATOM     15  C   UNL     1       3.506   2.376  20.745  0.00  0.00    +0.000 A 
ATOM     16  C   UNL     1       4.041   3.097  19.669  0.00  0.00    +0.000 A 
ATOM     17  C   UNL     1       3.565   4.397  19.395  0.00  0.00    +0.000 A 
ATOM     18  C   UNL     1       3.873   5.401  18.426  0.00  0.00    +0.000 A 
ATOM     19  H   UNL     1       1.580   6.792  20.157  0.00  0.00    +0.000 HD
ENDBRANCH   1  18
BRANCH   2  20
ATOM     20  N   UNL     1       6.695   6.809  18.167  0.00  0.00    +0.000 N 
ATOM     21  H   UNL     1       7.339   6.311  18.781  0.00  0.00    +0.000 HD
BRANCH  20  22
ATOM     22  C   UNL     1       7.381   7.987  17.606  0.00  0.00    +0.000 C 
BRANCH  22  23
ATOM     23  C   UNL     1       8.627   8.351  18.422  0.00  0.00    +0.000 C 
BRANCH  23  24
ATOM     24  C   UNL     1       8.799   9.841  18.579  0.00  0.00    +0.000 A 
ATOM     25  C   UNL     1       8.300  10.719  17.606  0.00  0.00    +0.000 A 
ATOM     26  C   UNL     1       8.498  12.094  17.725  0.00  0.00    +0.000 A 
ATOM     27  C   UNL     1       9.199  12.607  18.815  0.00  0.00    +0.000 A 
ATOM     28  C   UNL     1       9.684  11.745  19.798  0.00  0.00    +0.000 A 
ATOM     29  C   UNL     1       9.482  10.369  19.683  0.00  0.00    +0.000 A 
ENDBRANCH  23  24
ENDBRANCH  22  23
ENDBRANCH  20  22
ENDBRANCH   2  20
TORSDOF 5
ENDMDL
MODEL 8
REMARK VINA RESULT:      -7.7      8.218     10.857
REMARK  Name = 
REMARK  7 active torsions:
REMARK  status: ('A' for Active; 'I' for Inactive)
REMARK    1  A    between atoms: C_1  and  C_2
REMARK    2  A    between atoms: C_10  and  C_11
REMARK    3  A    between atoms: C_12  and  N_13
REMARK    4  A    between atoms: N_13  and  C_14
REMARK    5  A    between atoms: C_14  and  C_15
REMARK    6  A    between atoms: C_15  and  C_16
REMARK    7  A    between atoms: N_24  and  C_25
REMARK                            x       y       z     vdW  Elec       q    Type
REMARK                         _______ _______ _______ _____ _____    ______ ____
ROOT
ATOM      1  C   UNL     1      -4.654  12.695  20.160  0.00  0.00    +0.000 C 
ATOM      2  C   UNL     1      -3.722  13.497  20.681  0.00  0.00    +0.000 C 
ATOM      3  C   UNL     1      -4.052  13.658  22.131  0.00  0.00    +0.000 C 
ATOM      4  O   UNL     1      -3.422  14.342  22.921  0.00  0.00    +0.000 OA
ATOM      5  N   UNL     1      -5.156  12.917  22.380  0.00  0.00    +0.000 N 
ATOM      6  C   UNL     1      -5.776  12.775  23.672  0.00  0.00    +0.000 C 
ATOM      7  C   UNL     1      -5.587  12.311  21.242  0.00  0.00    +0.000 C 
ATOM      8  O   UNL     1      -6.559  11.582  21.129  0.00  0.00    +0.000 OA
ENDROOT
BRANCH   1  18
ATOM      9  C   UNL     1      -7.067  13.430  18.218  0.00  0.00    +0.000 C 
ATOM     10  C   UNL     1      -5.855  12.602  17.981  0.00  0.00    +0.000 A 
ATOM     11  N   UNL     1      -5.621  11.998  16.772  0.00  0.00    +0.000 N 
ATOM     12  C   UNL     1      -4.444  11.286  16.799  0.00  0.00    +0.000 A 
ATOM     13  C   UNL     1      -3.830  10.522  15.798  0.00  0.00    +0.000 A 
ATOM     14  C   UNL     1      -2.621   9.895  16.109  0.00  0.00    +0.000 A 
ATOM     15  C   UNL     1      -2.048  10.030  17.370  0.00  0.00    +0.000 A 
ATOM     16  C   UNL     1      -2.671  10.804  18.358  0.00  0.00    +0.000 A 
ATOM     17  C   UNL     1      -3.895  11.446  18.072  0.00  0.00    +0.000 A 
ATOM     18  C   UNL     1      -4.796  12.275  18.809  0.00  0.00    +0.000 A 
ATOM     19  H   UNL     1      -6.225  12.060  15.962  0.00  0.00    +0.000 HD
ENDBRANCH   1  18
BRANCH   2  20
ATOM     20  N   UNL     1      -2.597  14.119  20.143  0.00  0.00    +0.000 N 
ATOM     21  H   UNL     1      -2.773  15.117  20.026  0.00  0.00    +0.000 HD
BRANCH  20  22
ATOM     22  C   UNL     1      -1.273  13.934  20.762  0.00  0.00    +0.000 C 
BRANCH  22  23
ATOM     23  C   UNL     1      -0.517  12.762  20.126  0.00  0.00    +0.000 C 
BRANCH  23  24
ATOM     24  C   UNL     1      -0.427  11.568  21.045  0.00  0.00    +0.000 A 
ATOM     25  C   UNL     1       0.200  10.389  20.616  0.00  0.00    +0.000 A 
ATOM     26  C   UNL     1       0.244   9.269  21.446  0.00  0.00    +0.000 A 
ATOM     27  C   UNL     1      -0.339   9.313  22.711  0.00  0.00    +0.000 A 
ATOM     28  C   UNL     1      -0.949  10.486  23.154  0.00  0.00    +0.000 A 
ATOM     29  C   UNL     1      -0.990  11.610  22.327  0.00  0.00    +0.000 A 
ENDBRANCH  23  24
ENDBRANCH  22  23
ENDBRANCH  20  22
ENDBRANCH   2  20
TORSDOF 5
ENDMDL
MODEL 9
REMARK VINA RESULT:      -7.7      1.125      1.478
REMARK  Name = 
REMARK  7 active torsions:
REMARK  status: ('A' for Active; 'I' for Inactive)
REMARK    1  A    between atoms: C_1  and  C_2
REMARK    2  A    between atoms: C_10  and  C_11
REMARK    3  A    between atoms: C_12  and  N_13
REMARK    4  A    between atoms: N_13  and  C_14
REMARK    5  A    between atoms: C_14  and  C_15
REMARK    6  A    between atoms: C_15  and  C_16
REMARK    7  A    between atoms: N_24  and  C_25
REMARK                            x       y       z     vdW  Elec       q    Type
REMARK                         _______ _______ _______ _____ _____    ______ ____
ROOT
ATOM      1  C   UNL     1       4.196   4.370  18.147  0.00  0.00    +0.000 C 
ATOM      2  C   UNL     1       3.402   5.236  18.780  0.00  0.00    +0.000 C 
ATOM      3  C   UNL     1       2.243   4.453  19.309  0.00  0.00    +0.000 C 
ATOM      4  O   UNL     1       1.304   4.925  19.930  0.00  0.00    +0.000 OA
ATOM      5  N   UNL     1       2.439   3.160  18.967  0.00  0.00    +0.000 N 
ATOM      6  C   UNL     1       1.561   2.075  19.323  0.00  0.00    +0.000 C 
ATOM      7  C   UNL     1       3.590   3.025  18.257  0.00  0.00    +0.000 C 
ATOM      8  O   UNL     1       4.045   1.990  17.799  0.00  0.00    +0.000 OA
ENDROOT
BRANCH   1  18
ATOM      9  C   UNL     1       6.901   5.459  19.425  0.00  0.00    +0.000 C 
ATOM     10  C   UNL     1       6.570   5.114  18.017  0.00  0.00    +0.000 A 
ATOM     11  N   UNL     1       7.489   5.242  17.008  0.00  0.00    +0.000 N 
ATOM     12  C   UNL     1       6.947   4.868  15.799  0.00  0.00    +0.000 A 
ATOM     13  C   UNL     1       7.523   4.846  14.522  0.00  0.00    +0.000 A 
ATOM     14  C   UNL     1       6.726   4.416  13.458  0.00  0.00    +0.000 A 
ATOM     15  C   UNL     1       5.408   4.020  13.665  0.00  0.00    +0.000 A 
ATOM     16  C   UNL     1       4.850   4.040  14.951  0.00  0.00    +0.000 A 
ATOM     17  C   UNL     1       5.631   4.474  16.043  0.00  0.00    +0.000 A 
ATOM     18  C   UNL     1       5.404   4.636  17.444  0.00  0.00    +0.000 A 
ATOM     19  H   UNL     1       8.441   5.568  17.123  0.00  0.00    +0.000 HD
ENDBRANCH   1  18
BRANCH   2  20
ATOM     20  N   UNL     1       3.493   6.606  19.019  0.00  0.00    +0.000 N 
ATOM     21  H   UNL     1       4.369   6.820  19.495  0.00  0.00    +0.000 HD
BRANCH  20  22
ATOM     22  C   UNL     1       3.292   7.571  17.924  0.00  0.00    +0.000 C 
BRANCH  22  23
ATOM     23  C   UNL     1       1.823   7.996  17.815  0.00  0.00    +0.000 C 
BRANCH  23  24
ATOM     24  C   UNL     1       1.526   9.252  18.596  0.00  0.00    +0.000 A 
ATOM     25  C   UNL     1       1.809  10.512  18.048  0.00  0.00    +0.000 A 
ATOM     26  C   UNL     1       1.579  11.673  18.786  0.00  0.00    +0.000 A 
ATOM     27  C   UNL     1       1.066  11.588  20.080  0.00  0.00    +0.000 A 
ATOM     28  C   UNL     1       0.764  10.342  20.628  0.00  0.00    +0.000 A 
ATOM     29  C   UNL     1       0.990   9.179  19.888  0.00  0.00    +0.000 A 
ENDBRANCH  23  24
ENDBRANCH  22  23
ENDBRANCH  20  22
ENDBRANCH   2  20
TORSDOF 5
ENDMDL
