MODEL 1
REMARK VINA RESULT:      -8.1      0.000      0.000
REMARK  Name = 
REMARK  9 active torsions:
REMARK  status: ('A' for Active; 'I' for Inactive)
REMARK    1  A    between atoms: C_2  and  O_3
REMARK    2  A    between atoms: C_2  and  C_4
REMARK    3  A    between atoms: C_4  and  C_5
REMARK    4  A    between atoms: C_5  and  N_6
REMARK    5  A    between atoms: C_5  and  C_21
REMARK    6  A    between atoms: N_6  and  S_7
REMARK    7  A    between atoms: S_7  and  C_10
REMARK    8  A    between atoms: C_13  and  O_14
REMARK    9  A    between atoms: O_14  and  C_15
REMARK                            x       y       z     vdW  Elec       q    Type
REMARK                         _______ _______ _______ _____ _____    ______ ____
ROOT
ATOM      1  N   UNL     1       1.931   4.184  18.865  0.00  0.00    +0.000 NA
ATOM      2  H   UNL     1       1.203   4.662  18.323  0.00  0.00    +0.000 HD
ENDROOT
BRANCH   1   3
ATOM      3  S   UNL     1       2.808   3.080  17.940  0.00  0.00    +0.000 S 
ATOM      4  O   UNL     1       3.139   1.914  18.729  0.00  0.00    +0.000 OA
ATOM      5  O   UNL     1       2.142   2.974  16.663  0.00  0.00    +0.000 OA
BRANCH   3   6
ATOM      6  C   UNL     1       4.326   3.942  17.637  0.00  0.00    +0.000 A 
ATOM      7  C   UNL     1       4.544   4.569  16.409  0.00  0.00    +0.000 A 
ATOM      8  C   UNL     1       5.693   5.339  16.232  0.00  0.00    +0.000 A 
ATOM      9  C   UNL     1       6.607   5.503  17.279  0.00  0.00    +0.000 A 
ATOM     10  C   UNL     1       6.412   4.817  18.478  0.00  0.00    +0.000 A 
ATOM     11  C   UNL     1       5.256   4.058  18.671  0.00  0.00    +0.000 A 
BRANCH   9  12
ATOM     12  O   UNL     1       7.661   6.318  17.000  0.00  0.00    +0.000 OA
BRANCH  12  13
ATOM     13  C   UNL     1       7.754   7.574  17.661  0.00  0.00    +0.000 C 
ATOM     14  F   UNL     1       8.332   7.527  18.880  0.00  0.00    +0.000 F 
ATOM     15  F   UNL     1       8.451   8.431  16.884  0.00  0.00    +0.000 F 
ATOM     16  F   UNL     1       6.507   8.070  17.818  0.00  0.00    +0.000 F 
ENDBRANCH  12  13
ENDBRANCH   9  12
ENDBRANCH   3   6
ENDBRANCH   1   3
BRANCH   1  17
ATOM     17  C   UNL     1       2.578   5.076  19.861  0.00  0.00    +0.000 C 
BRANCH  17  18
ATOM     18  C   UNL     1       2.328   6.553  19.550  0.00  0.00    +0.000 A 
ATOM     19  C   UNL     1       1.715   7.417  20.477  0.00  0.00    +0.000 A 
ATOM     20  C   UNL     1       1.337   8.710  20.119  0.00  0.00    +0.000 A 
ATOM     21  C   UNL     1       1.586   9.175  18.836  0.00  0.00    +0.000 A 
ATOM     22  C   UNL     1       2.239   8.356  17.915  0.00  0.00    +0.000 A 
ATOM     23  C   UNL     1       2.614   7.056  18.270  0.00  0.00    +0.000 A 
ENDBRANCH  17  18
BRANCH  17  24
ATOM     24  C   UNL     1       2.230   4.704  21.309  0.00  0.00    +0.000 C 
BRANCH  24  26
ATOM     25  O   UNL     1       2.774   2.456  22.004  0.00  0.00    +0.000 OA
ATOM     26  C   UNL     1       1.968   3.247  21.543  0.00  0.00    +0.000 C 
BRANCH  26  27
ATOM     27  O   UNL     1       0.718   2.890  21.158  0.00  0.00    +0.000 OA
ATOM     28  H   UNL     1       0.603   2.771  20.194  0.00  0.00    +0.000 HD
ENDBRANCH  26  27
ENDBRANCH  24  26
ENDBRANCH  17  24
ENDBRANCH   1  17
TORSDOF 9
ENDMDL
MODEL 2
REMARK VINA RESULT:      -7.7      0.554      1.614
REMARK  Name = 
REMARK  9 active torsions:
REMARK  status: ('A' for Active; 'I' for Inactive)
REMARK    1  A    between atoms: C_2  and  O_3
REMARK    2  A    between atoms: C_2  and  C_4
REMARK    3  A    between atoms: C_4  and  C_5
REMARK    4  A    between atoms: C_5  and  N_6
REMARK    5  A    between atoms: C_5  and  C_21
REMARK    6  A    between atoms: N_6  and  S_7
REMARK    7  A    between atoms: S_7  and  C_10
REMARK    8  A    between atoms: C_13  and  O_14
REMARK    9  A    between atoms: O_14  and  C_15
REMARK                            x       y       z     vdW  Elec       q    Type
REMARK                         _______ _______ _______ _____ _____    ______ ____
ROOT
ATOM      1  N   UNL     1       2.186   4.174  18.882  0.00  0.00    +0.000 NA
ATOM      2  H   UNL     1       1.391   4.492  18.316  0.00  0.00    +0.000 HD
ENDROOT
BRANCH   1   3
ATOM      3  S   UNL     1       3.321   3.315  17.979  0.00  0.00    +0.000 S 
ATOM      4  O   UNL     1       3.909   2.263  18.779  0.00  0.00    +0.000 OA
ATOM      5  O   UNL     1       2.726   3.052  16.690  0.00  0.00    +0.000 OA
BRANCH   3   6
ATOM      6  C   UNL     1       4.592   4.519  17.702  0.00  0.00    +0.000 A 
ATOM      7  C   UNL     1       5.731   4.535  18.509  0.00  0.00    +0.000 A 
ATOM      8  C   UNL     1       6.770   5.414  18.202  0.00  0.00    +0.000 A 
ATOM      9  C   UNL     1       6.685   6.253  17.086  0.00  0.00    +0.000 A 
ATOM     10  C   UNL     1       5.514   6.275  16.328  0.00  0.00    +0.000 A 
ATOM     11  C   UNL     1       4.475   5.387  16.616  0.00  0.00    +0.000 A 
BRANCH   9  12
ATOM     12  O   UNL     1       7.782   7.026  16.862  0.00  0.00    +0.000 OA
BRANCH  12  13
ATOM     13  C   UNL     1       7.990   8.179  17.671  0.00  0.00    +0.000 C 
ATOM     14  F   UNL     1       6.865   8.857  17.982  0.00  0.00    +0.000 F 
ATOM     15  F   UNL     1       8.604   7.810  18.815  0.00  0.00    +0.000 F 
ATOM     16  F   UNL     1       8.808   9.026  17.009  0.00  0.00    +0.000 F 
ENDBRANCH  12  13
ENDBRANCH   9  12
ENDBRANCH   3   6
ENDBRANCH   1   3
BRANCH   1  17
ATOM     17  C   UNL     1       2.579   5.163  19.918  0.00  0.00    +0.000 C 
BRANCH  17  18
ATOM     18  C   UNL     1       2.097   6.574  19.571  0.00  0.00    +0.000 A 
ATOM     19  C   UNL     1       2.249   7.117  18.281  0.00  0.00    +0.000 A 
ATOM     20  C   UNL     1       1.968   8.457  18.023  0.00  0.00    +0.000 A 
ATOM     21  C   UNL     1       1.505   9.277  19.043  0.00  0.00    +0.000 A 
ATOM     22  C   UNL     1       1.296   8.750  20.317  0.00  0.00    +0.000 A 
ATOM     23  C   UNL     1       1.584   7.406  20.578  0.00  0.00    +0.000 A 
ENDBRANCH  17  18
BRANCH  17  24
ATOM     24  C   UNL     1       2.184   4.730  21.336  0.00  0.00    +0.000 C 
BRANCH  24  26
ATOM     25  O   UNL     1       2.798   2.489  21.994  0.00  0.00    +0.000 OA
ATOM     26  C   UNL     1       1.980   3.256  21.514  0.00  0.00    +0.000 C 
BRANCH  26  27
ATOM     27  O   UNL     1       0.770   2.854  21.054  0.00  0.00    +0.000 OA
ATOM     28  H   UNL     1       0.120   2.628  21.749  0.00  0.00    +0.000 HD
ENDBRANCH  26  27
ENDBRANCH  24  26
ENDBRANCH  17  24
ENDBRANCH   1  17
TORSDOF 9
ENDMDL
MODEL 3
REMARK VINA RESULT:      -7.7      3.119      3.839
REMARK  Name = 
REMARK  9 active torsions:
REMARK  status: ('A' for Active; 'I' for Inactive)
REMARK    1  A    between atoms: C_2  and  O_3
REMARK    2  A    between atoms: C_2  and  C_4
REMARK    3  A    between atoms: C_4  and  C_5
REMARK    4  A    between atoms: C_5  and  N_6
REMARK    5  A    between atoms: C_5  and  C_21
REMARK    6  A    between atoms: N_6  and  S_7
REMARK    7  A    between atoms: S_7  and  C_10
REMARK    8  A    between atoms: C_13  and  O_14
REMARK    9  A    between atoms: O_14  and  C_15
REMARK                            x       y       z     vdW  Elec       q    Type
REMARK                         _______ _______ _______ _____ _____    ______ ____
ROOT
ATOM      1  N   UNL     1       3.621   5.147  18.868  0.00  0.00    +0.000 NA
ATOM      2  H   UNL     1       3.359   5.531  17.953  0.00  0.00    +0.000 HD
ENDROOT
BRANCH   1   3
ATOM      3  S   UNL     1       5.225   4.629  18.919  0.00  0.00    +0.000 S 
ATOM      4  O   UNL     1       6.032   5.564  19.669  0.00  0.00    +0.000 OA
ATOM      5  O   UNL     1       5.204   3.218  19.227  0.00  0.00    +0.000 OA
BRANCH   3   6
ATOM      6  C   UNL     1       5.731   4.758  17.225  0.00  0.00    +0.000 A 
ATOM      7  C   UNL     1       7.074   4.597  16.879  0.00  0.00    +0.000 A 
ATOM      8  C   UNL     1       7.434   4.588  15.532  0.00  0.00    +0.000 A 
ATOM      9  C   UNL     1       6.460   4.713  14.535  0.00  0.00    +0.000 A 
ATOM     10  C   UNL     1       5.131   4.941  14.895  0.00  0.00    +0.000 A 
ATOM     11  C   UNL     1       4.757   4.934  16.240  0.00  0.00    +0.000 A 
BRANCH   9  12
ATOM     12  O   UNL     1       6.929   4.637  13.260  0.00  0.00    +0.000 OA
BRANCH  12  13
ATOM     13  C   UNL     1       6.446   3.604  12.409  0.00  0.00    +0.000 C 
ATOM     14  F   UNL     1       6.101   2.466  13.046  0.00  0.00    +0.000 F 
ATOM     15  F   UNL     1       5.376   4.060  11.724  0.00  0.00    +0.000 F 
ATOM     16  F   UNL     1       7.415   3.296  11.517  0.00  0.00    +0.000 F 
ENDBRANCH  12  13
ENDBRANCH   9  12
ENDBRANCH   3   6
ENDBRANCH   1   3
BRANCH   1  17
ATOM     17  C   UNL     1       2.987   5.878  19.995  0.00  0.00    +0.000 C 
BRANCH  17  18
ATOM     18  C   UNL     1       2.277   7.149  19.522  0.00  0.00    +0.000 A 
ATOM     19  C   UNL     1       2.411   7.632  18.207  0.00  0.00    +0.000 A 
ATOM     20  C   UNL     1       1.904   8.877  17.839  0.00  0.00    +0.000 A 
ATOM     21  C   UNL     1       1.230   9.654  18.771  0.00  0.00    +0.000 A 
ATOM     22  C   UNL     1       1.038   9.174  20.066  0.00  0.00    +0.000 A 
ATOM     23  C   UNL     1       1.552   7.927  20.438  0.00  0.00    +0.000 A 
ENDBRANCH  17  18
BRANCH  17  24
ATOM     24  C   UNL     1       2.092   4.981  20.860  0.00  0.00    +0.000 C 
BRANCH  24  26
ATOM     25  O   UNL     1       0.848   3.419  19.501  0.00  0.00    +0.000 OA
ATOM     26  C   UNL     1       1.773   3.643  20.264  0.00  0.00    +0.000 C 
BRANCH  26  27
ATOM     27  O   UNL     1       2.628   2.683  20.692  0.00  0.00    +0.000 OA
ATOM     28  H   UNL     1       2.214   1.962  21.207  0.00  0.00    +0.000 HD
ENDBRANCH  26  27
ENDBRANCH  24  26
ENDBRANCH  17  24
ENDBRANCH   1  17
TORSDOF 9
ENDMDL
MODEL 4
REMARK VINA RESULT:      -7.6      3.062      3.635
REMARK  Name = 
REMARK  9 active torsions:
REMARK  status: ('A' for Active; 'I' for Inactive)
REMARK    1  A    between atoms: C_2  and  O_3
REMARK    2  A    between atoms: C_2  and  C_4
REMARK    3  A    between atoms: C_4  and  C_5
REMARK    4  A    between atoms: C_5  and  N_6
REMARK    5  A    between atoms: C_5  and  C_21
REMARK    6  A    between atoms: N_6  and  S_7
REMARK    7  A    between atoms: S_7  and  C_10
REMARK    8  A    between atoms: C_13  and  O_14
REMARK    9  A    between atoms: O_14  and  C_15
REMARK                            x       y       z     vdW  Elec       q    Type
REMARK                         _______ _______ _______ _____ _____    ______ ____
ROOT
ATOM      1  N   UNL     1       3.413   4.637  18.983  0.00  0.00    +0.000 NA
ATOM      2  H   UNL     1       3.087   4.860  18.036  0.00  0.00    +0.000 HD
ENDROOT
BRANCH   1   3
ATOM      3  S   UNL     1       5.075   4.358  19.046  0.00  0.00    +0.000 S 
ATOM      4  O   UNL     1       5.731   5.400  19.804  0.00  0.00    +0.000 OA
ATOM      5  O   UNL     1       5.257   2.959  19.355  0.00  0.00    +0.000 OA
BRANCH   3   6
ATOM      6  C   UNL     1       5.570   4.561  17.357  0.00  0.00    +0.000 A 
ATOM      7  C   UNL     1       6.923   4.678  17.032  0.00  0.00    +0.000 A 
ATOM      8  C   UNL     1       7.299   4.721  15.689  0.00  0.00    +0.000 A 
ATOM      9  C   UNL     1       6.336   4.624  14.678  0.00  0.00    +0.000 A 
ATOM     10  C   UNL     1       4.984   4.576  15.016  0.00  0.00    +0.000 A 
ATOM     11  C   UNL     1       4.598   4.515  16.357  0.00  0.00    +0.000 A 
BRANCH   9  12
ATOM     12  O   UNL     1       6.832   4.627  13.411  0.00  0.00    +0.000 OA
BRANCH  12  13
ATOM     13  C   UNL     1       6.437   3.594  12.514  0.00  0.00    +0.000 C 
ATOM     14  F   UNL     1       7.315   3.347  11.520  0.00  0.00    +0.000 F 
ATOM     15  F   UNL     1       6.240   2.455  13.212  0.00  0.00    +0.000 F 
ATOM     16  F   UNL     1       5.262   3.947  11.945  0.00  0.00    +0.000 F 
ENDBRANCH  12  13
ENDBRANCH   9  12
ENDBRANCH   3   6
ENDBRANCH   1   3
BRANCH   1  17
ATOM     17  C   UNL     1       2.698   5.412  20.029  0.00  0.00    +0.000 C 
BRANCH  17  18
ATOM     18  C   UNL     1       2.373   6.834  19.563  0.00  0.00    +0.000 A 
ATOM     19  C   UNL     1       1.734   7.765  20.403  0.00  0.00    +0.000 A 
ATOM     20  C   UNL     1       1.289   8.992  19.915  0.00  0.00    +0.000 A 
ATOM     21  C   UNL     1       1.496   9.325  18.583  0.00  0.00    +0.000 A 
ATOM     22  C   UNL     1       2.172   8.440  17.744  0.00  0.00    +0.000 A 
ATOM     23  C   UNL     1       2.615   7.206  18.231  0.00  0.00    +0.000 A 
ENDBRANCH  17  18
BRANCH  17  24
ATOM     24  C   UNL     1       1.474   4.673  20.586  0.00  0.00    +0.000 C 
BRANCH  24  26
ATOM     25  O   UNL     1       0.760   2.694  19.399  0.00  0.00    +0.000 OA
ATOM     26  C   UNL     1       1.428   3.205  20.282  0.00  0.00    +0.000 C 
BRANCH  26  27
ATOM     27  O   UNL     1       2.209   2.490  21.128  0.00  0.00    +0.000 OA
ATOM     28  H   UNL     1       2.701   1.754  20.711  0.00  0.00    +0.000 HD
ENDBRANCH  26  27
ENDBRANCH  24  26
ENDBRANCH  17  24
ENDBRANCH   1  17
TORSDOF 9
ENDMDL
MODEL 5
REMARK VINA RESULT:      -7.4      0.901      1.689
REMARK  Name = 
REMARK  9 active torsions:
REMARK  status: ('A' for Active; 'I' for Inactive)
REMARK    1  A    between atoms: C_2  and  O_3
REMARK    2  A    between atoms: C_2  and  C_4
REMARK    3  A    between atoms: C_4  and  C_5
REMARK    4  A    between atoms: C_5  and  N_6
REMARK    5  A    between atoms: C_5  and  C_21
REMARK    6  A    between atoms: N_6  and  S_7
REMARK    7  A    between atoms: S_7  and  C_10
REMARK    8  A    between atoms: C_13  and  O_14
REMARK    9  A    between atoms: O_14  and  C_15
REMARK                            x       y       z     vdW  Elec       q    Type
REMARK                         _______ _______ _______ _____ _____    ______ ____
ROOT
ATOM      1  N   UNL     1       2.431   3.489  18.709  0.00  0.00    +0.000 NA
ATOM      2  H   UNL     1       2.007   3.919  17.880  0.00  0.00    +0.000 HD
ENDROOT
BRANCH   1   3
ATOM      3  S   UNL     1       3.881   2.702  18.361  0.00  0.00    +0.000 S 
ATOM      4  O   UNL     1       4.435   2.115  19.561  0.00  0.00    +0.000 OA
ATOM      5  O   UNL     1       3.666   1.928  17.161  0.00  0.00    +0.000 OA
BRANCH   3   6
ATOM      6  C   UNL     1       4.951   4.040  17.903  0.00  0.00    +0.000 A 
ATOM      7  C   UNL     1       5.842   4.576  18.834  0.00  0.00    +0.000 A 
ATOM      8  C   UNL     1       6.754   5.547  18.423  0.00  0.00    +0.000 A 
ATOM      9  C   UNL     1       6.794   5.964  17.087  0.00  0.00    +0.000 A 
ATOM     10  C   UNL     1       5.853   5.471  16.183  0.00  0.00    +0.000 A 
ATOM     11  C   UNL     1       4.948   4.485  16.581  0.00  0.00    +0.000 A 
BRANCH   9  12
ATOM     12  O   UNL     1       7.760   6.878  16.799  0.00  0.00    +0.000 OA
BRANCH  12  13
ATOM     13  C   UNL     1       7.889   8.029  17.627  0.00  0.00    +0.000 C 
ATOM     14  F   UNL     1       8.478   7.800  18.819  0.00  0.00    +0.000 F 
ATOM     15  F   UNL     1       8.598   8.970  16.967  0.00  0.00    +0.000 F 
ATOM     16  F   UNL     1       6.655   8.525  17.868  0.00  0.00    +0.000 F 
ENDBRANCH  12  13
ENDBRANCH   9  12
ENDBRANCH   3   6
ENDBRANCH   1   3
BRANCH   1  17
ATOM     17  C   UNL     1       2.246   4.309  19.933  0.00  0.00    +0.000 C 
BRANCH  17  18
ATOM     18  C   UNL     1       2.048   5.790  19.602  0.00  0.00    +0.000 A 
ATOM     19  C   UNL     1       2.363   6.320  18.337  0.00  0.00    +0.000 A 
ATOM     20  C   UNL     1       2.343   7.693  18.103  0.00  0.00    +0.000 A 
ATOM     21  C   UNL     1       1.985   8.565  19.121  0.00  0.00    +0.000 A 
ATOM     22  C   UNL     1       1.618   8.062  20.369  0.00  0.00    +0.000 A 
ATOM     23  C   UNL     1       1.642   6.683  20.607  0.00  0.00    +0.000 A 
ENDBRANCH  17  18
BRANCH  17  24
ATOM     24  C   UNL     1       1.159   3.755  20.863  0.00  0.00    +0.000 C 
BRANCH  24  26
ATOM     25  O   UNL     1       0.922   2.145  22.649  0.00  0.00    +0.000 OA
ATOM     26  C   UNL     1       1.639   2.754  21.872  0.00  0.00    +0.000 C 
BRANCH  26  27
ATOM     27  O   UNL     1       2.985   2.611  21.841  0.00  0.00    +0.000 OA
ATOM     28  H   UNL     1       3.316   1.747  22.160  0.00  0.00    +0.000 HD
ENDBRANCH  26  27
ENDBRANCH  24  26
ENDBRANCH  17  24
ENDBRANCH   1  17
TORSDOF 9
ENDMDL
MODEL 6
REMARK VINA RESULT:      -7.2      3.254      6.223
REMARK  Name = 
REMARK  9 active torsions:
REMARK  status: ('A' for Active; 'I' for Inactive)
REMARK    1  A    between atoms: C_2  and  O_3
REMARK    2  A    between atoms: C_2  and  C_4
REMARK    3  A    between atoms: C_4  and  C_5
REMARK    4  A    between atoms: C_5  and  N_6
REMARK    5  A    between atoms: C_5  and  C_21
REMARK    6  A    between atoms: N_6  and  S_7
REMARK    7  A    between atoms: S_7  and  C_10
REMARK    8  A    between atoms: C_13  and  O_14
REMARK    9  A    between atoms: O_14  and  C_15
REMARK                            x       y       z     vdW  Elec       q    Type
REMARK                         _______ _______ _______ _____ _____    ______ ____
ROOT
ATOM      1  N   UNL     1       4.388   3.974  17.588  0.00  0.00    +0.000 NA
ATOM      2  H   UNL     1       5.049   3.705  18.326  0.00  0.00    +0.000 HD
ENDROOT
BRANCH   1   3
ATOM      3  S   UNL     1       2.788   3.636  17.996  0.00  0.00    +0.000 S 
ATOM      4  O   UNL     1       1.967   3.578  16.808  0.00  0.00    +0.000 OA
ATOM      5  O   UNL     1       2.815   2.559  18.959  0.00  0.00    +0.000 OA
BRANCH   3   6
ATOM      6  C   UNL     1       2.297   5.086  18.890  0.00  0.00    +0.000 A 
ATOM      7  C   UNL     1       1.857   4.981  20.210  0.00  0.00    +0.000 A 
ATOM      8  C   UNL     1       1.586   6.144  20.932  0.00  0.00    +0.000 A 
ATOM      9  C   UNL     1       1.775   7.402  20.349  0.00  0.00    +0.000 A 
ATOM     10  C   UNL     1       2.151   7.491  19.008  0.00  0.00    +0.000 A 
ATOM     11  C   UNL     1       2.441   6.334  18.283  0.00  0.00    +0.000 A 
BRANCH   9  12
ATOM     12  O   UNL     1       1.526   8.459  21.170  0.00  0.00    +0.000 OA
BRANCH  12  13
ATOM     13  C   UNL     1       0.235   9.056  21.152  0.00  0.00    +0.000 C 
ATOM     14  F   UNL     1      -0.203   9.410  19.925  0.00  0.00    +0.000 F 
ATOM     15  F   UNL     1      -0.655   8.201  21.700  0.00  0.00    +0.000 F 
ATOM     16  F   UNL     1       0.268  10.173  21.913  0.00  0.00    +0.000 F 
ENDBRANCH  12  13
ENDBRANCH   9  12
ENDBRANCH   3   6
ENDBRANCH   1   3
BRANCH   1  17
ATOM     17  C   UNL     1       4.784   5.230  16.900  0.00  0.00    +0.000 C 
BRANCH  17  18
ATOM     18  C   UNL     1       5.948   5.926  17.609  0.00  0.00    +0.000 A 
ATOM     19  C   UNL     1       6.469   7.153  17.157  0.00  0.00    +0.000 A 
ATOM     20  C   UNL     1       7.634   7.688  17.702  0.00  0.00    +0.000 A 
ATOM     21  C   UNL     1       8.290   7.020  18.727  0.00  0.00    +0.000 A 
ATOM     22  C   UNL     1       7.766   5.829  19.227  0.00  0.00    +0.000 A 
ATOM     23  C   UNL     1       6.598   5.288  18.677  0.00  0.00    +0.000 A 
ENDBRANCH  17  18
BRANCH  17  24
ATOM     24  C   UNL     1       5.030   5.034  15.399  0.00  0.00    +0.000 C 
BRANCH  24  26
ATOM     25  O   UNL     1       7.222   4.699  14.439  0.00  0.00    +0.000 OA
ATOM     26  C   UNL     1       6.266   4.257  15.056  0.00  0.00    +0.000 C 
BRANCH  26  27
ATOM     27  O   UNL     1       6.197   2.978  15.494  0.00  0.00    +0.000 OA
ATOM     28  H   UNL     1       5.788   2.349  14.866  0.00  0.00    +0.000 HD
ENDBRANCH  26  27
ENDBRANCH  24  26
ENDBRANCH  17  24
ENDBRANCH   1  17
TORSDOF 9
ENDMDL
MODEL 7
REMARK VINA RESULT:      -7.2      3.404      6.674
REMARK  Name = 
REMARK  9 active torsions:
REMARK  status: ('A' for Active; 'I' for Inactive)
REMARK    1  A    between atoms: C_2  and  O_3
REMARK    2  A    between atoms: C_2  and  C_4
REMARK    3  A    between atoms: C_4  and  C_5
REMARK    4  A    between atoms: C_5  and  N_6
REMARK    5  A    between atoms: C_5  and  C_21
REMARK    6  A    between atoms: N_6  and  S_7
REMARK    7  A    between atoms: S_7  and  C_10
REMARK    8  A    between atoms: C_13  and  O_14
REMARK    9  A    between atoms: O_14  and  C_15
REMARK                            x       y       z     vdW  Elec       q    Type
REMARK                         _______ _______ _______ _____ _____    ______ ____
ROOT
ATOM      1  N   UNL     1       4.954   4.978  16.476  0.00  0.00    +0.000 NA
ATOM      2  H   UNL     1       4.432   5.342  15.671  0.00  0.00    +0.000 HD
ENDROOT
BRANCH   1   3
ATOM      3  S   UNL     1       3.944   4.403  17.698  0.00  0.00    +0.000 S 
ATOM      4  O   UNL     1       2.844   3.655  17.130  0.00  0.00    +0.000 OA
ATOM      5  O   UNL     1       4.794   3.849  18.725  0.00  0.00    +0.000 OA
BRANCH   3   6
ATOM      6  C   UNL     1       3.257   5.892  18.371  0.00  0.00    +0.000 A 
ATOM      7  C   UNL     1       3.326   7.085  17.650  0.00  0.00    +0.000 A 
ATOM      8  C   UNL     1       2.680   8.218  18.144  0.00  0.00    +0.000 A 
ATOM      9  C   UNL     1       1.950   8.156  19.337  0.00  0.00    +0.000 A 
ATOM     10  C   UNL     1       1.946   6.976  20.081  0.00  0.00    +0.000 A 
ATOM     11  C   UNL     1       2.575   5.832  19.587  0.00  0.00    +0.000 A 
BRANCH   9  12
ATOM     12  O   UNL     1       1.323   9.312  19.687  0.00  0.00    +0.000 OA
BRANCH  12  13
ATOM     13  C   UNL     1       0.572  10.014  18.704  0.00  0.00    +0.000 C 
ATOM     14  F   UNL     1       0.220   9.275  17.631  0.00  0.00    +0.000 F 
ATOM     15  F   UNL     1      -0.546  10.512  19.274  0.00  0.00    +0.000 F 
ATOM     16  F   UNL     1       1.315  11.053  18.258  0.00  0.00    +0.000 F 
ENDBRANCH  12  13
ENDBRANCH   9  12
ENDBRANCH   3   6
ENDBRANCH   1   3
BRANCH   1  17
ATOM     17  C   UNL     1       6.197   4.271  16.076  0.00  0.00    +0.000 C 
BRANCH  17  18
ATOM     18  C   UNL     1       6.419   4.321  14.562  0.00  0.00    +0.000 A 
ATOM     19  C   UNL     1       5.699   3.497  13.676  0.00  0.00    +0.000 A 
ATOM     20  C   UNL     1       6.031   3.426  12.325  0.00  0.00    +0.000 A 
ATOM     21  C   UNL     1       7.073   4.195  11.825  0.00  0.00    +0.000 A 
ATOM     22  C   UNL     1       7.767   5.058  12.672  0.00  0.00    +0.000 A 
ATOM     23  C   UNL     1       7.439   5.126  14.031  0.00  0.00    +0.000 A 
ENDBRANCH  17  18
BRANCH  17  24
ATOM     24  C   UNL     1       7.426   4.728  16.874  0.00  0.00    +0.000 C 
BRANCH  24  26
ATOM     25  O   UNL     1       7.432   7.140  16.996  0.00  0.00    +0.000 OA
ATOM     26  C   UNL     1       7.285   6.061  17.545  0.00  0.00    +0.000 C 
BRANCH  26  27
ATOM     27  O   UNL     1       6.993   5.935  18.862  0.00  0.00    +0.000 OA
ATOM     28  H   UNL     1       6.308   5.267  19.070  0.00  0.00    +0.000 HD
ENDBRANCH  26  27
ENDBRANCH  24  26
ENDBRANCH  17  24
ENDBRANCH   1  17
TORSDOF 9
ENDMDL
MODEL 8
REMARK VINA RESULT:      -7.1      3.441      4.958
REMARK  Name = 
REMARK  9 active torsions:
REMARK  status: ('A' for Active; 'I' for Inactive)
REMARK    1  A    between atoms: C_2  and  O_3
REMARK    2  A    between atoms: C_2  and  C_4
REMARK    3  A    between atoms: C_4  and  C_5
REMARK    4  A    between atoms: C_5  and  N_6
REMARK    5  A    between atoms: C_5  and  C_21
REMARK    6  A    between atoms: N_6  and  S_7
REMARK    7  A    between atoms: S_7  and  C_10
REMARK    8  A    between atoms: C_13  and  O_14
REMARK    9  A    between atoms: O_14  and  C_15
REMARK                            x       y       z     vdW  Elec       q    Type
REMARK                         _______ _______ _______ _____ _____    ______ ____
ROOT
ATOM      1  N   UNL     1       4.381   5.859  19.364  0.00  0.00    +0.000 NA
ATOM      2  H   UNL     1       4.270   6.220  20.318  0.00  0.00    +0.000 HD
ENDROOT
BRANCH   1   3
ATOM      3  S   UNL     1       5.600   4.701  19.247  0.00  0.00    +0.000 S 
ATOM      4  O   UNL     1       6.810   5.178  19.879  0.00  0.00    +0.000 OA
ATOM      5  O   UNL     1       5.010   3.428  19.589  0.00  0.00    +0.000 OA
BRANCH   3   6
ATOM      6  C   UNL     1       5.920   4.646  17.504  0.00  0.00    +0.000 A 
ATOM      7  C   UNL     1       4.916   4.251  16.618  0.00  0.00    +0.000 A 
ATOM      8  C   UNL     1       5.151   4.325  15.246  0.00  0.00    +0.000 A 
ATOM      9  C   UNL     1       6.370   4.812  14.759  0.00  0.00    +0.000 A 
ATOM     10  C   UNL     1       7.389   5.139  15.654  0.00  0.00    +0.000 A 
ATOM     11  C   UNL     1       7.157   5.085  17.030  0.00  0.00    +0.000 A 
BRANCH   9  12
ATOM     12  O   UNL     1       6.459   4.884  13.403  0.00  0.00    +0.000 OA
BRANCH  12  13
ATOM     13  C   UNL     1       6.253   3.704  12.635  0.00  0.00    +0.000 C 
ATOM     14  F   UNL     1       6.399   2.553  13.323  0.00  0.00    +0.000 F 
ATOM     15  F   UNL     1       5.013   3.736  12.101  0.00  0.00    +0.000 F 
ATOM     16  F   UNL     1       7.147   3.690  11.621  0.00  0.00    +0.000 F 
ENDBRANCH  12  13
ENDBRANCH   9  12
ENDBRANCH   3   6
ENDBRANCH   1   3
BRANCH   1  17
ATOM     17  C   UNL     1       3.084   5.721  18.654  0.00  0.00    +0.000 C 
BRANCH  17  18
ATOM     18  C   UNL     1       2.229   4.595  19.241  0.00  0.00    +0.000 A 
ATOM     19  C   UNL     1       2.105   4.400  20.629  0.00  0.00    +0.000 A 
ATOM     20  C   UNL     1       1.470   3.273  21.146  0.00  0.00    +0.000 A 
ATOM     21  C   UNL     1       0.923   2.329  20.288  0.00  0.00    +0.000 A 
ATOM     22  C   UNL     1       0.988   2.526  18.909  0.00  0.00    +0.000 A 
ATOM     23  C   UNL     1       1.630   3.655  18.388  0.00  0.00    +0.000 A 
ENDBRANCH  17  18
BRANCH  17  24
ATOM     24  C   UNL     1       2.323   7.049  18.538  0.00  0.00    +0.000 C 
BRANCH  24  26
ATOM     25  O   UNL     1       2.531   9.190  17.439  0.00  0.00    +0.000 OA
ATOM     26  C   UNL     1       2.942   8.054  17.614  0.00  0.00    +0.000 C 
BRANCH  26  27
ATOM     27  O   UNL     1       4.017   7.548  16.963  0.00  0.00    +0.000 OA
ATOM     28  H   UNL     1       4.626   7.023  17.521  0.00  0.00    +0.000 HD
ENDBRANCH  26  27
ENDBRANCH  24  26
ENDBRANCH  17  24
ENDBRANCH   1  17
TORSDOF 9
ENDMDL
MODEL 9
REMARK VINA RESULT:      -7.1      3.748      5.091
REMARK  Name = 
REMARK  9 active torsions:
REMARK  status: ('A' for Active; 'I' for Inactive)
REMARK    1  A    between atoms: C_2  and  O_3
REMARK    2  A    between atoms: C_2  and  C_4
REMARK    3  A    between atoms: C_4  and  C_5
REMARK    4  A    between atoms: C_5  and  N_6
REMARK    5  A    between atoms: C_5  and  C_21
REMARK    6  A    between atoms: N_6  and  S_7
REMARK    7  A    between atoms: S_7  and  C_10
REMARK    8  A    between atoms: C_13  and  O_14
REMARK    9  A    between atoms: O_14  and  C_15
REMARK                            x       y       z     vdW  Elec       q    Type
REMARK                         _______ _______ _______ _____ _____    ______ ____
ROOT
ATOM      1  N   UNL     1       4.392   5.921  18.943  0.00  0.00    +0.000 NA
ATOM      2  H   UNL     1       4.145   6.187  19.903  0.00  0.00    +0.000 HD
ENDROOT
BRANCH   1   3
ATOM      3  S   UNL     1       5.851   5.080  18.860  0.00  0.00    +0.000 S 
ATOM      4  O   UNL     1       6.950   5.940  19.239  0.00  0.00    +0.000 OA
ATOM      5  O   UNL     1       5.635   3.796  19.485  0.00  0.00    +0.000 OA
BRANCH   3   6
ATOM      6  C   UNL     1       6.021   4.764  17.124  0.00  0.00    +0.000 A 
ATOM      7  C   UNL     1       6.889   5.539  16.352  0.00  0.00    +0.000 A 
ATOM      8  C   UNL     1       7.096   5.201  15.015  0.00  0.00    +0.000 A 
ATOM      9  C   UNL     1       6.461   4.085  14.458  0.00  0.00    +0.000 A 
ATOM     10  C   UNL     1       5.545   3.360  15.221  0.00  0.00    +0.000 A 
ATOM     11  C   UNL     1       5.345   3.679  16.565  0.00  0.00    +0.000 A 
BRANCH   9  12
ATOM     12  O   UNL     1       6.783   3.829  13.160  0.00  0.00    +0.000 OA
BRANCH  12  13
ATOM     13  C   UNL     1       5.751   3.449  12.256  0.00  0.00    +0.000 C 
ATOM     14  F   UNL     1       4.509   3.817  12.635  0.00  0.00    +0.000 F 
ATOM     15  F   UNL     1       6.010   3.980  11.043  0.00  0.00    +0.000 F 
ATOM     16  F   UNL     1       5.761   2.102  12.137  0.00  0.00    +0.000 F 
ENDBRANCH  12  13
ENDBRANCH   9  12
ENDBRANCH   3   6
ENDBRANCH   1   3
BRANCH   1  17
ATOM     17  C   UNL     1       3.206   5.537  18.136  0.00  0.00    +0.000 C 
BRANCH  17  18
ATOM     18  C   UNL     1       2.386   4.438  18.814  0.00  0.00    +0.000 A 
ATOM     19  C   UNL     1       1.730   3.434  18.077  0.00  0.00    +0.000 A 
ATOM     20  C   UNL     1       0.848   2.547  18.689  0.00  0.00    +0.000 A 
ATOM     21  C   UNL     1       0.621   2.627  20.056  0.00  0.00    +0.000 A 
ATOM     22  C   UNL     1       1.298   3.580  20.817  0.00  0.00    +0.000 A 
ATOM     23  C   UNL     1       2.180   4.475  20.203  0.00  0.00    +0.000 A 
ENDBRANCH  17  18
BRANCH  17  24
ATOM     24  C   UNL     1       2.356   6.743  17.714  0.00  0.00    +0.000 C 
BRANCH  24  26
ATOM     25  O   UNL     1       2.240   7.776  19.895  0.00  0.00    +0.000 OA
ATOM     26  C   UNL     1       2.353   7.886  18.685  0.00  0.00    +0.000 C 
BRANCH  26  27
ATOM     27  O   UNL     1       2.470   9.081  18.058  0.00  0.00    +0.000 OA
ATOM     28  H   UNL     1       3.310   9.211  17.573  0.00  0.00    +0.000 HD
ENDBRANCH  26  27
ENDBRANCH  24  26
ENDBRANCH  17  24
ENDBRANCH   1  17
TORSDOF 9
ENDMDL
