MODEL 1
REMARK VINA RESULT:      -7.2      0.000      0.000
REMARK  Name = 
REMARK  9 active torsions:
REMARK  status: ('A' for Active; 'I' for Inactive)
REMARK    1  A    between atoms: C_1  and  O_2
REMARK    2  A    between atoms: O_2  and  C_3
REMARK    3  A    between atoms: C_3  and  C_5
REMARK    4  A    between atoms: C_5  and  N_6
REMARK    5  A    between atoms: N_9  and  C_10
REMARK    6  A    between atoms: N_18  and  C_19
REMARK    7  A    between atoms: C_19  and  C_20
REMARK    8  A    between atoms: C_20  and  O_22
REMARK    9  A    between atoms: O_22  and  C_23
REMARK                            x       y       z     vdW  Elec       q    Type
REMARK                         _______ _______ _______ _____ _____    ______ ____
ROOT
ATOM      1  N   UNL     1       5.376   4.915  16.692  0.00  0.00    +0.000 N 
ATOM      2  C   UNL     1       4.250   4.215  17.175  0.00  0.00    +0.000 A 
ATOM      3  O   UNL     1       3.473   3.605  16.449  0.00  0.00    +0.000 OA
ATOM      4  N   UNL     1       4.161   4.464  18.544  0.00  0.00    +0.000 N 
ATOM      5  C   UNL     1       5.189   5.328  18.909  0.00  0.00    +0.000 A 
ATOM      6  O   UNL     1       5.570   5.649  20.027  0.00  0.00    +0.000 OA
ATOM      7  N   UNL     1       5.867   5.703  17.734  0.00  0.00    +0.000 N 
ENDROOT
BRANCH   4   8
ATOM      8  C   UNL     1       3.187   3.939  19.434  0.00  0.00    +0.000 A 
ATOM      9  C   UNL     1       1.875   4.432  19.475  0.00  0.00    +0.000 A 
ATOM     10  C   UNL     1       0.924   3.891  20.352  0.00  0.00    +0.000 A 
ATOM     11  C   UNL     1       1.272   2.858  21.217  0.00  0.00    +0.000 A 
ATOM     12  C   UNL     1       2.570   2.362  21.202  0.00  0.00    +0.000 A 
ATOM     13  C   UNL     1       3.512   2.895  20.318  0.00  0.00    +0.000 A 
ENDBRANCH   4   8
BRANCH   1  14
ATOM     14  C   UNL     1       5.422   5.435  15.335  0.00  0.00    +0.000 C 
BRANCH  14  15
ATOM     15  C   UNL     1       6.555   4.832  14.519  0.00  0.00    +0.000 C 
ATOM     16  O   UNL     1       7.652   5.366  14.397  0.00  0.00    +0.000 OA
BRANCH  15  18
ATOM     17  C   UNL     1       6.324   3.546  12.566  0.00  0.00    +0.000 C 
ATOM     18  O   UNL     1       6.218   3.625  13.986  0.00  0.00    +0.000 OA
ENDBRANCH  15  18
ENDBRANCH  14  15
ENDBRANCH   1  14
BRANCH   7  19
ATOM     19  C   UNL     1       7.283   6.024  17.793  0.00  0.00    +0.000 C 
BRANCH  19  20
ATOM     20  C   UNL     1       7.691   7.494  17.697  0.00  0.00    +0.000 C 
ATOM     21  O   UNL     1       7.255   8.236  16.823  0.00  0.00    +0.000 OA
BRANCH  20  22
ATOM     22  O   UNL     1       8.557   7.872  18.674  0.00  0.00    +0.000 OA
ATOM     23  C   UNL     1       8.808   9.277  18.774  0.00  0.00    +0.000 C 
ENDBRANCH  20  22
ENDBRANCH  19  20
ENDBRANCH   7  19
TORSDOF 7
ENDMDL
MODEL 2
REMARK VINA RESULT:      -7.2      0.180      4.245
REMARK  Name = 
REMARK  9 active torsions:
REMARK  status: ('A' for Active; 'I' for Inactive)
REMARK    1  A    between atoms: C_1  and  O_2
REMARK    2  A    between atoms: O_2  and  C_3
REMARK    3  A    between atoms: C_3  and  C_5
REMARK    4  A    between atoms: C_5  and  N_6
REMARK    5  A    between atoms: N_9  and  C_10
REMARK    6  A    between atoms: N_18  and  C_19
REMARK    7  A    between atoms: C_19  and  C_20
REMARK    8  A    between atoms: C_20  and  O_22
REMARK    9  A    between atoms: O_22  and  C_23
REMARK                            x       y       z     vdW  Elec       q    Type
REMARK                         _______ _______ _______ _____ _____    ______ ____
ROOT
ATOM      1  N   UNL     1       5.925   5.578  17.687  0.00  0.00    +0.000 N 
ATOM      2  C   UNL     1       5.246   5.271  18.886  0.00  0.00    +0.000 A 
ATOM      3  O   UNL     1       5.631   5.638  19.991  0.00  0.00    +0.000 OA
ATOM      4  N   UNL     1       4.194   4.416  18.562  0.00  0.00    +0.000 N 
ATOM      5  C   UNL     1       4.229   4.164  17.195  0.00  0.00    +0.000 A 
ATOM      6  O   UNL     1       3.393   3.617  16.487  0.00  0.00    +0.000 OA
ATOM      7  N   UNL     1       5.378   4.787  16.675  0.00  0.00    +0.000 N 
ENDROOT
BRANCH   4   8
ATOM      8  C   UNL     1       3.239   3.876  19.464  0.00  0.00    +0.000 A 
ATOM      9  C   UNL     1       3.564   2.852  20.365  0.00  0.00    +0.000 A 
ATOM     10  C   UNL     1       2.611   2.342  21.257  0.00  0.00    +0.000 A 
ATOM     11  C   UNL     1       1.309   2.833  21.252  0.00  0.00    +0.000 A 
ATOM     12  C   UNL     1       0.961   3.838  20.359  0.00  0.00    +0.000 A 
ATOM     13  C   UNL     1       1.917   4.354  19.480  0.00  0.00    +0.000 A 
ENDBRANCH   4   8
BRANCH   1  14
ATOM     14  C   UNL     1       7.353   5.853  17.672  0.00  0.00    +0.000 C 
BRANCH  14  15
ATOM     15  C   UNL     1       7.658   7.342  17.652  0.00  0.00    +0.000 C 
ATOM     16  O   UNL     1       7.174   8.115  16.833  0.00  0.00    +0.000 OA
BRANCH  15  18
ATOM     17  C   UNL     1       8.755   9.108  18.746  0.00  0.00    +0.000 C 
ATOM     18  O   UNL     1       8.488   7.710  18.667  0.00  0.00    +0.000 OA
ENDBRANCH  15  18
ENDBRANCH  14  15
ENDBRANCH   1  14
BRANCH   7  19
ATOM     19  C   UNL     1       5.378   5.268  15.304  0.00  0.00    +0.000 C 
BRANCH  19  20
ATOM     20  C   UNL     1       6.449   4.733  14.355  0.00  0.00    +0.000 C 
ATOM     21  O   UNL     1       7.581   5.203  14.318  0.00  0.00    +0.000 OA
BRANCH  20  22
ATOM     22  O   UNL     1       6.015   3.697  13.590  0.00  0.00    +0.000 OA
ATOM     23  C   UNL     1       6.636   3.568  12.307  0.00  0.00    +0.000 C 
ENDBRANCH  20  22
ENDBRANCH  19  20
ENDBRANCH   7  19
TORSDOF 7
ENDMDL
MODEL 3
REMARK VINA RESULT:      -7.1      1.227      1.344
REMARK  Name = 
REMARK  9 active torsions:
REMARK  status: ('A' for Active; 'I' for Inactive)
REMARK    1  A    between atoms: C_1  and  O_2
REMARK    2  A    between atoms: O_2  and  C_3
REMARK    3  A    between atoms: C_3  and  C_5
REMARK    4  A    between atoms: C_5  and  N_6
REMARK    5  A    between atoms: N_9  and  C_10
REMARK    6  A    between atoms: N_18  and  C_19
REMARK    7  A    between atoms: C_19  and  C_20
REMARK    8  A    between atoms: C_20  and  O_22
REMARK    9  A    between atoms: O_22  and  C_23
REMARK                            x       y       z     vdW  Elec       q    Type
REMARK                         _______ _______ _______ _____ _____    ______ ____
ROOT
ATOM      1  N   UNL     1       4.993   4.618  16.530  0.00  0.00    +0.000 N 
ATOM      2  C   UNL     1       4.326   3.678  17.345  0.00  0.00    +0.000 A 
ATOM      3  O   UNL     1       4.342   2.471  17.133  0.00  0.00    +0.000 OA
ATOM      4  N   UNL     1       3.598   4.394  18.295  0.00  0.00    +0.000 N 
ATOM      5  C   UNL     1       3.777   5.753  18.064  0.00  0.00    +0.000 A 
ATOM      6  O   UNL     1       3.463   6.706  18.766  0.00  0.00    +0.000 OA
ATOM      7  N   UNL     1       4.544   5.889  16.892  0.00  0.00    +0.000 N 
ENDROOT
BRANCH   4   8
ATOM      8  C   UNL     1       2.797   3.844  19.331  0.00  0.00    +0.000 A 
ATOM      9  C   UNL     1       1.395   3.866  19.278  0.00  0.00    +0.000 A 
ATOM     10  C   UNL     1       0.622   3.307  20.304  0.00  0.00    +0.000 A 
ATOM     11  C   UNL     1       1.235   2.730  21.413  0.00  0.00    +0.000 A 
ATOM     12  C   UNL     1       2.621   2.708  21.493  0.00  0.00    +0.000 A 
ATOM     13  C   UNL     1       3.390   3.256  20.462  0.00  0.00    +0.000 A 
ENDBRANCH   4   8
BRANCH   1  14
ATOM     14  C   UNL     1       5.276   4.343  15.131  0.00  0.00    +0.000 C 
BRANCH  14  15
ATOM     15  C   UNL     1       6.757   4.453  14.805  0.00  0.00    +0.000 C 
ATOM     16  O   UNL     1       7.636   4.428  15.660  0.00  0.00    +0.000 OA
BRANCH  15  18
ATOM     17  C   UNL     1       6.299   3.562  12.679  0.00  0.00    +0.000 C 
ATOM     18  O   UNL     1       6.984   4.536  13.465  0.00  0.00    +0.000 OA
ENDBRANCH  15  18
ENDBRANCH  14  15
ENDBRANCH   1  14
BRANCH   7  19
ATOM     19  C   UNL     1       5.422   7.037  16.735  0.00  0.00    +0.000 C 
BRANCH  19  20
ATOM     20  C   UNL     1       6.752   7.031  17.487  0.00  0.00    +0.000 C 
ATOM     21  O   UNL     1       6.965   6.276  18.429  0.00  0.00    +0.000 OA
BRANCH  20  22
ATOM     22  O   UNL     1       7.648   7.925  16.992  0.00  0.00    +0.000 OA
ATOM     23  C   UNL     1       8.170   8.868  17.933  0.00  0.00    +0.000 C 
ENDBRANCH  20  22
ENDBRANCH  19  20
ENDBRANCH   7  19
TORSDOF 7
ENDMDL
MODEL 4
REMARK VINA RESULT:      -7.0      1.177      1.588
REMARK  Name = 
REMARK  9 active torsions:
REMARK  status: ('A' for Active; 'I' for Inactive)
REMARK    1  A    between atoms: C_1  and  O_2
REMARK    2  A    between atoms: O_2  and  C_3
REMARK    3  A    between atoms: C_3  and  C_5
REMARK    4  A    between atoms: C_5  and  N_6
REMARK    5  A    between atoms: N_9  and  C_10
REMARK    6  A    between atoms: N_18  and  C_19
REMARK    7  A    between atoms: C_19  and  C_20
REMARK    8  A    between atoms: C_20  and  O_22
REMARK    9  A    between atoms: O_22  and  C_23
REMARK                            x       y       z     vdW  Elec       q    Type
REMARK                         _______ _______ _______ _____ _____    ______ ____
ROOT
ATOM      1  N   UNL     1       5.026   4.810  16.601  0.00  0.00    +0.000 N 
ATOM      2  C   UNL     1       4.352   3.818  17.344  0.00  0.00    +0.000 A 
ATOM      3  O   UNL     1       4.330   2.634  17.025  0.00  0.00    +0.000 OA
ATOM      4  N   UNL     1       3.664   4.463  18.371  0.00  0.00    +0.000 N 
ATOM      5  C   UNL     1       3.874   5.833  18.258  0.00  0.00    +0.000 A 
ATOM      6  O   UNL     1       3.601   6.726  19.049  0.00  0.00    +0.000 OA
ATOM      7  N   UNL     1       4.619   6.054  17.085  0.00  0.00    +0.000 N 
ENDROOT
BRANCH   4   8
ATOM      8  C   UNL     1       2.870   3.842  19.372  0.00  0.00    +0.000 A 
ATOM      9  C   UNL     1       3.441   3.151  20.451  0.00  0.00    +0.000 A 
ATOM     10  C   UNL     1       2.640   2.556  21.436  0.00  0.00    +0.000 A 
ATOM     11  C   UNL     1       1.252   2.626  21.351  0.00  0.00    +0.000 A 
ATOM     12  C   UNL     1       0.665   3.295  20.285  0.00  0.00    +0.000 A 
ATOM     13  C   UNL     1       1.466   3.898  19.311  0.00  0.00    +0.000 A 
ENDBRANCH   4   8
BRANCH   1  14
ATOM     14  C   UNL     1       5.272   4.655  15.176  0.00  0.00    +0.000 C 
BRANCH  14  15
ATOM     15  C   UNL     1       6.753   4.534  14.851  0.00  0.00    +0.000 C 
ATOM     16  O   UNL     1       7.621   4.428  15.710  0.00  0.00    +0.000 OA
BRANCH  15  18
ATOM     17  C   UNL     1       6.207   3.568  12.780  0.00  0.00    +0.000 C 
ATOM     18  O   UNL     1       6.984   4.515  13.510  0.00  0.00    +0.000 OA
ENDBRANCH  15  18
ENDBRANCH  14  15
ENDBRANCH   1  14
BRANCH   7  19
ATOM     19  C   UNL     1       5.524   7.189  17.011  0.00  0.00    +0.000 C 
BRANCH  19  20
ATOM     20  C   UNL     1       6.908   7.046  17.642  0.00  0.00    +0.000 C 
ATOM     21  O   UNL     1       7.141   6.227  18.525  0.00  0.00    +0.000 OA
BRANCH  20  22
ATOM     22  O   UNL     1       7.825   7.900  17.116  0.00  0.00    +0.000 OA
ATOM     23  C   UNL     1       8.134   9.050  17.909  0.00  0.00    +0.000 C 
ENDBRANCH  20  22
ENDBRANCH  19  20
ENDBRANCH   7  19
TORSDOF 7
ENDMDL
MODEL 5
REMARK VINA RESULT:      -7.0      2.868      5.022
REMARK  Name = 
REMARK  9 active torsions:
REMARK  status: ('A' for Active; 'I' for Inactive)
REMARK    1  A    between atoms: C_1  and  O_2
REMARK    2  A    between atoms: O_2  and  C_3
REMARK    3  A    between atoms: C_3  and  C_5
REMARK    4  A    between atoms: C_5  and  N_6
REMARK    5  A    between atoms: N_9  and  C_10
REMARK    6  A    between atoms: N_18  and  C_19
REMARK    7  A    between atoms: C_19  and  C_20
REMARK    8  A    between atoms: C_20  and  O_22
REMARK    9  A    between atoms: O_22  and  C_23
REMARK                            x       y       z     vdW  Elec       q    Type
REMARK                         _______ _______ _______ _____ _____    ______ ____
ROOT
ATOM      1  N   UNL     1       4.233   4.366  19.468  0.00  0.00    +0.000 N 
ATOM      2  C   UNL     1       3.172   5.229  19.816  0.00  0.00    +0.000 A 
ATOM      3  O   UNL     1       2.291   4.926  20.614  0.00  0.00    +0.000 OA
ATOM      4  N   UNL     1       3.276   6.363  19.011  0.00  0.00    +0.000 N 
ATOM      5  C   UNL     1       4.359   6.204  18.154  0.00  0.00    +0.000 A 
ATOM      6  O   UNL     1       4.895   7.027  17.423  0.00  0.00    +0.000 OA
ATOM      7  N   UNL     1       4.876   4.911  18.355  0.00  0.00    +0.000 N 
ENDROOT
BRANCH   4   8
ATOM      8  C   UNL     1       2.423   7.498  19.043  0.00  0.00    +0.000 A 
ATOM      9  C   UNL     1       2.119   8.231  17.886  0.00  0.00    +0.000 A 
ATOM     10  C   UNL     1       1.265   9.342  17.936  0.00  0.00    +0.000 A 
ATOM     11  C   UNL     1       0.714   9.752  19.146  0.00  0.00    +0.000 A 
ATOM     12  C   UNL     1       1.011   9.048  20.306  0.00  0.00    +0.000 A 
ATOM     13  C   UNL     1       1.853   7.934  20.252  0.00  0.00    +0.000 A 
ENDBRANCH   4   8
BRANCH   1  14
ATOM     14  C   UNL     1       4.101   2.922  19.568  0.00  0.00    +0.000 C 
BRANCH  14  15
ATOM     15  C   UNL     1       3.059   2.365  18.612  0.00  0.00    +0.000 C 
ATOM     16  O   UNL     1       3.225   2.306  17.399  0.00  0.00    +0.000 OA
BRANCH  15  18
ATOM     17  C   UNL     1       0.714   2.396  18.760  0.00  0.00    +0.000 C 
ATOM     18  O   UNL     1       1.955   1.907  19.265  0.00  0.00    +0.000 OA
ENDBRANCH  15  18
ENDBRANCH  14  15
ENDBRANCH   1  14
BRANCH   7  19
ATOM     19  C   UNL     1       6.292   4.661  18.145  0.00  0.00    +0.000 C 
BRANCH  19  20
ATOM     20  C   UNL     1       6.762   4.339  16.728  0.00  0.00    +0.000 C 
ATOM     21  O   UNL     1       7.929   4.482  16.379  0.00  0.00    +0.000 OA
BRANCH  20  22
ATOM     22  O   UNL     1       5.766   3.876  15.928  0.00  0.00    +0.000 OA
ATOM     23  C   UNL     1       5.570   4.587  14.702  0.00  0.00    +0.000 C 
ENDBRANCH  20  22
ENDBRANCH  19  20
ENDBRANCH   7  19
TORSDOF 7
ENDMDL
MODEL 6
REMARK VINA RESULT:      -7.0      2.876      5.095
REMARK  Name = 
REMARK  9 active torsions:
REMARK  status: ('A' for Active; 'I' for Inactive)
REMARK    1  A    between atoms: C_1  and  O_2
REMARK    2  A    between atoms: O_2  and  C_3
REMARK    3  A    between atoms: C_3  and  C_5
REMARK    4  A    between atoms: C_5  and  N_6
REMARK    5  A    between atoms: N_9  and  C_10
REMARK    6  A    between atoms: N_18  and  C_19
REMARK    7  A    between atoms: C_19  and  C_20
REMARK    8  A    between atoms: C_20  and  O_22
REMARK    9  A    between atoms: O_22  and  C_23
REMARK                            x       y       z     vdW  Elec       q    Type
REMARK                         _______ _______ _______ _____ _____    ______ ____
ROOT
ATOM      1  N   UNL     1       4.969   4.961  18.382  0.00  0.00    +0.000 N 
ATOM      2  C   UNL     1       4.402   6.228  18.128  0.00  0.00    +0.000 A 
ATOM      3  O   UNL     1       4.894   7.045  17.357  0.00  0.00    +0.000 OA
ATOM      4  N   UNL     1       3.312   6.376  18.985  0.00  0.00    +0.000 N 
ATOM      5  C   UNL     1       3.214   5.240  19.782  0.00  0.00    +0.000 A 
ATOM      6  O   UNL     1       2.307   4.894  20.529  0.00  0.00    +0.000 OA
ATOM      7  N   UNL     1       4.318   4.418  19.491  0.00  0.00    +0.000 N 
ENDROOT
BRANCH   4   8
ATOM      8  C   UNL     1       2.439   7.494  19.051  0.00  0.00    +0.000 A 
ATOM      9  C   UNL     1       1.851   7.907  20.256  0.00  0.00    +0.000 A 
ATOM     10  C   UNL     1       1.002   9.022  20.303  0.00  0.00    +0.000 A 
ATOM     11  C   UNL     1       0.709   9.733  19.143  0.00  0.00    +0.000 A 
ATOM     12  C   UNL     1       1.270   9.334  17.936  0.00  0.00    +0.000 A 
ATOM     13  C   UNL     1       2.126   8.230  17.894  0.00  0.00    +0.000 A 
ENDBRANCH   4   8
BRANCH   1  14
ATOM     14  C   UNL     1       6.393   4.719  18.213  0.00  0.00    +0.000 C 
BRANCH  14  15
ATOM     15  C   UNL     1       6.757   4.363  16.780  0.00  0.00    +0.000 C 
ATOM     16  O   UNL     1       7.887   4.495  16.323  0.00  0.00    +0.000 OA
BRANCH  15  18
ATOM     17  C   UNL     1       5.474   4.431  14.813  0.00  0.00    +0.000 C 
ATOM     18  O   UNL     1       5.700   3.848  16.094  0.00  0.00    +0.000 OA
ENDBRANCH  15  18
ENDBRANCH  14  15
ENDBRANCH   1  14
BRANCH   7  19
ATOM     19  C   UNL     1       4.195   2.976  19.622  0.00  0.00    +0.000 C 
BRANCH  19  20
ATOM     20  C   UNL     1       3.208   2.254  18.707  0.00  0.00    +0.000 C 
ATOM     21  O   UNL     1       3.451   2.041  17.523  0.00  0.00    +0.000 OA
BRANCH  20  22
ATOM     22  O   UNL     1       2.069   1.875  19.344  0.00  0.00    +0.000 OA
ATOM     23  C   UNL     1       0.846   2.341  18.764  0.00  0.00    +0.000 C 
ENDBRANCH  20  22
ENDBRANCH  19  20
ENDBRANCH   7  19
TORSDOF 7
ENDMDL
MODEL 7
REMARK VINA RESULT:      -7.0      2.900      5.508
REMARK  Name = 
REMARK  9 active torsions:
REMARK  status: ('A' for Active; 'I' for Inactive)
REMARK    1  A    between atoms: C_1  and  O_2
REMARK    2  A    between atoms: O_2  and  C_3
REMARK    3  A    between atoms: C_3  and  C_5
REMARK    4  A    between atoms: C_5  and  N_6
REMARK    5  A    between atoms: N_9  and  C_10
REMARK    6  A    between atoms: N_18  and  C_19
REMARK    7  A    between atoms: C_19  and  C_20
REMARK    8  A    between atoms: C_20  and  O_22
REMARK    9  A    between atoms: O_22  and  C_23
REMARK                            x       y       z     vdW  Elec       q    Type
REMARK                         _______ _______ _______ _____ _____    ______ ____
ROOT
ATOM      1  N   UNL     1       4.522   4.839  18.228  0.00  0.00    +0.000 N 
ATOM      2  C   UNL     1       3.990   6.119  17.963  0.00  0.00    +0.000 A 
ATOM      3  O   UNL     1       4.397   6.845  17.062  0.00  0.00    +0.000 OA
ATOM      4  N   UNL     1       3.058   6.397  18.962  0.00  0.00    +0.000 N 
ATOM      5  C   UNL     1       3.027   5.330  19.853  0.00  0.00    +0.000 A 
ATOM      6  O   UNL     1       2.232   5.098  20.756  0.00  0.00    +0.000 OA
ATOM      7  N   UNL     1       4.026   4.420  19.463  0.00  0.00    +0.000 N 
ENDROOT
BRANCH   4   8
ATOM      8  C   UNL     1       2.266   7.572  19.072  0.00  0.00    +0.000 A 
ATOM      9  C   UNL     1       1.750   8.008  20.300  0.00  0.00    +0.000 A 
ATOM     10  C   UNL     1       0.982   9.177  20.390  0.00  0.00    +0.000 A 
ATOM     11  C   UNL     1       0.700   9.922  19.249  0.00  0.00    +0.000 A 
ATOM     12  C   UNL     1       1.190   9.502  18.019  0.00  0.00    +0.000 A 
ATOM     13  C   UNL     1       1.966   8.343  17.935  0.00  0.00    +0.000 A 
ENDBRANCH   4   8
BRANCH   1  14
ATOM     14  C   UNL     1       5.886   4.494  17.863  0.00  0.00    +0.000 C 
BRANCH  14  15
ATOM     15  C   UNL     1       6.917   5.332  18.604  0.00  0.00    +0.000 C 
ATOM     16  O   UNL     1       6.974   5.396  19.827  0.00  0.00    +0.000 OA
BRANCH  15  18
ATOM     17  C   UNL     1       7.656   7.375  17.711  0.00  0.00    +0.000 C 
ATOM     18  O   UNL     1       7.779   5.955  17.755  0.00  0.00    +0.000 OA
ENDBRANCH  15  18
ENDBRANCH  14  15
ENDBRANCH   1  14
BRANCH   7  19
ATOM     19  C   UNL     1       3.850   3.001  19.727  0.00  0.00    +0.000 C 
BRANCH  19  20
ATOM     20  C   UNL     1       3.262   2.133  18.616  0.00  0.00    +0.000 C 
ATOM     21  O   UNL     1       3.786   1.081  18.264  0.00  0.00    +0.000 OA
BRANCH  20  22
ATOM     22  O   UNL     1       2.117   2.642  18.089  0.00  0.00    +0.000 OA
ATOM     23  C   UNL     1       0.922   2.387  18.834  0.00  0.00    +0.000 C 
ENDBRANCH  20  22
ENDBRANCH  19  20
ENDBRANCH   7  19
TORSDOF 7
ENDMDL
MODEL 8
REMARK VINA RESULT:      -6.9      1.305      3.879
REMARK  Name = 
REMARK  9 active torsions:
REMARK  status: ('A' for Active; 'I' for Inactive)
REMARK    1  A    between atoms: C_1  and  O_2
REMARK    2  A    between atoms: O_2  and  C_3
REMARK    3  A    between atoms: C_3  and  C_5
REMARK    4  A    between atoms: C_5  and  N_6
REMARK    5  A    between atoms: N_9  and  C_10
REMARK    6  A    between atoms: N_18  and  C_19
REMARK    7  A    between atoms: C_19  and  C_20
REMARK    8  A    between atoms: C_20  and  O_22
REMARK    9  A    between atoms: O_22  and  C_23
REMARK                            x       y       z     vdW  Elec       q    Type
REMARK                         _______ _______ _______ _____ _____    ______ ____
ROOT
ATOM      1  N   UNL     1       4.482   6.107  16.937  0.00  0.00    +0.000 N 
ATOM      2  C   UNL     1       3.680   5.933  18.085  0.00  0.00    +0.000 A 
ATOM      3  O   UNL     1       3.291   6.863  18.783  0.00  0.00    +0.000 OA
ATOM      4  N   UNL     1       3.552   4.561  18.299  0.00  0.00    +0.000 N 
ATOM      5  C   UNL     1       4.282   3.887  17.326  0.00  0.00    +0.000 A 
ATOM      6  O   UNL     1       4.289   2.694  17.052  0.00  0.00    +0.000 OA
ATOM      7  N   UNL     1       4.959   4.851  16.557  0.00  0.00    +0.000 N 
ENDROOT
BRANCH   4   8
ATOM      8  C   UNL     1       2.808   3.937  19.336  0.00  0.00    +0.000 A 
ATOM      9  C   UNL     1       3.432   3.259  20.394  0.00  0.00    +0.000 A 
ATOM     10  C   UNL     1       2.681   2.660  21.414  0.00  0.00    +0.000 A 
ATOM     11  C   UNL     1       1.290   2.712  21.387  0.00  0.00    +0.000 A 
ATOM     12  C   UNL     1       0.650   3.366  20.342  0.00  0.00    +0.000 A 
ATOM     13  C   UNL     1       1.402   3.974  19.333  0.00  0.00    +0.000 A 
ENDBRANCH   4   8
BRANCH   1  14
ATOM     14  C   UNL     1       5.348   7.265  16.784  0.00  0.00    +0.000 C 
BRANCH  14  15
ATOM     15  C   UNL     1       6.744   7.023  17.336  0.00  0.00    +0.000 C 
ATOM     16  O   UNL     1       7.766   7.285  16.711  0.00  0.00    +0.000 OA
BRANCH  15  18
ATOM     17  C   UNL     1       7.750   5.593  18.906  0.00  0.00    +0.000 C 
ATOM     18  O   UNL     1       6.717   6.530  18.604  0.00  0.00    +0.000 OA
ENDBRANCH  15  18
ENDBRANCH  14  15
ENDBRANCH   1  14
BRANCH   7  19
ATOM     19  C   UNL     1       5.248   4.582  15.158  0.00  0.00    +0.000 C 
BRANCH  19  20
ATOM     20  C   UNL     1       6.712   4.452  14.741  0.00  0.00    +0.000 C 
ATOM     21  O   UNL     1       7.616   4.326  15.560  0.00  0.00    +0.000 OA
BRANCH  20  22
ATOM     22  O   UNL     1       6.887   4.478  13.393  0.00  0.00    +0.000 OA
ATOM     23  C   UNL     1       6.172   3.485  12.652  0.00  0.00    +0.000 C 
ENDBRANCH  20  22
ENDBRANCH  19  20
ENDBRANCH   7  19
TORSDOF 7
ENDMDL
MODEL 9
REMARK VINA RESULT:      -6.9      1.249      1.446
REMARK  Name = 
REMARK  9 active torsions:
REMARK  status: ('A' for Active; 'I' for Inactive)
REMARK    1  A    between atoms: C_1  and  O_2
REMARK    2  A    between atoms: O_2  and  C_3
REMARK    3  A    between atoms: C_3  and  C_5
REMARK    4  A    between atoms: C_5  and  N_6
REMARK    5  A    between atoms: N_9  and  C_10
REMARK    6  A    between atoms: N_18  and  C_19
REMARK    7  A    between atoms: C_19  and  C_20
REMARK    8  A    between atoms: C_20  and  O_22
REMARK    9  A    between atoms: O_22  and  C_23
REMARK                            x       y       z     vdW  Elec       q    Type
REMARK                         _______ _______ _______ _____ _____    ______ ____
ROOT
ATOM      1  N   UNL     1       4.999   4.881  16.558  0.00  0.00    +0.000 N 
ATOM      2  C   UNL     1       4.328   3.895  17.313  0.00  0.00    +0.000 A 
ATOM      3  O   UNL     1       4.316   2.707  17.009  0.00  0.00    +0.000 OA
ATOM      4  N   UNL     1       3.633   4.549  18.329  0.00  0.00    +0.000 N 
ATOM      5  C   UNL     1       3.835   5.919  18.198  0.00  0.00    +0.000 A 
ATOM      6  O   UNL     1       3.553   6.821  18.976  0.00  0.00    +0.000 OA
ATOM      7  N   UNL     1       4.582   6.129  17.024  0.00  0.00    +0.000 N 
ENDROOT
BRANCH   4   8
ATOM      8  C   UNL     1       2.840   3.937  19.336  0.00  0.00    +0.000 A 
ATOM      9  C   UNL     1       1.439   4.003  19.321  0.00  0.00    +0.000 A 
ATOM     10  C   UNL     1       0.674   3.381  20.318  0.00  0.00    +0.000 A 
ATOM     11  C   UNL     1       1.296   2.697  21.358  0.00  0.00    +0.000 A 
ATOM     12  C   UNL     1       2.683   2.629  21.399  0.00  0.00    +0.000 A 
ATOM     13  C   UNL     1       3.443   3.239  20.398  0.00  0.00    +0.000 A 
ENDBRANCH   4   8
BRANCH   1  14
ATOM     14  C   UNL     1       5.250   4.708  15.136  0.00  0.00    +0.000 C 
BRANCH  14  15
ATOM     15  C   UNL     1       6.720   4.465  14.831  0.00  0.00    +0.000 C 
ATOM     16  O   UNL     1       7.553   4.220  15.697  0.00  0.00    +0.000 OA
BRANCH  15  18
ATOM     17  C   UNL     1       6.243   3.576  12.709  0.00  0.00    +0.000 C 
ATOM     18  O   UNL     1       6.981   4.509  13.496  0.00  0.00    +0.000 OA
ENDBRANCH  15  18
ENDBRANCH  14  15
ENDBRANCH   1  14
BRANCH   7  19
ATOM     19  C   UNL     1       5.480   7.269  16.937  0.00  0.00    +0.000 C 
BRANCH  19  20
ATOM     20  C   UNL     1       6.931   7.074  17.373  0.00  0.00    +0.000 C 
ATOM     21  O   UNL     1       7.872   7.268  16.611  0.00  0.00    +0.000 OA
BRANCH  20  22
ATOM     22  O   UNL     1       7.051   6.685  18.670  0.00  0.00    +0.000 OA
ATOM     23  C   UNL     1       7.713   5.435  18.886  0.00  0.00    +0.000 C 
ENDBRANCH  20  22
ENDBRANCH  19  20
ENDBRANCH   7  19
TORSDOF 7
ENDMDL
