MODEL 1
REMARK VINA RESULT:      -8.5      0.000      0.000
REMARK  Name = 
REMARK  5 active torsions:
REMARK  status: ('A' for Active; 'I' for Inactive)
REMARK    1  A    between atoms: C_1  and  C_2
REMARK    2  A    between atoms: C_2  and  C_3
REMARK    3  A    between atoms: C_2  and  N_7
REMARK    4  A    between atoms: N_5  and  N_6
REMARK    5  A    between atoms: N_12  and  N_13
REMARK                            x       y       z     vdW  Elec       q    Type
REMARK                         _______ _______ _______ _____ _____    ______ ____
ROOT
ATOM      1  N   UNL     1       4.117   4.842  18.165  0.00  0.00    +0.000 N 
ATOM      2  C   UNL     1       3.789   6.170  17.778  0.00  0.00    +0.000 A 
ATOM      3  O   UNL     1       4.244   6.776  16.816  0.00  0.00    +0.000 OA
ATOM      4  N   UNL     1       2.891   6.821  18.626  0.00  0.00    +0.000 N 
ATOM      5  C   UNL     1       2.353   8.096  18.545  0.00  0.00    +0.000 A 
ATOM      6  N   UNL     1       2.586   8.938  17.506  0.00  0.00    +0.000 N 
ATOM      7  N   UNL     1       1.585   8.302  19.601  0.00  0.00    +0.000 NA
ATOM      8  N   UNL     1       1.597   7.170  20.376  0.00  0.00    +0.000 NA
ATOM      9  C   UNL     1       2.363   6.290  19.776  0.00  0.00    +0.000 A 
ATOM     10  C   UNL     1       2.665   4.936  20.148  0.00  0.00    +0.000 A 
ATOM     11  C   UNL     1       2.144   4.387  21.324  0.00  0.00    +0.000 A 
ATOM     12  C   UNL     1       2.405   3.061  21.643  0.00  0.00    +0.000 A 
ATOM     13  C   UNL     1       3.159   2.281  20.771  0.00  0.00    +0.000 A 
ATOM     14  C   UNL     1       3.701   2.840  19.608  0.00  0.00    +0.000 A 
ATOM     15  C   UNL     1       3.497   4.188  19.296  0.00  0.00    +0.000 A 
ATOM     16  H   UNL     1       3.374   8.787  16.866  0.00  0.00    +0.000 HD
ENDROOT
BRANCH   6  17
ATOM     17  N   UNL     1       2.124  10.252  17.721  0.00  0.00    +0.000 NA
ATOM     18  H   UNL     1       1.236  10.407  17.221  0.00  0.00    +0.000 HD
ATOM     19  H   UNL     1       2.767  10.917  17.276  0.00  0.00    +0.000 HD
ENDBRANCH   6  17
BRANCH   1  21
ATOM     20  C   UNL     1       5.292   4.259  16.029  0.00  0.00    +0.000 C 
ATOM     21  C   UNL     1       5.363   4.272  17.567  0.00  0.00    +0.000 C 
BRANCH  21  22
ATOM     22  C   UNL     1       6.747   4.796  18.010  0.00  0.00    +0.000 C 
ATOM     23  O   UNL     1       7.723   4.823  17.254  0.00  0.00    +0.000 OA
ATOM     24  N   UNL     1       6.877   5.109  19.353  0.00  0.00    +0.000 N 
ATOM     25  H   UNL     1       6.062   5.175  19.958  0.00  0.00    +0.000 HD
BRANCH  24  26
ATOM     26  N   UNL     1       8.130   5.586  19.816  0.00  0.00    +0.000 NA
ATOM     27  H   UNL     1       8.515   4.867  20.447  0.00  0.00    +0.000 HD
ATOM     28  H   UNL     1       7.942   6.363  20.461  0.00  0.00    +0.000 HD
ENDBRANCH  24  26
ENDBRANCH  21  22
ENDBRANCH   1  21
TORSDOF 4
ENDMDL
MODEL 2
REMARK VINA RESULT:      -7.9      1.041      1.041
REMARK  Name = 
REMARK  5 active torsions:
REMARK  status: ('A' for Active; 'I' for Inactive)
REMARK    1  A    between atoms: C_1  and  C_2
REMARK    2  A    between atoms: C_2  and  C_3
REMARK    3  A    between atoms: C_2  and  N_7
REMARK    4  A    between atoms: N_5  and  N_6
REMARK    5  A    between atoms: N_12  and  N_13
REMARK                            x       y       z     vdW  Elec       q    Type
REMARK                         _______ _______ _______ _____ _____    ______ ____
ROOT
ATOM      1  N   UNL     1       3.990   5.086  18.147  0.00  0.00    +0.000 N 
ATOM      2  C   UNL     1       3.617   6.421  17.836  0.00  0.00    +0.000 A 
ATOM      3  O   UNL     1       4.024   7.084  16.890  0.00  0.00    +0.000 OA
ATOM      4  N   UNL     1       2.733   7.008  18.744  0.00  0.00    +0.000 N 
ATOM      5  C   UNL     1       2.161   8.271  18.743  0.00  0.00    +0.000 A 
ATOM      6  N   UNL     1       2.338   9.167  17.739  0.00  0.00    +0.000 N 
ATOM      7  N   UNL     1       1.425   8.407  19.832  0.00  0.00    +0.000 NA
ATOM      8  N   UNL     1       1.492   7.240  20.551  0.00  0.00    +0.000 NA
ATOM      9  C   UNL     1       2.258   6.409  19.884  0.00  0.00    +0.000 A 
ATOM     10  C   UNL     1       2.606   5.047  20.180  0.00  0.00    +0.000 A 
ATOM     11  C   UNL     1       2.140   4.430  21.345  0.00  0.00    +0.000 A 
ATOM     12  C   UNL     1       2.444   3.098  21.590  0.00  0.00    +0.000 A 
ATOM     13  C   UNL     1       3.186   2.381  20.658  0.00  0.00    +0.000 A 
ATOM     14  C   UNL     1       3.674   3.008  19.505  0.00  0.00    +0.000 A 
ATOM     15  C   UNL     1       3.426   4.363  19.266  0.00  0.00    +0.000 A 
ATOM     16  H   UNL     1       3.107   9.067  17.066  0.00  0.00    +0.000 HD
ENDROOT
BRANCH   6  17
ATOM     17  N   UNL     1       1.851  10.457  18.032  0.00  0.00    +0.000 NA
ATOM     18  H   UNL     1       2.631  11.129  18.098  0.00  0.00    +0.000 HD
ATOM     19  H   UNL     1       1.451  10.464  18.977  0.00  0.00    +0.000 HD
ENDBRANCH   6  17
BRANCH   1  21
ATOM     20  C   UNL     1       4.976   4.254  15.998  0.00  0.00    +0.000 C 
ATOM     21  C   UNL     1       5.229   4.578  17.482  0.00  0.00    +0.000 C 
BRANCH  21  22
ATOM     22  C   UNL     1       6.558   5.355  17.616  0.00  0.00    +0.000 C 
ATOM     23  O   UNL     1       7.363   5.146  18.529  0.00  0.00    +0.000 OA
ATOM     24  N   UNL     1       6.739   6.406  16.732  0.00  0.00    +0.000 N 
ATOM     25  H   UNL     1       6.127   6.528  15.928  0.00  0.00    +0.000 HD
BRANCH  24  26
ATOM     26  N   UNL     1       7.937   7.159  16.817  0.00  0.00    +0.000 NA
ATOM     27  H   UNL     1       8.434   6.847  17.664  0.00  0.00    +0.000 HD
ATOM     28  H   UNL     1       7.677   8.123  17.060  0.00  0.00    +0.000 HD
ENDBRANCH  24  26
ENDBRANCH  21  22
ENDBRANCH   1  21
TORSDOF 4
ENDMDL
MODEL 3
REMARK VINA RESULT:      -7.8      2.418      4.000
REMARK  Name = 
REMARK  5 active torsions:
REMARK  status: ('A' for Active; 'I' for Inactive)
REMARK    1  A    between atoms: C_1  and  C_2
REMARK    2  A    between atoms: C_2  and  C_3
REMARK    3  A    between atoms: C_2  and  N_7
REMARK    4  A    between atoms: N_5  and  N_6
REMARK    5  A    between atoms: N_12  and  N_13
REMARK                            x       y       z     vdW  Elec       q    Type
REMARK                         _______ _______ _______ _____ _____    ______ ____
ROOT
ATOM      1  N   UNL     1       3.278   4.648  18.965  0.00  0.00    +0.000 N 
ATOM      2  C   UNL     1       2.491   5.666  19.569  0.00  0.00    +0.000 A 
ATOM      3  O   UNL     1       1.744   5.528  20.530  0.00  0.00    +0.000 OA
ATOM      4  N   UNL     1       2.578   6.916  18.951  0.00  0.00    +0.000 N 
ATOM      5  C   UNL     1       1.966   8.116  19.278  0.00  0.00    +0.000 A 
ATOM      6  N   UNL     1       1.186   8.279  20.378  0.00  0.00    +0.000 N 
ATOM      7  N   UNL     1       2.302   9.025  18.379  0.00  0.00    +0.000 NA
ATOM      8  N   UNL     1       3.142   8.442  17.465  0.00  0.00    +0.000 NA
ATOM      9  C   UNL     1       3.314   7.192  17.827  0.00  0.00    +0.000 A 
ATOM     10  C   UNL     1       4.137   6.173  17.237  0.00  0.00    +0.000 A 
ATOM     11  C   UNL     1       4.882   6.439  16.083  0.00  0.00    +0.000 A 
ATOM     12  C   UNL     1       5.711   5.458  15.556  0.00  0.00    +0.000 A 
ATOM     13  C   UNL     1       5.816   4.229  16.199  0.00  0.00    +0.000 A 
ATOM     14  C   UNL     1       5.050   3.957  17.339  0.00  0.00    +0.000 A 
ATOM     15  C   UNL     1       4.167   4.911  17.855  0.00  0.00    +0.000 A 
ATOM     16  H   UNL     1       0.791   7.472  20.874  0.00  0.00    +0.000 HD
ENDROOT
BRANCH   6  17
ATOM     17  N   UNL     1       0.492   9.505  20.409  0.00  0.00    +0.000 NA
ATOM     18  H   UNL     1      -0.492   9.368  20.134  0.00  0.00    +0.000 HD
ATOM     19  H   UNL     1       0.860  10.125  19.678  0.00  0.00    +0.000 HD
ENDBRANCH   6  17
BRANCH   1  21
ATOM     20  C   UNL     1       2.952   2.337  18.053  0.00  0.00    +0.000 C 
ATOM     21  C   UNL     1       2.899   3.241  19.298  0.00  0.00    +0.000 C 
BRANCH  21  22
ATOM     22  C   UNL     1       3.572   2.516  20.485  0.00  0.00    +0.000 C 
ATOM     23  O   UNL     1       3.106   2.536  21.628  0.00  0.00    +0.000 OA
ATOM     24  N   UNL     1       4.810   1.951  20.229  0.00  0.00    +0.000 N 
ATOM     25  H   UNL     1       5.157   1.854  19.278  0.00  0.00    +0.000 HD
BRANCH  24  26
ATOM     26  N   UNL     1       5.477   1.281  21.286  0.00  0.00    +0.000 NA
ATOM     27  H   UNL     1       6.069   1.977  21.763  0.00  0.00    +0.000 HD
ATOM     28  H   UNL     1       6.174   0.657  20.861  0.00  0.00    +0.000 HD
ENDBRANCH  24  26
ENDBRANCH  21  22
ENDBRANCH   1  21
TORSDOF 4
ENDMDL
MODEL 4
REMARK VINA RESULT:      -7.4      2.414      4.613
REMARK  Name = 
REMARK  5 active torsions:
REMARK  status: ('A' for Active; 'I' for Inactive)
REMARK    1  A    between atoms: C_1  and  C_2
REMARK    2  A    between atoms: C_2  and  C_3
REMARK    3  A    between atoms: C_2  and  N_7
REMARK    4  A    between atoms: N_5  and  N_6
REMARK    5  A    between atoms: N_12  and  N_13
REMARK                            x       y       z     vdW  Elec       q    Type
REMARK                         _______ _______ _______ _____ _____    ______ ____
ROOT
ATOM      1  N   UNL     1       3.827   4.397  18.949  0.00  0.00    +0.000 N 
ATOM      2  C   UNL     1       3.018   5.260  19.736  0.00  0.00    +0.000 A 
ATOM      3  O   UNL     1       2.445   4.965  20.778  0.00  0.00    +0.000 OA
ATOM      4  N   UNL     1       2.852   6.545  19.213  0.00  0.00    +0.000 N 
ATOM      5  C   UNL     1       2.149   7.628  19.716  0.00  0.00    +0.000 A 
ATOM      6  N   UNL     1       1.528   7.618  20.923  0.00  0.00    +0.000 N 
ATOM      7  N   UNL     1       2.229   8.626  18.853  0.00  0.00    +0.000 NA
ATOM      8  N   UNL     1       2.991   8.219  17.788  0.00  0.00    +0.000 NA
ATOM      9  C   UNL     1       3.371   6.986  18.022  0.00  0.00    +0.000 A 
ATOM     10  C   UNL     1       4.219   6.126  17.244  0.00  0.00    +0.000 A 
ATOM     11  C   UNL     1       4.743   6.559  16.022  0.00  0.00    +0.000 A 
ATOM     12  C   UNL     1       5.602   5.734  15.307  0.00  0.00    +0.000 A 
ATOM     13  C   UNL     1       5.956   4.495  15.831  0.00  0.00    +0.000 A 
ATOM     14  C   UNL     1       5.410   4.053  17.041  0.00  0.00    +0.000 A 
ATOM     15  C   UNL     1       4.500   4.845  17.750  0.00  0.00    +0.000 A 
ATOM     16  H   UNL     1       1.317   6.736  21.405  0.00  0.00    +0.000 HD
ENDROOT
BRANCH   6  17
ATOM     17  N   UNL     1       0.697   8.733  21.149  0.00  0.00    +0.000 NA
ATOM     18  H   UNL     1       0.374   9.128  20.253  0.00  0.00    +0.000 HD
ATOM     19  H   UNL     1       1.251   9.494  21.558  0.00  0.00    +0.000 HD
ENDBRANCH   6  17
BRANCH   1  21
ATOM     20  C   UNL     1       4.579   2.491  20.392  0.00  0.00    +0.000 C 
ATOM     21  C   UNL     1       3.683   2.934  19.220  0.00  0.00    +0.000 C 
BRANCH  21  22
ATOM     22  C   UNL     1       2.281   2.307  19.383  0.00  0.00    +0.000 C 
ATOM     23  O   UNL     1       1.859   1.891  20.466  0.00  0.00    +0.000 OA
ATOM     24  N   UNL     1       1.566   2.106  18.214  0.00  0.00    +0.000 N 
ATOM     25  H   UNL     1       1.866   2.523  17.336  0.00  0.00    +0.000 HD
BRANCH  24  26
ATOM     26  N   UNL     1       0.276   1.525  18.304  0.00  0.00    +0.000 NA
ATOM     27  H   UNL     1       0.406   0.509  18.419  0.00  0.00    +0.000 HD
ATOM     28  H   UNL     1      -0.153   1.585  17.373  0.00  0.00    +0.000 HD
ENDBRANCH  24  26
ENDBRANCH  21  22
ENDBRANCH   1  21
TORSDOF 4
ENDMDL
MODEL 5
REMARK VINA RESULT:      -7.2      2.593      4.805
REMARK  Name = 
REMARK  5 active torsions:
REMARK  status: ('A' for Active; 'I' for Inactive)
REMARK    1  A    between atoms: C_1  and  C_2
REMARK    2  A    between atoms: C_2  and  C_3
REMARK    3  A    between atoms: C_2  and  N_7
REMARK    4  A    between atoms: N_5  and  N_6
REMARK    5  A    between atoms: N_12  and  N_13
REMARK                            x       y       z     vdW  Elec       q    Type
REMARK                         _______ _______ _______ _____ _____    ______ ____
ROOT
ATOM      1  N   UNL     1       5.267   5.994  17.806  0.00  0.00    +0.000 N 
ATOM      2  C   UNL     1       5.535   4.730  18.397  0.00  0.00    +0.000 A 
ATOM      3  O   UNL     1       6.590   4.110  18.334  0.00  0.00    +0.000 OA
ATOM      4  N   UNL     1       4.451   4.156  19.067  0.00  0.00    +0.000 N 
ATOM      5  C   UNL     1       4.363   2.957  19.756  0.00  0.00    +0.000 A 
ATOM      6  N   UNL     1       5.423   2.133  19.955  0.00  0.00    +0.000 N 
ATOM      7  N   UNL     1       3.122   2.803  20.185  0.00  0.00    +0.000 NA
ATOM      8  N   UNL     1       2.390   3.896  19.799  0.00  0.00    +0.000 NA
ATOM      9  C   UNL     1       3.195   4.703  19.150  0.00  0.00    +0.000 A 
ATOM     10  C   UNL     1       2.935   5.998  18.585  0.00  0.00    +0.000 A 
ATOM     11  C   UNL     1       1.655   6.559  18.652  0.00  0.00    +0.000 A 
ATOM     12  C   UNL     1       1.433   7.833  18.146  0.00  0.00    +0.000 A 
ATOM     13  C   UNL     1       2.493   8.551  17.604  0.00  0.00    +0.000 A 
ATOM     14  C   UNL     1       3.767   7.976  17.514  0.00  0.00    +0.000 A 
ATOM     15  C   UNL     1       4.001   6.674  17.967  0.00  0.00    +0.000 A 
ATOM     16  H   UNL     1       6.274   2.215  19.387  0.00  0.00    +0.000 HD
ENDROOT
BRANCH   6  17
ATOM     17  N   UNL     1       5.077   0.875  20.487  0.00  0.00    +0.000 NA
ATOM     18  H   UNL     1       4.976   0.180  19.732  0.00  0.00    +0.000 HD
ATOM     19  H   UNL     1       4.135   0.923  20.893  0.00  0.00    +0.000 HD
ENDBRANCH   6  17
BRANCH   1  21
ATOM     20  C   UNL     1       7.452   7.132  17.345  0.00  0.00    +0.000 C 
ATOM     21  C   UNL     1       6.219   6.437  16.741  0.00  0.00    +0.000 C 
BRANCH  21  22
ATOM     22  C   UNL     1       6.674   5.446  15.646  0.00  0.00    +0.000 C 
ATOM     23  O   UNL     1       7.756   5.552  15.060  0.00  0.00    +0.000 OA
ATOM     24  N   UNL     1       5.739   4.504  15.251  0.00  0.00    +0.000 N 
ATOM     25  H   UNL     1       4.886   4.355  15.786  0.00  0.00    +0.000 HD
BRANCH  24  26
ATOM     26  N   UNL     1       6.101   3.576  14.243  0.00  0.00    +0.000 NA
ATOM     27  H   UNL     1       7.084   3.764  13.994  0.00  0.00    +0.000 HD
ATOM     28  H   UNL     1       5.604   3.845  13.386  0.00  0.00    +0.000 HD
ENDBRANCH  24  26
ENDBRANCH  21  22
ENDBRANCH   1  21
TORSDOF 4
ENDMDL
MODEL 6
REMARK VINA RESULT:      -7.2      2.348      4.073
REMARK  Name = 
REMARK  5 active torsions:
REMARK  status: ('A' for Active; 'I' for Inactive)
REMARK    1  A    between atoms: C_1  and  C_2
REMARK    2  A    between atoms: C_2  and  C_3
REMARK    3  A    between atoms: C_2  and  N_7
REMARK    4  A    between atoms: N_5  and  N_6
REMARK    5  A    between atoms: N_12  and  N_13
REMARK                            x       y       z     vdW  Elec       q    Type
REMARK                         _______ _______ _______ _____ _____    ______ ____
ROOT
ATOM      1  N   UNL     1       2.941   4.968  19.132  0.00  0.00    +0.000 N 
ATOM      2  C   UNL     1       2.183   5.961  19.808  0.00  0.00    +0.000 A 
ATOM      3  O   UNL     1       1.460   5.782  20.780  0.00  0.00    +0.000 OA
ATOM      4  N   UNL     1       2.265   7.240  19.252  0.00  0.00    +0.000 N 
ATOM      5  C   UNL     1       1.675   8.427  19.655  0.00  0.00    +0.000 A 
ATOM      6  N   UNL     1       0.927   8.542  20.782  0.00  0.00    +0.000 N 
ATOM      7  N   UNL     1       1.996   9.377  18.794  0.00  0.00    +0.000 NA
ATOM      8  N   UNL     1       2.806   8.834  17.829  0.00  0.00    +0.000 NA
ATOM      9  C   UNL     1       2.974   7.566  18.122  0.00  0.00    +0.000 A 
ATOM     10  C   UNL     1       3.770   6.570  17.460  0.00  0.00    +0.000 A 
ATOM     11  C   UNL     1       4.487   6.887  16.301  0.00  0.00    +0.000 A 
ATOM     12  C   UNL     1       5.291   5.927  15.702  0.00  0.00    +0.000 A 
ATOM     13  C   UNL     1       5.401   4.666  16.280  0.00  0.00    +0.000 A 
ATOM     14  C   UNL     1       4.663   4.344  17.425  0.00  0.00    +0.000 A 
ATOM     15  C   UNL     1       3.803   5.278  18.013  0.00  0.00    +0.000 A 
ATOM     16  H   UNL     1       0.537   7.714  21.248  0.00  0.00    +0.000 HD
ENDROOT
BRANCH   6  17
ATOM     17  N   UNL     1       0.247   9.771  20.894  0.00  0.00    +0.000 NA
ATOM     18  H   UNL     1      -0.412   9.746  21.686  0.00  0.00    +0.000 HD
ATOM     19  H   UNL     1      -0.365   9.898  20.080  0.00  0.00    +0.000 HD
ENDBRANCH   6  17
BRANCH   1  21
ATOM     20  C   UNL     1       1.446   3.076  18.449  0.00  0.00    +0.000 C 
ATOM     21  C   UNL     1       2.557   3.549  19.404  0.00  0.00    +0.000 C 
BRANCH  21  22
ATOM     22  C   UNL     1       3.644   2.456  19.505  0.00  0.00    +0.000 C 
ATOM     23  O   UNL     1       4.644   2.574  20.220  0.00  0.00    +0.000 OA
ATOM     24  N   UNL     1       3.510   1.384  18.638  0.00  0.00    +0.000 N 
ATOM     25  H   UNL     1       2.651   1.236  18.114  0.00  0.00    +0.000 HD
BRANCH  24  26
ATOM     26  N   UNL     1       4.485   0.355  18.681  0.00  0.00    +0.000 NA
ATOM     27  H   UNL     1       4.097  -0.408  19.255  0.00  0.00    +0.000 HD
ATOM     28  H   UNL     1       5.261   0.692  19.265  0.00  0.00    +0.000 HD
ENDBRANCH  24  26
ENDBRANCH  21  22
ENDBRANCH   1  21
TORSDOF 4
ENDMDL
MODEL 7
REMARK VINA RESULT:      -7.1      2.376      4.480
REMARK  Name = 
REMARK  5 active torsions:
REMARK  status: ('A' for Active; 'I' for Inactive)
REMARK    1  A    between atoms: C_1  and  C_2
REMARK    2  A    between atoms: C_2  and  C_3
REMARK    3  A    between atoms: C_2  and  N_7
REMARK    4  A    between atoms: N_5  and  N_6
REMARK    5  A    between atoms: N_12  and  N_13
REMARK                            x       y       z     vdW  Elec       q    Type
REMARK                         _______ _______ _______ _____ _____    ______ ____
ROOT
ATOM      1  N   UNL     1       3.573   4.634  18.971  0.00  0.00    +0.000 N 
ATOM      2  C   UNL     1       2.777   5.601  19.642  0.00  0.00    +0.000 A 
ATOM      3  O   UNL     1       2.134   5.422  20.669  0.00  0.00    +0.000 OA
ATOM      4  N   UNL     1       2.715   6.846  19.012  0.00  0.00    +0.000 N 
ATOM      5  C   UNL     1       2.053   8.004  19.389  0.00  0.00    +0.000 A 
ATOM      6  N   UNL     1       1.370   8.125  20.556  0.00  0.00    +0.000 N 
ATOM      7  N   UNL     1       2.238   8.923  18.457  0.00  0.00    +0.000 NA
ATOM      8  N   UNL     1       3.029   8.390  17.471  0.00  0.00    +0.000 NA
ATOM      9  C   UNL     1       3.321   7.160  17.821  0.00  0.00    +0.000 A 
ATOM     10  C   UNL     1       4.156   6.194  17.162  0.00  0.00    +0.000 A 
ATOM     11  C   UNL     1       4.769   6.498  15.942  0.00  0.00    +0.000 A 
ATOM     12  C   UNL     1       5.613   5.572  15.344  0.00  0.00    +0.000 A 
ATOM     13  C   UNL     1       5.865   4.361  15.980  0.00  0.00    +0.000 A 
ATOM     14  C   UNL     1       5.230   4.050  17.189  0.00  0.00    +0.000 A 
ATOM     15  C   UNL     1       4.333   4.945  17.781  0.00  0.00    +0.000 A 
ATOM     16  H   UNL     1       1.082   7.298  21.092  0.00  0.00    +0.000 HD
ENDROOT
BRANCH   6  17
ATOM     17  N   UNL     1       0.597   9.300  20.646  0.00  0.00    +0.000 NA
ATOM     18  H   UNL     1      -0.283   9.112  21.149  0.00  0.00    +0.000 HD
ATOM     19  H   UNL     1       0.281   9.574  19.709  0.00  0.00    +0.000 HD
ENDBRANCH   6  17
BRANCH   1  21
ATOM     20  C   UNL     1       4.548   2.599  20.063  0.00  0.00    +0.000 C 
ATOM     21  C   UNL     1       3.329   3.207  19.346  0.00  0.00    +0.000 C 
BRANCH  21  22
ATOM     22  C   UNL     1       2.042   2.812  20.103  0.00  0.00    +0.000 C 
ATOM     23  O   UNL     1       0.949   2.686  19.540  0.00  0.00    +0.000 OA
ATOM     24  N   UNL     1       2.145   2.741  21.482  0.00  0.00    +0.000 N 
ATOM     25  H   UNL     1       3.053   2.756  21.943  0.00  0.00    +0.000 HD
BRANCH  24  26
ATOM     26  N   UNL     1       0.991   2.392  22.229  0.00  0.00    +0.000 NA
ATOM     27  H   UNL     1       0.208   2.320  21.563  0.00  0.00    +0.000 HD
ATOM     28  H   UNL     1       0.727   3.212  22.787  0.00  0.00    +0.000 HD
ENDBRANCH  24  26
ENDBRANCH  21  22
ENDBRANCH   1  21
TORSDOF 4
ENDMDL
MODEL 8
REMARK VINA RESULT:      -7.1      2.736      4.341
REMARK  Name = 
REMARK  5 active torsions:
REMARK  status: ('A' for Active; 'I' for Inactive)
REMARK    1  A    between atoms: C_1  and  C_2
REMARK    2  A    between atoms: C_2  and  C_3
REMARK    3  A    between atoms: C_2  and  N_7
REMARK    4  A    between atoms: N_5  and  N_6
REMARK    5  A    between atoms: N_12  and  N_13
REMARK                            x       y       z     vdW  Elec       q    Type
REMARK                         _______ _______ _______ _____ _____    ______ ____
ROOT
ATOM      1  N   UNL     1       3.311   3.729  18.509  0.00  0.00    +0.000 N 
ATOM      2  C   UNL     1       4.322   3.800  17.513  0.00  0.00    +0.000 A 
ATOM      3  O   UNL     1       4.851   2.850  16.949  0.00  0.00    +0.000 OA
ATOM      4  N   UNL     1       4.752   5.094  17.208  0.00  0.00    +0.000 N 
ATOM      5  C   UNL     1       5.698   5.526  16.293  0.00  0.00    +0.000 A 
ATOM      6  N   UNL     1       6.346   4.692  15.440  0.00  0.00    +0.000 N 
ATOM      7  N   UNL     1       5.812   6.840  16.385  0.00  0.00    +0.000 NA
ATOM      8  N   UNL     1       4.940   7.285  17.346  0.00  0.00    +0.000 NA
ATOM      9  C   UNL     1       4.302   6.240  17.815  0.00  0.00    +0.000 A 
ATOM     10  C   UNL     1       3.254   6.170  18.796  0.00  0.00    +0.000 A 
ATOM     11  C   UNL     1       2.796   7.329  19.431  0.00  0.00    +0.000 A 
ATOM     12  C   UNL     1       1.748   7.251  20.339  0.00  0.00    +0.000 A 
ATOM     13  C   UNL     1       1.145   6.023  20.586  0.00  0.00    +0.000 A 
ATOM     14  C   UNL     1       1.622   4.860  19.968  0.00  0.00    +0.000 A 
ATOM     15  C   UNL     1       2.712   4.908  19.093  0.00  0.00    +0.000 A 
ATOM     16  H   UNL     1       6.371   3.679  15.604  0.00  0.00    +0.000 HD
ENDROOT
BRANCH   6  17
ATOM     17  N   UNL     1       7.413   5.297  14.747  0.00  0.00    +0.000 NA
ATOM     18  H   UNL     1       7.070   5.762  13.894  0.00  0.00    +0.000 HD
ATOM     19  H   UNL     1       8.041   4.570  14.386  0.00  0.00    +0.000 HD
ENDBRANCH   6  17
BRANCH   1  21
ATOM     20  C   UNL     1       3.422   1.245  18.192  0.00  0.00    +0.000 C 
ATOM     21  C   UNL     1       3.133   2.399  19.169  0.00  0.00    +0.000 C 
BRANCH  21  22
ATOM     22  C   UNL     1       3.816   2.105  20.523  0.00  0.00    +0.000 C 
ATOM     23  O   UNL     1       3.339   2.470  21.603  0.00  0.00    +0.000 OA
ATOM     24  N   UNL     1       5.073   1.528  20.457  0.00  0.00    +0.000 N 
ATOM     25  H   UNL     1       5.431   1.147  19.584  0.00  0.00    +0.000 HD
BRANCH  24  26
ATOM     26  N   UNL     1       5.750   1.245  21.670  0.00  0.00    +0.000 NA
ATOM     27  H   UNL     1       6.727   1.551  21.552  0.00  0.00    +0.000 HD
ATOM     28  H   UNL     1       5.848   0.225  21.736  0.00  0.00    +0.000 HD
ENDBRANCH  24  26
ENDBRANCH  21  22
ENDBRANCH   1  21
TORSDOF 4
ENDMDL
MODEL 9
REMARK VINA RESULT:      -7.0      1.377      1.771
REMARK  Name = 
REMARK  5 active torsions:
REMARK  status: ('A' for Active; 'I' for Inactive)
REMARK    1  A    between atoms: C_1  and  C_2
REMARK    2  A    between atoms: C_2  and  C_3
REMARK    3  A    between atoms: C_2  and  N_7
REMARK    4  A    between atoms: N_5  and  N_6
REMARK    5  A    between atoms: N_12  and  N_13
REMARK                            x       y       z     vdW  Elec       q    Type
REMARK                         _______ _______ _______ _____ _____    ______ ____
ROOT
ATOM      1  N   UNL     1       4.045   5.366  17.754  0.00  0.00    +0.000 N 
ATOM      2  C   UNL     1       3.506   6.583  18.251  0.00  0.00    +0.000 A 
ATOM      3  O   UNL     1       3.837   7.713  17.912  0.00  0.00    +0.000 OA
ATOM      4  N   UNL     1       2.540   6.431  19.249  0.00  0.00    +0.000 N 
ATOM      5  C   UNL     1       1.810   7.388  19.936  0.00  0.00    +0.000 A 
ATOM      6  N   UNL     1       1.883   8.717  19.666  0.00  0.00    +0.000 N 
ATOM      7  N   UNL     1       1.047   6.782  20.829  0.00  0.00    +0.000 NA
ATOM      8  N   UNL     1       1.254   5.430  20.732  0.00  0.00    +0.000 NA
ATOM      9  C   UNL     1       2.131   5.232  19.776  0.00  0.00    +0.000 A 
ATOM     10  C   UNL     1       2.648   4.000  19.249  0.00  0.00    +0.000 A 
ATOM     11  C   UNL     1       2.249   2.772  19.786  0.00  0.00    +0.000 A 
ATOM     12  C   UNL     1       2.719   1.589  19.231  0.00  0.00    +0.000 A 
ATOM     13  C   UNL     1       3.562   1.638  18.126  0.00  0.00    +0.000 A 
ATOM     14  C   UNL     1       3.981   2.868  17.606  0.00  0.00    +0.000 A 
ATOM     15  C   UNL     1       3.563   4.072  18.183  0.00  0.00    +0.000 A 
ATOM     16  H   UNL     1       2.668   9.108  19.132  0.00  0.00    +0.000 HD
ENDROOT
BRANCH   6  17
ATOM     17  N   UNL     1       1.229   9.529  20.614  0.00  0.00    +0.000 NA
ATOM     18  H   UNL     1       0.719   8.948  21.294  0.00  0.00    +0.000 HD
ATOM     19  H   UNL     1       0.484  10.062  20.150  0.00  0.00    +0.000 HD
ENDBRANCH   6  17
BRANCH   1  21
ATOM     20  C   UNL     1       5.206   6.300  15.739  0.00  0.00    +0.000 C 
ATOM     21  C   UNL     1       5.348   5.472  17.030  0.00  0.00    +0.000 C 
BRANCH  21  22
ATOM     22  C   UNL     1       6.622   5.913  17.783  0.00  0.00    +0.000 C 
ATOM     23  O   UNL     1       7.410   6.748  17.328  0.00  0.00    +0.000 OA
ATOM     24  N   UNL     1       6.914   5.217  18.944  0.00  0.00    +0.000 N 
ATOM     25  H   UNL     1       6.230   4.594  19.369  0.00  0.00    +0.000 HD
BRANCH  24  26
ATOM     26  N   UNL     1       8.078   5.574  19.671  0.00  0.00    +0.000 NA
ATOM     27  H   UNL     1       8.259   4.817  20.347  0.00  0.00    +0.000 HD
ATOM     28  H   UNL     1       7.826   6.358  20.285  0.00  0.00    +0.000 HD
ENDBRANCH  24  26
ENDBRANCH  21  22
ENDBRANCH   1  21
TORSDOF 4
ENDMDL
