MODEL 1
REMARK VINA RESULT:      -8.5      0.000      0.000
REMARK  Name = 
REMARK  8 active torsions:
REMARK  status: ('A' for Active; 'I' for Inactive)
REMARK    1  A    between atoms: C_1  and  C_2
REMARK    2  A    between atoms: C_2  and  C_3
REMARK    3  A    between atoms: C_2  and  C_4
REMARK    4  A    between atoms: C_2  and  N_6
REMARK    5  A    between atoms: C_4  and  O_5
REMARK    6  A    between atoms: C_10  and  C_11
REMARK    7  A    between atoms: C_18  and  C_19
REMARK    8  A    between atoms: C_26  and  N_27
REMARK                            x       y       z     vdW  Elec       q    Type
REMARK                         _______ _______ _______ _____ _____    ______ ____
ROOT
ATOM      1  N   UNL     1      -1.273  12.473  23.257  0.00  0.00    +0.000 N 
ATOM      2  C   UNL     1      -0.902  11.344  22.511  0.00  0.00    +0.000 A 
ATOM      3  C   UNL     1      -0.322  10.278  23.189  0.00  0.00    +0.000 A 
ATOM      4  C   UNL     1       0.234   9.223  22.472  0.00  0.00    +0.000 A 
ATOM      5  C   UNL     1       0.203   9.252  21.074  0.00  0.00    +0.000 A 
ATOM      6  C   UNL     1      -0.495  10.296  20.432  0.00  0.00    +0.000 A 
ATOM      7  N   UNL     1      -1.005  11.326  21.169  0.00  0.00    +0.000 NA
ATOM      8  H   UNL     1      -1.540  12.187  24.194  0.00  0.00    +0.000 HD
ENDROOT
BRANCH   5   9
ATOM      9  C   UNL     1       1.092   8.318  20.313  0.00  0.00    +0.000 C 
ATOM     10  O   UNL     1       1.681   8.752  19.330  0.00  0.00    +0.000 OA
ATOM     11  N   UNL     1       1.185   7.014  20.787  0.00  0.00    +0.000 N 
ATOM     12  C   UNL     1       2.083   6.060  20.259  0.00  0.00    +0.000 A 
ATOM     13  C   UNL     1       2.010   4.746  20.717  0.00  0.00    +0.000 A 
ATOM     14  C   UNL     1       2.910   3.816  20.224  0.00  0.00    +0.000 A 
ATOM     15  C   UNL     1       3.869   4.209  19.293  0.00  0.00    +0.000 A 
ATOM     16  C   UNL     1       3.876   5.534  18.869  0.00  0.00    +0.000 A 
ATOM     17  N   UNL     1       3.001   6.439  19.353  0.00  0.00    +0.000 NA
ATOM     18  H   UNL     1       0.579   6.705  21.533  0.00  0.00    +0.000 HD
BRANCH  16  19
ATOM     19  C   UNL     1       4.879   6.046  17.853  0.00  0.00    +0.000 C 
ATOM     20  C   UNL     1       4.839   5.228  16.555  0.00  0.00    +0.000 C 
ATOM     21  C   UNL     1       5.978   5.613  15.623  0.00  0.00    +0.000 C 
ATOM     22  O   UNL     1       7.231   5.509  16.296  0.00  0.00    +0.000 OA
ATOM     23  C   UNL     1       7.326   6.428  17.384  0.00  0.00    +0.000 C 
ATOM     24  C   UNL     1       6.292   6.100  18.449  0.00  0.00    +0.000 C 
ENDBRANCH  16  19
ENDBRANCH   5   9
BRANCH   6  25
ATOM     25  N   UNL     1      -0.771  10.323  19.080  0.00  0.00    +0.000 N 
ATOM     26  C   UNL     1      -1.492   9.244  18.406  0.00  0.00    +0.000 C 
ATOM     27  C   UNL     1      -2.831   9.769  17.894  0.00  0.00    +0.000 C 
ATOM     28  C   UNL     1      -2.662  10.995  17.024  0.00  0.00    +0.000 C 
ATOM     29  C   UNL     1      -1.762  12.068  17.625  0.00  0.00    +0.000 C 
ATOM     30  C   UNL     1      -0.481  11.491  18.250  0.00  0.00    +0.000 C 
ATOM     31  C   UNL     1      -2.754  10.846  15.518  0.00  0.00    +0.000 C 
ATOM     32  C   UNL     1      -3.895  11.461  16.275  0.00  0.00    +0.000 C 
ENDBRANCH   6  25
BRANCH   1  34
ATOM     33  C   UNL     1      -2.532  14.458  23.860  0.00  0.00    +0.000 C 
ATOM     34  C   UNL     1      -2.258  13.445  22.721  0.00  0.00    +0.000 C 
ATOM     35  C   UNL     1      -3.576  12.711  22.420  0.00  0.00    +0.000 C 
BRANCH  34  36
ATOM     36  C   UNL     1      -1.755  14.255  21.495  0.00  0.00    +0.000 C 
BRANCH  36  37
ATOM     37  O   UNL     1      -2.571  14.043  20.334  0.00  0.00    +0.000 OA
ATOM     38  H   UNL     1      -2.973  14.903  20.120  0.00  0.00    +0.000 HD
ENDBRANCH  36  37
ENDBRANCH  34  36
ENDBRANCH   1  34
TORSDOF 6
ENDMDL
MODEL 2
REMARK VINA RESULT:      -8.1      2.975      4.378
REMARK  Name = 
REMARK  8 active torsions:
REMARK  status: ('A' for Active; 'I' for Inactive)
REMARK    1  A    between atoms: C_1  and  C_2
REMARK    2  A    between atoms: C_2  and  C_3
REMARK    3  A    between atoms: C_2  and  C_4
REMARK    4  A    between atoms: C_2  and  N_6
REMARK    5  A    between atoms: C_4  and  O_5
REMARK    6  A    between atoms: C_10  and  C_11
REMARK    7  A    between atoms: C_18  and  C_19
REMARK    8  A    between atoms: C_26  and  N_27
REMARK                            x       y       z     vdW  Elec       q    Type
REMARK                         _______ _______ _______ _____ _____    ______ ____
ROOT
ATOM      1  N   UNL     1      -1.741  14.178  23.994  0.00  0.00    +0.000 N 
ATOM      2  C   UNL     1      -1.280  13.169  23.133  0.00  0.00    +0.000 A 
ATOM      3  C   UNL     1      -1.754  11.878  23.332  0.00  0.00    +0.000 A 
ATOM      4  C   UNL     1      -1.186  10.817  22.633  0.00  0.00    +0.000 A 
ATOM      5  C   UNL     1      -0.140  11.067  21.739  0.00  0.00    +0.000 A 
ATOM      6  C   UNL     1       0.232  12.404  21.486  0.00  0.00    +0.000 A 
ATOM      7  N   UNL     1      -0.332  13.415  22.210  0.00  0.00    +0.000 NA
ATOM      8  H   UNL     1      -2.688  13.963  24.290  0.00  0.00    +0.000 HD
ENDROOT
BRANCH   5   9
ATOM      9  C   UNL     1       0.693   9.917  21.264  0.00  0.00    +0.000 C 
ATOM     10  O   UNL     1       1.014   9.060  22.078  0.00  0.00    +0.000 OA
ATOM     11  N   UNL     1       1.041   9.908  19.918  0.00  0.00    +0.000 N 
ATOM     12  C   UNL     1       1.704   8.828  19.296  0.00  0.00    +0.000 A 
ATOM     13  C   UNL     1       2.122   8.969  17.974  0.00  0.00    +0.000 A 
ATOM     14  C   UNL     1       2.745   7.899  17.352  0.00  0.00    +0.000 A 
ATOM     15  C   UNL     1       2.934   6.709  18.051  0.00  0.00    +0.000 A 
ATOM     16  C   UNL     1       2.505   6.641  19.373  0.00  0.00    +0.000 A 
ATOM     17  N   UNL     1       1.895   7.684  19.975  0.00  0.00    +0.000 NA
ATOM     18  H   UNL     1       0.836  10.710  19.339  0.00  0.00    +0.000 HD
BRANCH  16  19
ATOM     19  C   UNL     1       2.677   5.388  20.211  0.00  0.00    +0.000 C 
ATOM     20  C   UNL     1       3.595   4.369  19.521  0.00  0.00    +0.000 C 
ATOM     21  C   UNL     1       3.603   3.042  20.264  0.00  0.00    +0.000 C 
ATOM     22  O   UNL     1       2.273   2.555  20.432  0.00  0.00    +0.000 OA
ATOM     23  C   UNL     1       1.490   3.423  21.249  0.00  0.00    +0.000 C 
ATOM     24  C   UNL     1       1.319   4.776  20.576  0.00  0.00    +0.000 C 
ENDBRANCH  16  19
ENDBRANCH   5   9
BRANCH   6  25
ATOM     25  N   UNL     1       1.099  12.787  20.483  0.00  0.00    +0.000 N 
ATOM     26  C   UNL     1       0.658  12.992  19.103  0.00  0.00    +0.000 C 
ATOM     27  C   UNL     1       0.818  14.464  18.731  0.00  0.00    +0.000 C 
ATOM     28  C   UNL     1       2.226  14.960  18.978  0.00  0.00    +0.000 C 
ATOM     29  C   UNL     1       2.782  14.601  20.351  0.00  0.00    +0.000 C 
ATOM     30  C   UNL     1       2.491  13.146  20.752  0.00  0.00    +0.000 C 
ATOM     31  C   UNL     1       3.167  15.114  17.800  0.00  0.00    +0.000 C 
ATOM     32  C   UNL     1       2.558  16.333  18.430  0.00  0.00    +0.000 C 
ENDBRANCH   6  25
BRANCH   1  34
ATOM     33  C   UNL     1      -2.780  16.341  24.356  0.00  0.00    +0.000 C 
ATOM     34  C   UNL     1      -1.638  15.607  23.608  0.00  0.00    +0.000 C 
ATOM     35  C   UNL     1      -1.906  15.740  22.099  0.00  0.00    +0.000 C 
BRANCH  34  36
ATOM     36  C   UNL     1      -0.305  16.287  24.021  0.00  0.00    +0.000 C 
BRANCH  36  37
ATOM     37  O   UNL     1       0.777  15.933  23.149  0.00  0.00    +0.000 OA
ATOM     38  H   UNL     1       0.982  14.999  23.331  0.00  0.00    +0.000 HD
ENDBRANCH  36  37
ENDBRANCH  34  36
ENDBRANCH   1  34
TORSDOF 6
ENDMDL
MODEL 3
REMARK VINA RESULT:      -8.0      1.902      2.949
REMARK  Name = 
REMARK  8 active torsions:
REMARK  status: ('A' for Active; 'I' for Inactive)
REMARK    1  A    between atoms: C_1  and  C_2
REMARK    2  A    between atoms: C_2  and  C_3
REMARK    3  A    between atoms: C_2  and  C_4
REMARK    4  A    between atoms: C_2  and  N_6
REMARK    5  A    between atoms: C_4  and  O_5
REMARK    6  A    between atoms: C_10  and  C_11
REMARK    7  A    between atoms: C_18  and  C_19
REMARK    8  A    between atoms: C_26  and  N_27
REMARK                            x       y       z     vdW  Elec       q    Type
REMARK                         _______ _______ _______ _____ _____    ______ ____
ROOT
ATOM      1  N   UNL     1      -1.894  13.481  22.699  0.00  0.00    +0.000 N 
ATOM      2  C   UNL     1      -1.485  12.220  22.236  0.00  0.00    +0.000 A 
ATOM      3  C   UNL     1      -0.984  11.317  23.167  0.00  0.00    +0.000 A 
ATOM      4  C   UNL     1      -0.392  10.135  22.734  0.00  0.00    +0.000 A 
ATOM      5  C   UNL     1      -0.307   9.873  21.363  0.00  0.00    +0.000 A 
ATOM      6  C   UNL     1      -0.929  10.762  20.462  0.00  0.00    +0.000 A 
ATOM      7  N   UNL     1      -1.477  11.924  20.923  0.00  0.00    +0.000 NA
ATOM      8  H   UNL     1      -2.243  13.396  23.648  0.00  0.00    +0.000 HD
ENDROOT
BRANCH   5   9
ATOM      9  C   UNL     1       0.623   8.798  20.890  0.00  0.00    +0.000 C 
ATOM     10  O   UNL     1       0.716   7.778  21.561  0.00  0.00    +0.000 OA
ATOM     11  N   UNL     1       1.316   9.043  19.710  0.00  0.00    +0.000 N 
ATOM     12  C   UNL     1       2.121   8.076  19.070  0.00  0.00    +0.000 A 
ATOM     13  C   UNL     1       2.876   8.458  17.962  0.00  0.00    +0.000 A 
ATOM     14  C   UNL     1       3.642   7.504  17.314  0.00  0.00    +0.000 A 
ATOM     15  C   UNL     1       3.640   6.188  17.772  0.00  0.00    +0.000 A 
ATOM     16  C   UNL     1       2.875   5.878  18.893  0.00  0.00    +0.000 A 
ATOM     17  N   UNL     1       2.126   6.809  19.520  0.00  0.00    +0.000 NA
ATOM     18  H   UNL     1       1.271   9.955  19.279  0.00  0.00    +0.000 HD
BRANCH  16  19
ATOM     19  C   UNL     1       2.819   4.475  19.464  0.00  0.00    +0.000 C 
ATOM     20  C   UNL     1       3.136   3.416  18.398  0.00  0.00    +0.000 C 
ATOM     21  C   UNL     1       2.883   2.012  18.921  0.00  0.00    +0.000 C 
ATOM     22  O   UNL     1       1.554   1.898  19.426  0.00  0.00    +0.000 OA
ATOM     23  C   UNL     1       1.340   2.748  20.552  0.00  0.00    +0.000 C 
ATOM     24  C   UNL     1       1.472   4.208  20.148  0.00  0.00    +0.000 C 
ENDBRANCH  16  19
ENDBRANCH   5   9
BRANCH   6  25
ATOM     25  N   UNL     1      -1.092  10.508  19.115  0.00  0.00    +0.000 N 
ATOM     26  C   UNL     1      -1.849   9.358  18.621  0.00  0.00    +0.000 C 
ATOM     27  C   UNL     1      -3.090   9.847  17.879  0.00  0.00    +0.000 C 
ATOM     28  C   UNL     1      -2.745  10.836  16.788  0.00  0.00    +0.000 C 
ATOM     29  C   UNL     1      -1.805  11.951  17.230  0.00  0.00    +0.000 C 
ATOM     30  C   UNL     1      -0.634  11.441  18.086  0.00  0.00    +0.000 C 
ATOM     31  C   UNL     1      -2.728  10.364  15.348  0.00  0.00    +0.000 C 
ATOM     32  C   UNL     1      -3.867  11.207  15.840  0.00  0.00    +0.000 C 
ENDBRANCH   6  25
BRANCH   1  34
ATOM     33  C   UNL     1      -1.954  14.925  20.749  0.00  0.00    +0.000 C 
ATOM     34  C   UNL     1      -2.811  14.322  21.891  0.00  0.00    +0.000 C 
ATOM     35  C   UNL     1      -3.320  15.487  22.758  0.00  0.00    +0.000 C 
BRANCH  34  36
ATOM     36  C   UNL     1      -3.978  13.542  21.228  0.00  0.00    +0.000 C 
BRANCH  36  37
ATOM     37  O   UNL     1      -3.831  13.452  19.804  0.00  0.00    +0.000 OA
ATOM     38  H   UNL     1      -3.850  12.504  19.585  0.00  0.00    +0.000 HD
ENDBRANCH  36  37
ENDBRANCH  34  36
ENDBRANCH   1  34
TORSDOF 6
ENDMDL
MODEL 4
REMARK VINA RESULT:      -8.0      0.665      1.010
REMARK  Name = 
REMARK  8 active torsions:
REMARK  status: ('A' for Active; 'I' for Inactive)
REMARK    1  A    between atoms: C_1  and  C_2
REMARK    2  A    between atoms: C_2  and  C_3
REMARK    3  A    between atoms: C_2  and  C_4
REMARK    4  A    between atoms: C_2  and  N_6
REMARK    5  A    between atoms: C_4  and  O_5
REMARK    6  A    between atoms: C_10  and  C_11
REMARK    7  A    between atoms: C_18  and  C_19
REMARK    8  A    between atoms: C_26  and  N_27
REMARK                            x       y       z     vdW  Elec       q    Type
REMARK                         _______ _______ _______ _____ _____    ______ ____
ROOT
ATOM      1  N   UNL     1      -1.370  12.528  23.329  0.00  0.00    +0.000 N 
ATOM      2  C   UNL     1      -0.989  11.393  22.597  0.00  0.00    +0.000 A 
ATOM      3  C   UNL     1      -0.432  10.327  23.294  0.00  0.00    +0.000 A 
ATOM      4  C   UNL     1       0.134   9.265  22.596  0.00  0.00    +0.000 A 
ATOM      5  C   UNL     1       0.136   9.287  21.197  0.00  0.00    +0.000 A 
ATOM      6  C   UNL     1      -0.540  10.332  20.534  0.00  0.00    +0.000 A 
ATOM      7  N   UNL     1      -1.060  11.369  21.253  0.00  0.00    +0.000 NA
ATOM      8  H   UNL     1      -1.662  12.248  24.261  0.00  0.00    +0.000 HD
ENDROOT
BRANCH   5   9
ATOM      9  C   UNL     1       1.038   8.344  20.462  0.00  0.00    +0.000 C 
ATOM     10  O   UNL     1       1.761   8.800  19.585  0.00  0.00    +0.000 OA
ATOM     11  N   UNL     1       0.985   7.006  20.836  0.00  0.00    +0.000 N 
ATOM     12  C   UNL     1       1.867   6.025  20.332  0.00  0.00    +0.000 A 
ATOM     13  C   UNL     1       1.651   4.691  20.671  0.00  0.00    +0.000 A 
ATOM     14  C   UNL     1       2.533   3.731  20.203  0.00  0.00    +0.000 A 
ATOM     15  C   UNL     1       3.616   4.114  19.414  0.00  0.00    +0.000 A 
ATOM     16  C   UNL     1       3.764   5.462  19.101  0.00  0.00    +0.000 A 
ATOM     17  N   UNL     1       2.905   6.395  19.561  0.00  0.00    +0.000 NA
ATOM     18  H   UNL     1       0.279   6.692  21.486  0.00  0.00    +0.000 HD
BRANCH  16  19
ATOM     19  C   UNL     1       4.908   5.966  18.243  0.00  0.00    +0.000 C 
ATOM     20  C   UNL     1       4.804   5.449  16.801  0.00  0.00    +0.000 C 
ATOM     21  C   UNL     1       6.052   5.789  16.002  0.00  0.00    +0.000 C 
ATOM     22  O   UNL     1       7.219   5.313  16.670  0.00  0.00    +0.000 OA
ATOM     23  C   UNL     1       7.408   5.959  17.929  0.00  0.00    +0.000 C 
ATOM     24  C   UNL     1       6.264   5.626  18.873  0.00  0.00    +0.000 C 
ENDBRANCH  16  19
ENDBRANCH   5   9
BRANCH   6  25
ATOM     25  N   UNL     1      -0.783  10.355  19.175  0.00  0.00    +0.000 N 
ATOM     26  C   UNL     1      -1.456   9.257  18.483  0.00  0.00    +0.000 C 
ATOM     27  C   UNL     1      -2.797   9.744  17.938  0.00  0.00    +0.000 C 
ATOM     28  C   UNL     1      -2.642  10.977  17.075  0.00  0.00    +0.000 C 
ATOM     29  C   UNL     1      -1.788  12.073  17.699  0.00  0.00    +0.000 C 
ATOM     30  C   UNL     1      -0.506  11.533  18.355  0.00  0.00    +0.000 C 
ATOM     31  C   UNL     1      -2.692  10.828  15.567  0.00  0.00    +0.000 C 
ATOM     32  C   UNL     1      -3.869  11.408  16.297  0.00  0.00    +0.000 C 
ENDBRANCH   6  25
BRANCH   1  34
ATOM     33  C   UNL     1      -3.499  12.668  22.171  0.00  0.00    +0.000 C 
ATOM     34  C   UNL     1      -2.336  13.503  22.765  0.00  0.00    +0.000 C 
ATOM     35  C   UNL     1      -1.665  14.262  21.606  0.00  0.00    +0.000 C 
BRANCH  34  36
ATOM     36  C   UNL     1      -2.952  14.473  23.810  0.00  0.00    +0.000 C 
BRANCH  36  37
ATOM     37  O   UNL     1      -4.186  15.046  23.355  0.00  0.00    +0.000 OA
ATOM     38  H   UNL     1      -4.442  15.709  24.021  0.00  0.00    +0.000 HD
ENDBRANCH  36  37
ENDBRANCH  34  36
ENDBRANCH   1  34
TORSDOF 6
ENDMDL
MODEL 5
REMARK VINA RESULT:      -7.8      1.862      2.811
REMARK  Name = 
REMARK  8 active torsions:
REMARK  status: ('A' for Active; 'I' for Inactive)
REMARK    1  A    between atoms: C_1  and  C_2
REMARK    2  A    between atoms: C_2  and  C_3
REMARK    3  A    between atoms: C_2  and  C_4
REMARK    4  A    between atoms: C_2  and  N_6
REMARK    5  A    between atoms: C_4  and  O_5
REMARK    6  A    between atoms: C_10  and  C_11
REMARK    7  A    between atoms: C_18  and  C_19
REMARK    8  A    between atoms: C_26  and  N_27
REMARK                            x       y       z     vdW  Elec       q    Type
REMARK                         _______ _______ _______ _____ _____    ______ ____
ROOT
ATOM      1  N   UNL     1      -1.822  13.367  22.839  0.00  0.00    +0.000 N 
ATOM      2  C   UNL     1      -1.439  12.110  22.347  0.00  0.00    +0.000 A 
ATOM      3  C   UNL     1      -0.969  11.171  23.259  0.00  0.00    +0.000 A 
ATOM      4  C   UNL     1      -0.401   9.986  22.801  0.00  0.00    +0.000 A 
ATOM      5  C   UNL     1      -0.308   9.758  21.424  0.00  0.00    +0.000 A 
ATOM      6  C   UNL     1      -0.899  10.685  20.540  0.00  0.00    +0.000 A 
ATOM      7  N   UNL     1      -1.424  11.847  21.027  0.00  0.00    +0.000 NA
ATOM      8  H   UNL     1      -2.184  13.266  23.782  0.00  0.00    +0.000 HD
ENDROOT
BRANCH   5   9
ATOM      9  C   UNL     1       0.602   8.674  20.932  0.00  0.00    +0.000 C 
ATOM     10  O   UNL     1       0.659   7.632  21.573  0.00  0.00    +0.000 OA
ATOM     11  N   UNL     1       1.319   8.936  19.771  0.00  0.00    +0.000 N 
ATOM     12  C   UNL     1       2.109   7.968  19.113  0.00  0.00    +0.000 A 
ATOM     13  C   UNL     1       2.890   8.364  18.029  0.00  0.00    +0.000 A 
ATOM     14  C   UNL     1       3.642   7.410  17.363  0.00  0.00    +0.000 A 
ATOM     15  C   UNL     1       3.598   6.081  17.781  0.00  0.00    +0.000 A 
ATOM     16  C   UNL     1       2.808   5.758  18.880  0.00  0.00    +0.000 A 
ATOM     17  N   UNL     1       2.074   6.689  19.525  0.00  0.00    +0.000 NA
ATOM     18  H   UNL     1       1.304   9.862  19.367  0.00  0.00    +0.000 HD
BRANCH  16  19
ATOM     19  C   UNL     1       2.708   4.340  19.407  0.00  0.00    +0.000 C 
ATOM     20  C   UNL     1       1.972   4.286  20.753  0.00  0.00    +0.000 C 
ATOM     21  C   UNL     1       2.052   2.899  21.372  0.00  0.00    +0.000 C 
ATOM     22  O   UNL     1       3.409   2.474  21.474  0.00  0.00    +0.000 OA
ATOM     23  C   UNL     1       4.019   2.335  20.191  0.00  0.00    +0.000 C 
ATOM     24  C   UNL     1       4.091   3.681  19.488  0.00  0.00    +0.000 C 
ENDBRANCH  16  19
ENDBRANCH   5   9
BRANCH   6  25
ATOM     25  N   UNL     1      -1.053  10.471  19.186  0.00  0.00    +0.000 N 
ATOM     26  C   UNL     1      -1.796   9.329  18.654  0.00  0.00    +0.000 C 
ATOM     27  C   UNL     1      -3.039   9.827  17.922  0.00  0.00    +0.000 C 
ATOM     28  C   UNL     1      -2.699  10.852  16.862  0.00  0.00    +0.000 C 
ATOM     29  C   UNL     1      -1.773  11.963  17.343  0.00  0.00    +0.000 C 
ATOM     30  C   UNL     1      -0.600  11.439  18.188  0.00  0.00    +0.000 C 
ATOM     31  C   UNL     1      -2.671  10.424  15.409  0.00  0.00    +0.000 C 
ATOM     32  C   UNL     1      -3.821  11.241  15.921  0.00  0.00    +0.000 C 
ENDBRANCH   6  25
BRANCH   1  34
ATOM     33  C   UNL     1      -3.175  15.375  23.004  0.00  0.00    +0.000 C 
ATOM     34  C   UNL     1      -2.711  14.251  22.044  0.00  0.00    +0.000 C 
ATOM     35  C   UNL     1      -3.957  13.457  21.616  0.00  0.00    +0.000 C 
BRANCH  34  36
ATOM     36  C   UNL     1      -2.018  14.935  20.835  0.00  0.00    +0.000 C 
BRANCH  36  37
ATOM     37  O   UNL     1      -0.588  14.929  20.955  0.00  0.00    +0.000 OA
ATOM     38  H   UNL     1      -0.301  15.855  20.869  0.00  0.00    +0.000 HD
ENDBRANCH  36  37
ENDBRANCH  34  36
ENDBRANCH   1  34
TORSDOF 6
ENDMDL
MODEL 6
REMARK VINA RESULT:      -7.4      0.841      1.078
REMARK  Name = 
REMARK  8 active torsions:
REMARK  status: ('A' for Active; 'I' for Inactive)
REMARK    1  A    between atoms: C_1  and  C_2
REMARK    2  A    between atoms: C_2  and  C_3
REMARK    3  A    between atoms: C_2  and  C_4
REMARK    4  A    between atoms: C_2  and  N_6
REMARK    5  A    between atoms: C_4  and  O_5
REMARK    6  A    between atoms: C_10  and  C_11
REMARK    7  A    between atoms: C_18  and  C_19
REMARK    8  A    between atoms: C_26  and  N_27
REMARK                            x       y       z     vdW  Elec       q    Type
REMARK                         _______ _______ _______ _____ _____    ______ ____
ROOT
ATOM      1  N   UNL     1      -1.157  12.546  23.213  0.00  0.00    +0.000 N 
ATOM      2  C   UNL     1      -0.850  11.368  22.515  0.00  0.00    +0.000 A 
ATOM      3  C   UNL     1      -0.347  10.295  23.240  0.00  0.00    +0.000 A 
ATOM      4  C   UNL     1       0.150   9.180  22.572  0.00  0.00    +0.000 A 
ATOM      5  C   UNL     1       0.138   9.158  21.173  0.00  0.00    +0.000 A 
ATOM      6  C   UNL     1      -0.484  10.218  20.482  0.00  0.00    +0.000 A 
ATOM      7  N   UNL     1      -0.936  11.306  21.173  0.00  0.00    +0.000 NA
ATOM      8  H   UNL     1      -1.454  12.313  24.156  0.00  0.00    +0.000 HD
ENDROOT
BRANCH   5   9
ATOM      9  C   UNL     1       0.976   8.141  20.461  0.00  0.00    +0.000 C 
ATOM     10  O   UNL     1       1.684   8.521  19.536  0.00  0.00    +0.000 OA
ATOM     11  N   UNL     1       0.887   6.829  20.910  0.00  0.00    +0.000 N 
ATOM     12  C   UNL     1       1.712   5.788  20.431  0.00  0.00    +0.000 A 
ATOM     13  C   UNL     1       1.459   4.484  20.851  0.00  0.00    +0.000 A 
ATOM     14  C   UNL     1       2.287   3.465  20.407  0.00  0.00    +0.000 A 
ATOM     15  C   UNL     1       3.354   3.762  19.561  0.00  0.00    +0.000 A 
ATOM     16  C   UNL     1       3.541   5.085  19.170  0.00  0.00    +0.000 A 
ATOM     17  N   UNL     1       2.735   6.075  19.606  0.00  0.00    +0.000 NA
ATOM     18  H   UNL     1       0.194   6.578  21.601  0.00  0.00    +0.000 HD
BRANCH  16  19
ATOM     19  C   UNL     1       4.671   5.496  18.246  0.00  0.00    +0.000 C 
ATOM     20  C   UNL     1       6.014   5.555  18.986  0.00  0.00    +0.000 C 
ATOM     21  C   UNL     1       7.101   6.159  18.110  0.00  0.00    +0.000 C 
ATOM     22  O   UNL     1       6.693   7.433  17.615  0.00  0.00    +0.000 OA
ATOM     23  C   UNL     1       5.555   7.330  16.761  0.00  0.00    +0.000 C 
ATOM     24  C   UNL     1       4.353   6.819  17.537  0.00  0.00    +0.000 C 
ENDBRANCH  16  19
ENDBRANCH   5   9
BRANCH   6  25
ATOM     25  N   UNL     1      -0.740  10.212  19.126  0.00  0.00    +0.000 N 
ATOM     26  C   UNL     1      -1.487   9.136  18.476  0.00  0.00    +0.000 C 
ATOM     27  C   UNL     1      -2.801   9.689  17.928  0.00  0.00    +0.000 C 
ATOM     28  C   UNL     1      -2.579  10.880  17.022  0.00  0.00    +0.000 C 
ATOM     29  C   UNL     1      -1.651  11.941  17.603  0.00  0.00    +0.000 C 
ATOM     30  C   UNL     1      -0.399  11.343  18.265  0.00  0.00    +0.000 C 
ATOM     31  C   UNL     1      -2.654  10.686  15.521  0.00  0.00    +0.000 C 
ATOM     32  C   UNL     1      -3.784  11.362  16.241  0.00  0.00    +0.000 C 
ENDBRANCH   6  25
BRANCH   1  34
ATOM     33  C   UNL     1      -2.205  14.685  23.680  0.00  0.00    +0.000 C 
ATOM     34  C   UNL     1      -2.071  13.557  22.626  0.00  0.00    +0.000 C 
ATOM     35  C   UNL     1      -3.462  12.927  22.435  0.00  0.00    +0.000 C 
BRANCH  34  36
ATOM     36  C   UNL     1      -1.548  14.209  21.318  0.00  0.00    +0.000 C 
BRANCH  36  37
ATOM     37  O   UNL     1      -0.813  15.415  21.570  0.00  0.00    +0.000 OA
ATOM     38  H   UNL     1      -0.600  15.414  22.520  0.00  0.00    +0.000 HD
ENDBRANCH  36  37
ENDBRANCH  34  36
ENDBRANCH   1  34
TORSDOF 6
ENDMDL
MODEL 7
REMARK VINA RESULT:      -7.1      5.313      9.556
REMARK  Name = 
REMARK  8 active torsions:
REMARK  status: ('A' for Active; 'I' for Inactive)
REMARK    1  A    between atoms: C_1  and  C_2
REMARK    2  A    between atoms: C_2  and  C_3
REMARK    3  A    between atoms: C_2  and  C_4
REMARK    4  A    between atoms: C_2  and  N_6
REMARK    5  A    between atoms: C_4  and  O_5
REMARK    6  A    between atoms: C_10  and  C_11
REMARK    7  A    between atoms: C_18  and  C_19
REMARK    8  A    between atoms: C_26  and  N_27
REMARK                            x       y       z     vdW  Elec       q    Type
REMARK                         _______ _______ _______ _____ _____    ______ ____
ROOT
ATOM      1  N   UNL     1       3.667  13.677  17.981  0.00  0.00    +0.000 N 
ATOM      2  C   UNL     1       2.492  13.371  18.684  0.00  0.00    +0.000 A 
ATOM      3  C   UNL     1       2.024  12.063  18.632  0.00  0.00    +0.000 A 
ATOM      4  C   UNL     1       0.770  11.756  19.150  0.00  0.00    +0.000 A 
ATOM      5  C   UNL     1      -0.006  12.773  19.716  0.00  0.00    +0.000 A 
ATOM      6  C   UNL     1       0.554  14.060  19.849  0.00  0.00    +0.000 A 
ATOM      7  N   UNL     1       1.777  14.328  19.305  0.00  0.00    +0.000 NA
ATOM      8  H   UNL     1       4.272  12.861  17.961  0.00  0.00    +0.000 HD
ENDROOT
BRANCH   5   9
ATOM      9  C   UNL     1      -1.465  12.524  19.946  0.00  0.00    +0.000 C 
ATOM     10  O   UNL     1      -1.886  12.575  21.095  0.00  0.00    +0.000 OA
ATOM     11  N   UNL     1      -2.240  12.253  18.825  0.00  0.00    +0.000 N 
ATOM     12  C   UNL     1      -3.646  12.132  18.865  0.00  0.00    +0.000 A 
ATOM     13  C   UNL     1      -4.319  11.733  17.712  0.00  0.00    +0.000 A 
ATOM     14  C   UNL     1      -5.701  11.644  17.741  0.00  0.00    +0.000 A 
ATOM     15  C   UNL     1      -6.389  11.959  18.911  0.00  0.00    +0.000 A 
ATOM     16  C   UNL     1      -5.653  12.337  20.030  0.00  0.00    +0.000 A 
ATOM     17  N   UNL     1      -4.308  12.426  19.998  0.00  0.00    +0.000 NA
ATOM     18  H   UNL     1      -1.798  12.114  17.927  0.00  0.00    +0.000 HD
BRANCH  16  19
ATOM     19  C   UNL     1      -6.319  12.690  21.347  0.00  0.00    +0.000 C 
ATOM     20  C   UNL     1      -5.290  12.885  22.468  0.00  0.00    +0.000 C 
ATOM     21  C   UNL     1      -5.968  13.038  23.820  0.00  0.00    +0.000 C 
ATOM     22  O   UNL     1      -6.844  11.940  24.067  0.00  0.00    +0.000 OA
ATOM     23  C   UNL     1      -7.916  11.896  23.127  0.00  0.00    +0.000 C 
ATOM     24  C   UNL     1      -7.383  11.651  21.724  0.00  0.00    +0.000 C 
ENDBRANCH  16  19
ENDBRANCH   5   9
BRANCH   6  25
ATOM     25  N   UNL     1      -0.027  15.085  20.569  0.00  0.00    +0.000 N 
ATOM     26  C   UNL     1      -1.001  16.001  19.978  0.00  0.00    +0.000 C 
ATOM     27  C   UNL     1      -2.356  15.809  20.654  0.00  0.00    +0.000 C 
ATOM     28  C   UNL     1      -2.262  15.942  22.158  0.00  0.00    +0.000 C 
ATOM     29  C   UNL     1      -1.132  15.134  22.786  0.00  0.00    +0.000 C 
ATOM     30  C   UNL     1       0.188  15.246  22.006  0.00  0.00    +0.000 C 
ATOM     31  C   UNL     1      -2.720  17.230  22.812  0.00  0.00    +0.000 C 
ATOM     32  C   UNL     1      -3.576  16.001  22.910  0.00  0.00    +0.000 C 
ENDBRANCH   6  25
BRANCH   1  34
ATOM     33  C   UNL     1       3.819  16.054  17.519  0.00  0.00    +0.000 C 
ATOM     34  C   UNL     1       4.456  14.888  18.316  0.00  0.00    +0.000 C 
ATOM     35  C   UNL     1       5.897  14.706  17.807  0.00  0.00    +0.000 C 
BRANCH  34  36
ATOM     36  C   UNL     1       4.419  15.281  19.817  0.00  0.00    +0.000 C 
BRANCH  36  37
ATOM     37  O   UNL     1       3.739  16.526  20.035  0.00  0.00    +0.000 OA
ATOM     38  H   UNL     1       3.760  17.002  19.186  0.00  0.00    +0.000 HD
ENDBRANCH  36  37
ENDBRANCH  34  36
ENDBRANCH   1  34
TORSDOF 6
ENDMDL
MODEL 8
REMARK VINA RESULT:      -7.0      2.659      3.390
REMARK  Name = 
REMARK  8 active torsions:
REMARK  status: ('A' for Active; 'I' for Inactive)
REMARK    1  A    between atoms: C_1  and  C_2
REMARK    2  A    between atoms: C_2  and  C_3
REMARK    3  A    between atoms: C_2  and  C_4
REMARK    4  A    between atoms: C_2  and  N_6
REMARK    5  A    between atoms: C_4  and  O_5
REMARK    6  A    between atoms: C_10  and  C_11
REMARK    7  A    between atoms: C_18  and  C_19
REMARK    8  A    between atoms: C_26  and  N_27
REMARK                            x       y       z     vdW  Elec       q    Type
REMARK                         _______ _______ _______ _____ _____    ______ ____
ROOT
ATOM      1  N   UNL     1       1.044  15.949  18.963  0.00  0.00    +0.000 N 
ATOM      2  C   UNL     1       1.100  14.563  19.183  0.00  0.00    +0.000 A 
ATOM      3  C   UNL     1       2.335  14.003  19.488  0.00  0.00    +0.000 A 
ATOM      4  C   UNL     1       2.477  12.620  19.527  0.00  0.00    +0.000 A 
ATOM      5  C   UNL     1       1.370  11.809  19.252  0.00  0.00    +0.000 A 
ATOM      6  C   UNL     1       0.113  12.420  19.060  0.00  0.00    +0.000 A 
ATOM      7  N   UNL     1       0.020  13.780  19.005  0.00  0.00    +0.000 NA
ATOM      8  H   UNL     1       1.749  16.410  19.529  0.00  0.00    +0.000 HD
ENDROOT
BRANCH   5   9
ATOM      9  C   UNL     1       1.594  10.360  18.949  0.00  0.00    +0.000 C 
ATOM     10  O   UNL     1       1.964  10.057  17.821  0.00  0.00    +0.000 OA
ATOM     11  N   UNL     1       1.364   9.460  19.982  0.00  0.00    +0.000 N 
ATOM     12  C   UNL     1       1.661   8.082  19.890  0.00  0.00    +0.000 A 
ATOM     13  C   UNL     1       1.276   7.242  20.933  0.00  0.00    +0.000 A 
ATOM     14  C   UNL     1       1.594   5.896  20.858  0.00  0.00    +0.000 A 
ATOM     15  C   UNL     1       2.293   5.411  19.755  0.00  0.00    +0.000 A 
ATOM     16  C   UNL     1       2.635   6.303  18.743  0.00  0.00    +0.000 A 
ATOM     17  N   UNL     1       2.327   7.614  18.820  0.00  0.00    +0.000 NA
ATOM     18  H   UNL     1       0.949   9.779  20.846  0.00  0.00    +0.000 HD
BRANCH  16  19
ATOM     19  C   UNL     1       3.389   5.861  17.504  0.00  0.00    +0.000 C 
ATOM     20  C   UNL     1       3.879   4.411  17.626  0.00  0.00    +0.000 C 
ATOM     21  C   UNL     1       4.802   4.041  16.476  0.00  0.00    +0.000 C 
ATOM     22  O   UNL     1       5.876   4.975  16.376  0.00  0.00    +0.000 OA
ATOM     23  C   UNL     1       5.410   6.286  16.059  0.00  0.00    +0.000 C 
ATOM     24  C   UNL     1       4.538   6.825  17.182  0.00  0.00    +0.000 C 
ENDBRANCH  16  19
ENDBRANCH   5   9
BRANCH   6  25
ATOM     25  N   UNL     1      -1.079  11.727  18.988  0.00  0.00    +0.000 N 
ATOM     26  C   UNL     1      -2.137  11.887  19.984  0.00  0.00    +0.000 C 
ATOM     27  C   UNL     1      -3.365  12.512  19.326  0.00  0.00    +0.000 C 
ATOM     28  C   UNL     1      -3.815  11.732  18.110  0.00  0.00    +0.000 C 
ATOM     29  C   UNL     1      -2.692  11.391  17.137  0.00  0.00    +0.000 C 
ATOM     30  C   UNL     1      -1.422  10.886  17.842  0.00  0.00    +0.000 C 
ATOM     31  C   UNL     1      -5.013  10.812  18.231  0.00  0.00    +0.000 C 
ATOM     32  C   UNL     1      -5.153  12.126  17.519  0.00  0.00    +0.000 C 
ENDBRANCH   6  25
BRANCH   1  34
ATOM     33  C   UNL     1       0.017  17.903  19.970  0.00  0.00    +0.000 C 
ATOM     34  C   UNL     1      -0.245  16.678  19.058  0.00  0.00    +0.000 C 
ATOM     35  C   UNL     1      -1.278  15.782  19.764  0.00  0.00    +0.000 C 
BRANCH  34  36
ATOM     36  C   UNL     1      -0.777  17.217  17.704  0.00  0.00    +0.000 C 
BRANCH  36  37
ATOM     37  O   UNL     1       0.110  18.180  17.117  0.00  0.00    +0.000 OA
ATOM     38  H   UNL     1       0.667  17.692  16.486  0.00  0.00    +0.000 HD
ENDBRANCH  36  37
ENDBRANCH  34  36
ENDBRANCH   1  34
TORSDOF 6
ENDMDL
MODEL 9
REMARK VINA RESULT:      -7.0      2.608      3.538
REMARK  Name = 
REMARK  8 active torsions:
REMARK  status: ('A' for Active; 'I' for Inactive)
REMARK    1  A    between atoms: C_1  and  C_2
REMARK    2  A    between atoms: C_2  and  C_3
REMARK    3  A    between atoms: C_2  and  C_4
REMARK    4  A    between atoms: C_2  and  N_6
REMARK    5  A    between atoms: C_4  and  O_5
REMARK    6  A    between atoms: C_10  and  C_11
REMARK    7  A    between atoms: C_18  and  C_19
REMARK    8  A    between atoms: C_26  and  N_27
REMARK                            x       y       z     vdW  Elec       q    Type
REMARK                         _______ _______ _______ _____ _____    ______ ____
ROOT
ATOM      1  N   UNL     1       1.065  16.082  18.714  0.00  0.00    +0.000 N 
ATOM      2  C   UNL     1       1.153  14.705  18.970  0.00  0.00    +0.000 A 
ATOM      3  C   UNL     1       2.418  14.157  19.150  0.00  0.00    +0.000 A 
ATOM      4  C   UNL     1       2.571  12.776  19.216  0.00  0.00    +0.000 A 
ATOM      5  C   UNL     1       1.444  11.955  19.096  0.00  0.00    +0.000 A 
ATOM      6  C   UNL     1       0.170  12.557  19.029  0.00  0.00    +0.000 A 
ATOM      7  N   UNL     1       0.064  13.915  18.941  0.00  0.00    +0.000 NA
ATOM      8  H   UNL     1       1.827  16.563  19.181  0.00  0.00    +0.000 HD
ENDROOT
BRANCH   5   9
ATOM      9  C   UNL     1       1.640  10.497  18.815  0.00  0.00    +0.000 C 
ATOM     10  O   UNL     1       2.010  10.169  17.695  0.00  0.00    +0.000 OA
ATOM     11  N   UNL     1       1.386   9.617  19.861  0.00  0.00    +0.000 N 
ATOM     12  C   UNL     1       1.655   8.233  19.791  0.00  0.00    +0.000 A 
ATOM     13  C   UNL     1       1.247   7.416  20.843  0.00  0.00    +0.000 A 
ATOM     14  C   UNL     1       1.537   6.063  20.791  0.00  0.00    +0.000 A 
ATOM     15  C   UNL     1       2.232   5.547  19.699  0.00  0.00    +0.000 A 
ATOM     16  C   UNL     1       2.598   6.417  18.676  0.00  0.00    +0.000 A 
ATOM     17  N   UNL     1       2.317   7.735  18.731  0.00  0.00    +0.000 NA
ATOM     18  H   UNL     1       0.973   9.958  20.717  0.00  0.00    +0.000 HD
BRANCH  16  19
ATOM     19  C   UNL     1       3.349   5.941  17.448  0.00  0.00    +0.000 C 
ATOM     20  C   UNL     1       3.816   4.486  17.597  0.00  0.00    +0.000 C 
ATOM     21  C   UNL     1       4.736   4.081  16.458  0.00  0.00    +0.000 C 
ATOM     22  O   UNL     1       5.826   4.995  16.346  0.00  0.00    +0.000 OA
ATOM     23  C   UNL     1       5.383   6.308  16.004  0.00  0.00    +0.000 C 
ATOM     24  C   UNL     1       4.515   6.881  17.114  0.00  0.00    +0.000 C 
ENDBRANCH  16  19
ENDBRANCH   5   9
BRANCH   6  25
ATOM     25  N   UNL     1      -1.018  11.860  19.116  0.00  0.00    +0.000 N 
ATOM     26  C   UNL     1      -1.941  12.024  20.239  0.00  0.00    +0.000 C 
ATOM     27  C   UNL     1      -3.245  12.641  19.739  0.00  0.00    +0.000 C 
ATOM     28  C   UNL     1      -3.844  11.851  18.597  0.00  0.00    +0.000 C 
ATOM     29  C   UNL     1      -2.855  11.506  17.490  0.00  0.00    +0.000 C 
ATOM     30  C   UNL     1      -1.503  11.010  18.030  0.00  0.00    +0.000 C 
ATOM     31  C   UNL     1      -5.013  10.928  18.877  0.00  0.00    +0.000 C 
ATOM     32  C   UNL     1      -5.249  12.236  18.180  0.00  0.00    +0.000 C 
ENDBRANCH   6  25
BRANCH   1  34
ATOM     33  C   UNL     1      -0.643  17.352  17.547  0.00  0.00    +0.000 C 
ATOM     34  C   UNL     1      -0.209  16.812  18.933  0.00  0.00    +0.000 C 
ATOM     35  C   UNL     1       0.056  18.023  19.844  0.00  0.00    +0.000 C 
BRANCH  34  36
ATOM     36  C   UNL     1      -1.369  15.930  19.467  0.00  0.00    +0.000 C 
BRANCH  36  37
ATOM     37  O   UNL     1      -1.428  15.923  20.901  0.00  0.00    +0.000 OA
ATOM     38  H   UNL     1      -0.521  15.756  21.212  0.00  0.00    +0.000 HD
ENDBRANCH  36  37
ENDBRANCH  34  36
ENDBRANCH   1  34
TORSDOF 6
ENDMDL
