MODEL 1
REMARK VINA RESULT:      -7.7      0.000      0.000
REMARK  Name = 
REMARK  6 active torsions:
REMARK  status: ('A' for Active; 'I' for Inactive)
REMARK    1  A    between atoms: N_1  and  C_2
REMARK    2  A    between atoms: C_2  and  C_3
REMARK    3  A    between atoms: C_3  and  C_4
REMARK    4  A    between atoms: C_4  and  N_5
REMARK    5  A    between atoms: C_8  and  C_9
REMARK    6  A    between atoms: C_10  and  C_11
REMARK                            x       y       z     vdW  Elec       q    Type
REMARK                         _______ _______ _______ _____ _____    ______ ____
ROOT
ATOM      1  C   UNL     1       8.573   8.282  18.528  0.00  0.00    +0.000 C 
ATOM      2  C   UNL     1       8.573   9.640  18.239  0.00  0.00    +0.000 C 
ENDROOT
BRANCH   2   3
ATOM      3  C   UNL     1       9.479  10.581  19.069  0.00  0.00    +0.000 A 
ATOM      4  C   UNL     1       9.378  10.636  20.468  0.00  0.00    +0.000 A 
ATOM      5  N   UNL     1       9.977  11.723  20.961  0.00  0.00    +0.000 N 
ATOM      6  C   UNL     1      10.509  12.373  19.936  0.00  0.00    +0.000 A 
ATOM      7  C   UNL     1      11.083  13.630  20.033  0.00  0.00    +0.000 A 
ATOM      8  C   UNL     1      11.643  14.197  18.896  0.00  0.00    +0.000 A 
ATOM      9  C   UNL     1      11.674  13.466  17.693  0.00  0.00    +0.000 A 
ATOM     10  F   UNL     1      12.327  14.010  16.633  0.00  0.00    +0.000 F 
ATOM     11  C   UNL     1      11.010  12.203  17.588  0.00  0.00    +0.000 A 
ATOM     12  C   UNL     1      10.362  11.673  18.742  0.00  0.00    +0.000 A 
ATOM     13  H   UNL     1       9.978  12.011  21.961  0.00  0.00    +0.000 HD
ENDBRANCH   2   3
BRANCH   1  17
ATOM     14  N   UNL     1       5.917   5.081  17.270  0.00  0.00    +0.000 N 
ATOM     15  C   UNL     1       6.938   4.786  18.128  0.00  0.00    +0.000 A 
ATOM     16  C   UNL     1       7.815   5.795  18.596  0.00  0.00    +0.000 A 
ATOM     17  C   UNL     1       7.651   7.121  18.166  0.00  0.00    +0.000 A 
ATOM     18  C   UNL     1       6.597   7.376  17.261  0.00  0.00    +0.000 A 
ATOM     19  C   UNL     1       5.749   6.355  16.824  0.00  0.00    +0.000 A 
BRANCH  14  20
ATOM     20  C   UNL     1       5.020   3.989  16.733  0.00  0.00    +0.000 C 
BRANCH  20  21
ATOM     21  C   UNL     1       3.588   4.094  17.276  0.00  0.00    +0.000 C 
BRANCH  21  22
ATOM     22  C   UNL     1       2.994   2.734  17.670  0.00  0.00    +0.000 C 
BRANCH  22  23
ATOM     23  N   UNL     1       4.045   1.783  18.023  0.00  0.00    +0.000 NA
ATOM     24  H   UNL     1       4.598   2.186  18.815  0.00  0.00    +0.000 HD
ATOM     25  H   UNL     1       4.696   1.675  17.211  0.00  0.00    +0.000 HD
ENDBRANCH  22  23
ENDBRANCH  21  22
ENDBRANCH  20  21
ENDBRANCH  14  20
ENDBRANCH   1  17
TORSDOF 6
ENDMDL
MODEL 2
REMARK VINA RESULT:      -7.5      6.740      8.758
REMARK  Name = 
REMARK  6 active torsions:
REMARK  status: ('A' for Active; 'I' for Inactive)
REMARK    1  A    between atoms: N_1  and  C_2
REMARK    2  A    between atoms: C_2  and  C_3
REMARK    3  A    between atoms: C_3  and  C_4
REMARK    4  A    between atoms: C_4  and  N_5
REMARK    5  A    between atoms: C_8  and  C_9
REMARK    6  A    between atoms: C_10  and  C_11
REMARK                            x       y       z     vdW  Elec       q    Type
REMARK                         _______ _______ _______ _____ _____    ______ ____
ROOT
ATOM      1  C   UNL     1       2.007   7.999  18.708  0.00  0.00    +0.000 C 
ATOM      2  C   UNL     1       1.578   9.266  18.336  0.00  0.00    +0.000 C 
ENDROOT
BRANCH   2   3
ATOM      3  C   UNL     1       0.399   9.912  19.102  0.00  0.00    +0.000 A 
ATOM      4  C   UNL     1      -0.456  10.832  18.474  0.00  0.00    +0.000 A 
ATOM      5  N   UNL     1      -1.174  11.520  19.364  0.00  0.00    +0.000 N 
ATOM      6  C   UNL     1      -0.854  11.059  20.564  0.00  0.00    +0.000 A 
ATOM      7  C   UNL     1      -1.281  11.631  21.751  0.00  0.00    +0.000 A 
ATOM      8  C   UNL     1      -0.911  11.037  22.950  0.00  0.00    +0.000 A 
ATOM      9  C   UNL     1      -0.170   9.840  22.937  0.00  0.00    +0.000 A 
ATOM     10  F   UNL     1       0.078   9.231  24.125  0.00  0.00    +0.000 F 
ATOM     11  C   UNL     1       0.330   9.303  21.708  0.00  0.00    +0.000 A 
ATOM     12  C   UNL     1       0.015   9.975  20.491  0.00  0.00    +0.000 A 
ATOM     13  H   UNL     1      -1.827  12.299  19.140  0.00  0.00    +0.000 HD
ENDBRANCH   2   3
BRANCH   1  17
ATOM     14  N   UNL     1       4.723   5.135  16.891  0.00  0.00    +0.000 N 
ATOM     15  C   UNL     1       3.599   4.669  17.512  0.00  0.00    +0.000 A 
ATOM     16  C   UNL     1       2.662   5.559  18.094  0.00  0.00    +0.000 A 
ATOM     17  C   UNL     1       2.890   6.942  18.050  0.00  0.00    +0.000 A 
ATOM     18  C   UNL     1       4.076   7.378  17.418  0.00  0.00    +0.000 A 
ATOM     19  C   UNL     1       4.975   6.471  16.852  0.00  0.00    +0.000 A 
BRANCH  14  20
ATOM     20  C   UNL     1       5.743   4.176  16.321  0.00  0.00    +0.000 C 
BRANCH  20  21
ATOM     21  C   UNL     1       5.577   3.983  14.807  0.00  0.00    +0.000 C 
BRANCH  21  22
ATOM     22  C   UNL     1       6.764   4.525  13.998  0.00  0.00    +0.000 C 
BRANCH  22  23
ATOM     23  N   UNL     1       7.656   5.318  14.841  0.00  0.00    +0.000 NA
ATOM     24  H   UNL     1       8.643   5.070  14.597  0.00  0.00    +0.000 HD
ATOM     25  H   UNL     1       7.506   5.055  15.842  0.00  0.00    +0.000 HD
ENDBRANCH  22  23
ENDBRANCH  21  22
ENDBRANCH  20  21
ENDBRANCH  14  20
ENDBRANCH   1  17
TORSDOF 6
ENDMDL
MODEL 3
REMARK VINA RESULT:      -7.4      1.014      1.444
REMARK  Name = 
REMARK  6 active torsions:
REMARK  status: ('A' for Active; 'I' for Inactive)
REMARK    1  A    between atoms: N_1  and  C_2
REMARK    2  A    between atoms: C_2  and  C_3
REMARK    3  A    between atoms: C_3  and  C_4
REMARK    4  A    between atoms: C_4  and  N_5
REMARK    5  A    between atoms: C_8  and  C_9
REMARK    6  A    between atoms: C_10  and  C_11
REMARK                            x       y       z     vdW  Elec       q    Type
REMARK                         _______ _______ _______ _____ _____    ______ ____
ROOT
ATOM      1  C   UNL     1       8.222   8.065  18.194  0.00  0.00    +0.000 C 
ATOM      2  C   UNL     1       8.282   9.437  17.994  0.00  0.00    +0.000 C 
ENDROOT
BRANCH   2   3
ATOM      3  C   UNL     1       9.236  10.281  18.872  0.00  0.00    +0.000 A 
ATOM      4  C   UNL     1       9.135  10.266  20.272  0.00  0.00    +0.000 A 
ATOM      5  N   UNL     1       9.791  11.290  20.822  0.00  0.00    +0.000 N 
ATOM      6  C   UNL     1      10.360  11.965  19.834  0.00  0.00    +0.000 A 
ATOM      7  C   UNL     1      11.002  13.181  19.998  0.00  0.00    +0.000 A 
ATOM      8  C   UNL     1      11.594  13.778  18.893  0.00  0.00    +0.000 A 
ATOM      9  C   UNL     1      11.588  13.112  17.652  0.00  0.00    +0.000 A 
ATOM     10  F   UNL     1      12.272  13.676  16.623  0.00  0.00    +0.000 F 
ATOM     11  C   UNL     1      10.856  11.895  17.480  0.00  0.00    +0.000 A 
ATOM     12  C   UNL     1      10.178  11.340  18.604  0.00  0.00    +0.000 A 
ATOM     13  H   UNL     1       9.807  11.523  21.837  0.00  0.00    +0.000 HD
ENDBRANCH   2   3
BRANCH   1  17
ATOM     14  N   UNL     1       5.476   4.844  17.211  0.00  0.00    +0.000 N 
ATOM     15  C   UNL     1       5.235   6.088  16.701  0.00  0.00    +0.000 A 
ATOM     16  C   UNL     1       6.114   7.169  16.962  0.00  0.00    +0.000 A 
ATOM     17  C   UNL     1       7.245   6.972  17.769  0.00  0.00    +0.000 A 
ATOM     18  C   UNL     1       7.442   5.675  18.294  0.00  0.00    +0.000 A 
ATOM     19  C   UNL     1       6.555   4.633  18.011  0.00  0.00    +0.000 A 
BRANCH  14  20
ATOM     20  C   UNL     1       4.504   3.711  16.972  0.00  0.00    +0.000 C 
BRANCH  20  21
ATOM     21  C   UNL     1       3.934   3.148  18.282  0.00  0.00    +0.000 C 
BRANCH  21  22
ATOM     22  C   UNL     1       2.782   3.991  18.847  0.00  0.00    +0.000 C 
BRANCH  22  23
ATOM     23  N   UNL     1       3.254   4.887  19.900  0.00  0.00    +0.000 NA
ATOM     24  H   UNL     1       3.886   5.598  19.465  0.00  0.00    +0.000 HD
ATOM     25  H   UNL     1       3.824   4.340  20.586  0.00  0.00    +0.000 HD
ENDBRANCH  22  23
ENDBRANCH  21  22
ENDBRANCH  20  21
ENDBRANCH  14  20
ENDBRANCH   1  17
TORSDOF 6
ENDMDL
MODEL 4
REMARK VINA RESULT:      -7.4      6.568      8.966
REMARK  Name = 
REMARK  6 active torsions:
REMARK  status: ('A' for Active; 'I' for Inactive)
REMARK    1  A    between atoms: N_1  and  C_2
REMARK    2  A    between atoms: C_2  and  C_3
REMARK    3  A    between atoms: C_3  and  C_4
REMARK    4  A    between atoms: C_4  and  N_5
REMARK    5  A    between atoms: C_8  and  C_9
REMARK    6  A    between atoms: C_10  and  C_11
REMARK                            x       y       z     vdW  Elec       q    Type
REMARK                         _______ _______ _______ _____ _____    ______ ____
ROOT
ATOM      1  C   UNL     1       4.184   6.745  17.500  0.00  0.00    +0.000 C 
ATOM      2  C   UNL     1       4.284   5.496  16.903  0.00  0.00    +0.000 C 
ENDROOT
BRANCH   2   3
ATOM      3  C   UNL     1       5.538   5.168  16.058  0.00  0.00    +0.000 A 
ATOM      4  C   UNL     1       6.794   5.700  16.389  0.00  0.00    +0.000 A 
ATOM      5  N   UNL     1       7.656   5.589  15.377  0.00  0.00    +0.000 N 
ATOM      6  C   UNL     1       7.025   4.962  14.394  0.00  0.00    +0.000 A 
ATOM      7  C   UNL     1       7.547   4.798  13.122  0.00  0.00    +0.000 A 
ATOM      8  C   UNL     1       6.808   4.090  12.184  0.00  0.00    +0.000 A 
ATOM      9  C   UNL     1       5.584   3.502  12.557  0.00  0.00    +0.000 A 
ATOM     10  F   UNL     1       4.945   2.726  11.644  0.00  0.00    +0.000 F 
ATOM     11  C   UNL     1       5.022   3.745  13.850  0.00  0.00    +0.000 A 
ATOM     12  C   UNL     1       5.752   4.549  14.773  0.00  0.00    +0.000 A 
ATOM     13  H   UNL     1       8.626   5.968  15.364  0.00  0.00    +0.000 HD
ENDBRANCH   2   3
BRANCH   1  17
ATOM     14  N   UNL     1       1.028   8.943  19.522  0.00  0.00    +0.000 N 
ATOM     15  C   UNL     1       1.410   9.346  18.274  0.00  0.00    +0.000 A 
ATOM     16  C   UNL     1       2.412   8.648  17.555  0.00  0.00    +0.000 A 
ATOM     17  C   UNL     1       3.038   7.532  18.130  0.00  0.00    +0.000 A 
ATOM     18  C   UNL     1       2.627   7.165  19.431  0.00  0.00    +0.000 A 
ATOM     19  C   UNL     1       1.633   7.876  20.108  0.00  0.00    +0.000 A 
BRANCH  14  20
ATOM     20  C   UNL     1      -0.003   9.726  20.303  0.00  0.00    +0.000 C 
BRANCH  20  21
ATOM     21  C   UNL     1       0.564  10.282  21.617  0.00  0.00    +0.000 C 
BRANCH  21  22
ATOM     22  C   UNL     1      -0.435  10.208  22.781  0.00  0.00    +0.000 C 
BRANCH  22  23
ATOM     23  N   UNL     1       0.166   9.570  23.950  0.00  0.00    +0.000 NA
ATOM     24  H   UNL     1       0.875   8.877  23.616  0.00  0.00    +0.000 HD
ATOM     25  H   UNL     1      -0.572   9.038  24.467  0.00  0.00    +0.000 HD
ENDBRANCH  22  23
ENDBRANCH  21  22
ENDBRANCH  20  21
ENDBRANCH  14  20
ENDBRANCH   1  17
TORSDOF 6
ENDMDL
MODEL 5
REMARK VINA RESULT:      -7.3      6.748      8.939
REMARK  Name = 
REMARK  6 active torsions:
REMARK  status: ('A' for Active; 'I' for Inactive)
REMARK    1  A    between atoms: N_1  and  C_2
REMARK    2  A    between atoms: C_2  and  C_3
REMARK    3  A    between atoms: C_3  and  C_4
REMARK    4  A    between atoms: C_4  and  N_5
REMARK    5  A    between atoms: C_8  and  C_9
REMARK    6  A    between atoms: C_10  and  C_11
REMARK                            x       y       z     vdW  Elec       q    Type
REMARK                         _______ _______ _______ _____ _____    ______ ____
ROOT
ATOM      1  C   UNL     1       4.441   6.409  17.496  0.00  0.00    +0.000 C 
ATOM      2  C   UNL     1       4.400   5.298  16.665  0.00  0.00    +0.000 C 
ENDROOT
BRANCH   2   3
ATOM      3  C   UNL     1       5.626   4.986  15.773  0.00  0.00    +0.000 A 
ATOM      4  C   UNL     1       6.892   5.516  16.069  0.00  0.00    +0.000 A 
ATOM      5  N   UNL     1       7.719   5.422  15.026  0.00  0.00    +0.000 N 
ATOM      6  C   UNL     1       7.056   4.808  14.056  0.00  0.00    +0.000 A 
ATOM      7  C   UNL     1       7.534   4.665  12.765  0.00  0.00    +0.000 A 
ATOM      8  C   UNL     1       6.765   3.970  11.841  0.00  0.00    +0.000 A 
ATOM      9  C   UNL     1       5.556   3.374  12.247  0.00  0.00    +0.000 A 
ATOM     10  F   UNL     1       4.887   2.611  11.344  0.00  0.00    +0.000 F 
ATOM     11  C   UNL     1       5.037   3.595  13.562  0.00  0.00    +0.000 A 
ATOM     12  C   UNL     1       5.797   4.387  14.472  0.00  0.00    +0.000 A 
ATOM     13  H   UNL     1       8.687   5.802  14.986  0.00  0.00    +0.000 HD
ENDBRANCH   2   3
BRANCH   1  17
ATOM     14  N   UNL     1       1.335   8.718  19.471  0.00  0.00    +0.000 N 
ATOM     15  C   UNL     1       1.793   7.583  20.077  0.00  0.00    +0.000 A 
ATOM     16  C   UNL     1       2.826   6.808  19.495  0.00  0.00    +0.000 A 
ATOM     17  C   UNL     1       3.386   7.196  18.268  0.00  0.00    +0.000 A 
ATOM     18  C   UNL     1       2.865   8.364  17.666  0.00  0.00    +0.000 A 
ATOM     19  C   UNL     1       1.847   9.104  18.272  0.00  0.00    +0.000 A 
BRANCH  14  20
ATOM     20  C   UNL     1       0.195   9.508  20.073  0.00  0.00    +0.000 C 
BRANCH  20  21
ATOM     21  C   UNL     1      -0.233   8.959  21.441  0.00  0.00    +0.000 C 
BRANCH  21  22
ATOM     22  C   UNL     1      -0.413  10.057  22.499  0.00  0.00    +0.000 C 
BRANCH  22  23
ATOM     23  N   UNL     1       0.258   9.700  23.747  0.00  0.00    +0.000 NA
ATOM     24  H   UNL     1       1.102   9.129  23.512  0.00  0.00    +0.000 HD
ATOM     25  H   UNL     1      -0.378   9.098  24.318  0.00  0.00    +0.000 HD
ENDBRANCH  22  23
ENDBRANCH  21  22
ENDBRANCH  20  21
ENDBRANCH  14  20
ENDBRANCH   1  17
TORSDOF 6
ENDMDL
MODEL 6
REMARK VINA RESULT:      -7.3      6.938      8.892
REMARK  Name = 
REMARK  6 active torsions:
REMARK  status: ('A' for Active; 'I' for Inactive)
REMARK    1  A    between atoms: N_1  and  C_2
REMARK    2  A    between atoms: C_2  and  C_3
REMARK    3  A    between atoms: C_3  and  C_4
REMARK    4  A    between atoms: C_4  and  N_5
REMARK    5  A    between atoms: C_8  and  C_9
REMARK    6  A    between atoms: C_10  and  C_11
REMARK                            x       y       z     vdW  Elec       q    Type
REMARK                         _______ _______ _______ _____ _____    ______ ____
ROOT
ATOM      1  C   UNL     1       1.850   8.435  18.725  0.00  0.00    +0.000 C 
ATOM      2  C   UNL     1       1.150   9.488  18.153  0.00  0.00    +0.000 C 
ENDROOT
BRANCH   2   3
ATOM      3  C   UNL     1       0.067  10.211  18.990  0.00  0.00    +0.000 A 
ATOM      4  C   UNL     1      -0.724  11.226  18.430  0.00  0.00    +0.000 A 
ATOM      5  N   UNL     1      -1.340  11.944  19.372  0.00  0.00    +0.000 N 
ATOM      6  C   UNL     1      -1.015  11.413  20.542  0.00  0.00    +0.000 A 
ATOM      7  C   UNL     1      -1.340  11.978  21.763  0.00  0.00    +0.000 A 
ATOM      8  C   UNL     1      -0.978  11.310  22.926  0.00  0.00    +0.000 A 
ATOM      9  C   UNL     1      -0.351  10.052  22.842  0.00  0.00    +0.000 A 
ATOM     10  F   UNL     1      -0.112   9.381  23.998  0.00  0.00    +0.000 F 
ATOM     11  C   UNL     1       0.047   9.517  21.576  0.00  0.00    +0.000 A 
ATOM     12  C   UNL     1      -0.253  10.258  20.396  0.00  0.00    +0.000 A 
ATOM     13  H   UNL     1      -1.927  12.786  19.202  0.00  0.00    +0.000 HD
ENDBRANCH   2   3
BRANCH   1  17
ATOM     14  N   UNL     1       4.170   5.131  17.119  0.00  0.00    +0.000 N 
ATOM     15  C   UNL     1       4.572   6.407  16.846  0.00  0.00    +0.000 A 
ATOM     16  C   UNL     1       3.872   7.523  17.369  0.00  0.00    +0.000 A 
ATOM     17  C   UNL     1       2.738   7.325  18.170  0.00  0.00    +0.000 A 
ATOM     18  C   UNL     1       2.345   5.989  18.408  0.00  0.00    +0.000 A 
ATOM     19  C   UNL     1       3.062   4.914  17.877  0.00  0.00    +0.000 A 
BRANCH  14  20
ATOM     20  C   UNL     1       4.890   3.949  16.512  0.00  0.00    +0.000 C 
BRANCH  20  21
ATOM     21  C   UNL     1       5.558   4.300  15.175  0.00  0.00    +0.000 C 
BRANCH  21  22
ATOM     22  C   UNL     1       7.089   4.369  15.269  0.00  0.00    +0.000 C 
BRANCH  22  23
ATOM     23  N   UNL     1       7.611   5.507  14.516  0.00  0.00    +0.000 NA
ATOM     24  H   UNL     1       8.656   5.469  14.549  0.00  0.00    +0.000 HD
ATOM     25  H   UNL     1       7.315   6.393  14.986  0.00  0.00    +0.000 HD
ENDBRANCH  22  23
ENDBRANCH  21  22
ENDBRANCH  20  21
ENDBRANCH  14  20
ENDBRANCH   1  17
TORSDOF 6
ENDMDL
MODEL 7
REMARK VINA RESULT:      -7.3      6.773      8.562
REMARK  Name = 
REMARK  6 active torsions:
REMARK  status: ('A' for Active; 'I' for Inactive)
REMARK    1  A    between atoms: N_1  and  C_2
REMARK    2  A    between atoms: C_2  and  C_3
REMARK    3  A    between atoms: C_3  and  C_4
REMARK    4  A    between atoms: C_4  and  N_5
REMARK    5  A    between atoms: C_8  and  C_9
REMARK    6  A    between atoms: C_10  and  C_11
REMARK                            x       y       z     vdW  Elec       q    Type
REMARK                         _______ _______ _______ _____ _____    ______ ____
ROOT
ATOM      1  C   UNL     1       2.505   7.438  18.428  0.00  0.00    +0.000 C 
ATOM      2  C   UNL     1       2.305   8.811  18.416  0.00  0.00    +0.000 C 
ENDROOT
BRANCH   2   3
ATOM      3  C   UNL     1       0.992   9.382  19.004  0.00  0.00    +0.000 A 
ATOM      4  C   UNL     1       0.094  10.107  18.205  0.00  0.00    +0.000 A 
ATOM      5  N   UNL     1      -0.779  10.792  18.946  0.00  0.00    +0.000 N 
ATOM      6  C   UNL     1      -0.517  10.513  20.215  0.00  0.00    +0.000 A 
ATOM      7  C   UNL     1      -1.117  11.155  21.285  0.00  0.00    +0.000 A 
ATOM      8  C   UNL     1      -0.789  10.752  22.573  0.00  0.00    +0.000 A 
ATOM      9  C   UNL     1       0.088   9.666  22.764  0.00  0.00    +0.000 A 
ATOM     10  F   UNL     1       0.297   9.232  24.034  0.00  0.00    +0.000 F 
ATOM     11  C   UNL     1       0.758   9.065  21.652  0.00  0.00    +0.000 A 
ATOM     12  C   UNL     1       0.478   9.550  20.341  0.00  0.00    +0.000 A 
ATOM     13  H   UNL     1      -1.498  11.450  18.579  0.00  0.00    +0.000 HD
ENDBRANCH   2   3
BRANCH   1  17
ATOM     14  N   UNL     1       5.071   4.613  16.350  0.00  0.00    +0.000 N 
ATOM     15  C   UNL     1       5.356   5.946  16.260  0.00  0.00    +0.000 A 
ATOM     16  C   UNL     1       4.573   6.910  16.942  0.00  0.00    +0.000 A 
ATOM     17  C   UNL     1       3.475   6.501  17.714  0.00  0.00    +0.000 A 
ATOM     18  C   UNL     1       3.204   5.115  17.760  0.00  0.00    +0.000 A 
ATOM     19  C   UNL     1       4.001   4.194  17.076  0.00  0.00    +0.000 A 
BRANCH  14  20
ATOM     20  C   UNL     1       5.879   3.598  15.575  0.00  0.00    +0.000 C 
BRANCH  20  21
ATOM     21  C   UNL     1       6.433   4.174  14.264  0.00  0.00    +0.000 C 
BRANCH  21  22
ATOM     22  C   UNL     1       5.632   3.736  13.029  0.00  0.00    +0.000 C 
BRANCH  22  23
ATOM     23  N   UNL     1       6.376   2.759  12.239  0.00  0.00    +0.000 NA
ATOM     24  H   UNL     1       5.894   1.834  12.324  0.00  0.00    +0.000 HD
ATOM     25  H   UNL     1       7.335   2.650  12.643  0.00  0.00    +0.000 HD
ENDBRANCH  22  23
ENDBRANCH  21  22
ENDBRANCH  20  21
ENDBRANCH  14  20
ENDBRANCH   1  17
TORSDOF 6
ENDMDL
MODEL 8
REMARK VINA RESULT:      -7.3      1.155      1.693
REMARK  Name = 
REMARK  6 active torsions:
REMARK  status: ('A' for Active; 'I' for Inactive)
REMARK    1  A    between atoms: N_1  and  C_2
REMARK    2  A    between atoms: C_2  and  C_3
REMARK    3  A    between atoms: C_3  and  C_4
REMARK    4  A    between atoms: C_4  and  N_5
REMARK    5  A    between atoms: C_8  and  C_9
REMARK    6  A    between atoms: C_10  and  C_11
REMARK                            x       y       z     vdW  Elec       q    Type
REMARK                         _______ _______ _______ _____ _____    ______ ____
ROOT
ATOM      1  C   UNL     1       8.561   8.286  18.574  0.00  0.00    +0.000 C 
ATOM      2  C   UNL     1       8.619   9.629  18.227  0.00  0.00    +0.000 C 
ENDROOT
BRANCH   2   3
ATOM      3  C   UNL     1       9.464  10.591  19.096  0.00  0.00    +0.000 A 
ATOM      4  C   UNL     1       9.300  10.641  20.489  0.00  0.00    +0.000 A 
ATOM      5  N   UNL     1       9.849  11.741  21.008  0.00  0.00    +0.000 N 
ATOM      6  C   UNL     1      10.410  12.406  20.008  0.00  0.00    +0.000 A 
ATOM      7  C   UNL     1      10.948  13.676  20.131  0.00  0.00    +0.000 A 
ATOM      8  C   UNL     1      11.543  14.259  19.020  0.00  0.00    +0.000 A 
ATOM      9  C   UNL     1      11.646  13.531  17.820  0.00  0.00    +0.000 A 
ATOM     10  F   UNL     1      12.331  14.093  16.790  0.00  0.00    +0.000 F 
ATOM     11  C   UNL     1      11.019  12.252  17.685  0.00  0.00    +0.000 A 
ATOM     12  C   UNL     1      10.334  11.705  18.809  0.00  0.00    +0.000 A 
ATOM     13  H   UNL     1       9.800  12.028  22.008  0.00  0.00    +0.000 HD
ENDBRANCH   2   3
BRANCH   1  17
ATOM     14  N   UNL     1       5.927   5.103  17.227  0.00  0.00    +0.000 N 
ATOM     15  C   UNL     1       6.986   4.782  18.027  0.00  0.00    +0.000 A 
ATOM     16  C   UNL     1       7.859   5.782  18.522  0.00  0.00    +0.000 A 
ATOM     17  C   UNL     1       7.651   7.127  18.179  0.00  0.00    +0.000 A 
ATOM     18  C   UNL     1       6.556   7.410  17.331  0.00  0.00    +0.000 A 
ATOM     19  C   UNL     1       5.715   6.396  16.865  0.00  0.00    +0.000 A 
BRANCH  14  20
ATOM     20  C   UNL     1       5.033   4.024  16.660  0.00  0.00    +0.000 C 
BRANCH  20  21
ATOM     21  C   UNL     1       5.041   4.010  15.125  0.00  0.00    +0.000 C 
BRANCH  21  22
ATOM     22  C   UNL     1       6.457   4.010  14.531  0.00  0.00    +0.000 C 
BRANCH  22  23
ATOM     23  N   UNL     1       6.448   3.538  13.149  0.00  0.00    +0.000 NA
ATOM     24  H   UNL     1       6.764   2.541  13.141  0.00  0.00    +0.000 HD
ATOM     25  H   UNL     1       7.143   4.090  12.594  0.00  0.00    +0.000 HD
ENDBRANCH  22  23
ENDBRANCH  21  22
ENDBRANCH  20  21
ENDBRANCH  14  20
ENDBRANCH   1  17
TORSDOF 6
ENDMDL
MODEL 9
REMARK VINA RESULT:      -7.3      3.432      9.471
REMARK  Name = 
REMARK  6 active torsions:
REMARK  status: ('A' for Active; 'I' for Inactive)
REMARK    1  A    between atoms: N_1  and  C_2
REMARK    2  A    between atoms: C_2  and  C_3
REMARK    3  A    between atoms: C_3  and  C_4
REMARK    4  A    between atoms: C_4  and  N_5
REMARK    5  A    between atoms: C_8  and  C_9
REMARK    6  A    between atoms: C_10  and  C_11
REMARK                            x       y       z     vdW  Elec       q    Type
REMARK                         _______ _______ _______ _____ _____    ______ ____
ROOT
ATOM      1  C   UNL     1       7.899   8.335  17.736  0.00  0.00    +0.000 C 
ATOM      2  C   UNL     1       7.947   7.083  18.333  0.00  0.00    +0.000 C 
ENDROOT
BRANCH   2   3
ATOM      3  C   UNL     1       7.018   5.964  17.803  0.00  0.00    +0.000 A 
ATOM      4  C   UNL     1       7.194   5.425  16.518  0.00  0.00    +0.000 A 
ATOM      5  N   UNL     1       6.118   4.742  16.122  0.00  0.00    +0.000 N 
ATOM      6  C   UNL     1       5.246   4.774  17.119  0.00  0.00    +0.000 A 
ATOM      7  C   UNL     1       3.947   4.303  17.025  0.00  0.00    +0.000 A 
ATOM      8  C   UNL     1       3.134   4.357  18.149  0.00  0.00    +0.000 A 
ATOM      9  C   UNL     1       3.660   4.824  19.369  0.00  0.00    +0.000 A 
ATOM     10  F   UNL     1       2.868   4.758  20.471  0.00  0.00    +0.000 F 
ATOM     11  C   UNL     1       4.977   5.379  19.433  0.00  0.00    +0.000 A 
ATOM     12  C   UNL     1       5.768   5.398  18.247  0.00  0.00    +0.000 A 
ATOM     13  H   UNL     1       5.990   4.307  15.185  0.00  0.00    +0.000 HD
ENDBRANCH   2   3
BRANCH   1  17
ATOM     14  N   UNL     1       9.555  12.168  18.938  0.00  0.00    +0.000 N 
ATOM     15  C   UNL     1       8.705  12.128  17.869  0.00  0.00    +0.000 A 
ATOM     16  C   UNL     1       8.111  10.911  17.452  0.00  0.00    +0.000 A 
ATOM     17  C   UNL     1       8.404   9.719  18.132  0.00  0.00    +0.000 A 
ATOM     18  C   UNL     1       9.306   9.804  19.217  0.00  0.00    +0.000 A 
ATOM     19  C   UNL     1       9.870  11.023  19.601  0.00  0.00    +0.000 A 
BRANCH  14  20
ATOM     20  C   UNL     1      10.227  13.461  19.341  0.00  0.00    +0.000 C 
BRANCH  20  21
ATOM     21  C   UNL     1      10.251  14.485  18.197  0.00  0.00    +0.000 C 
BRANCH  21  22
ATOM     22  C   UNL     1      11.549  14.440  17.378  0.00  0.00    +0.000 C 
BRANCH  22  23
ATOM     23  N   UNL     1      11.304  13.926  16.033  0.00  0.00    +0.000 NA
ATOM     24  H   UNL     1      10.479  14.431  15.634  0.00  0.00    +0.000 HD
ATOM     25  H   UNL     1      11.051  12.913  16.094  0.00  0.00    +0.000 HD
ENDBRANCH  22  23
ENDBRANCH  21  22
ENDBRANCH  20  21
ENDBRANCH  14  20
ENDBRANCH   1  17
TORSDOF 6
ENDMDL
