MODEL 1
REMARK VINA RESULT:      -7.4      0.000      0.000
REMARK  Name = 
REMARK  11 active torsions:
REMARK  status: ('A' for Active; 'I' for Inactive)
REMARK    1  A    between atoms: C_1  and  N_2
REMARK    2  A    between atoms: N_2  and  C_3
REMARK    3  A    between atoms: N_2  and  C_4
REMARK    4  A    between atoms: N_2  and  C_22
REMARK    5  A    between atoms: C_4  and  C_5
REMARK    6  A    between atoms: C_5  and  C_6
REMARK    7  A    between atoms: C_6  and  N_7
REMARK    8  A    between atoms: N_7  and  C_8
REMARK    9  A    between atoms: C_8  and  C_9
REMARK   10  A    between atoms: C_12  and  C_13
REMARK   11  A    between atoms: C_22  and  C_23
REMARK                            x       y       z     vdW  Elec       q    Type
REMARK                         _______ _______ _______ _____ _____    ______ ____
ROOT
ATOM      1  N   UNL     1       2.269   5.705  20.717  0.00  0.00    +0.000 NA
ATOM      2  H   UNL     1       2.816   5.724  19.857  0.00  0.00    +0.000 HD
ENDROOT
BRANCH   1   3
ATOM      3  C   UNL     1       1.217   4.692  20.736  0.00  0.00    +0.000 C 
BRANCH   3   4
ATOM      4  C   UNL     1       1.672   3.232  20.939  0.00  0.00    +0.000 C 
BRANCH   4   5
ATOM      5  C   UNL     1       2.966   2.941  20.190  0.00  0.00    +0.000 C 
BRANCH   5   7
ATOM      6  C   UNL     1       3.680   1.410  18.402  0.00  0.00    +0.000 C 
ATOM      7  N   UNL     1       2.799   2.625  18.693  0.00  0.00    +0.000 N 
ATOM      8  C   UNL     1       1.361   2.237  18.356  0.00  0.00    +0.000 C 
BRANCH   7   9
ATOM      9  C   UNL     1       3.188   3.817  17.761  0.00  0.00    +0.000 C 
BRANCH   9  10
ATOM     10  C   UNL     1       4.644   4.132  17.504  0.00  0.00    +0.000 A 
ATOM     11  C   UNL     1       5.224   3.931  16.242  0.00  0.00    +0.000 A 
ATOM     12  C   UNL     1       6.565   4.241  16.012  0.00  0.00    +0.000 A 
ATOM     13  C   UNL     1       7.356   4.746  17.041  0.00  0.00    +0.000 A 
ATOM     14  C   UNL     1       6.784   4.994  18.283  0.00  0.00    +0.000 A 
ATOM     15  C   UNL     1       5.437   4.712  18.503  0.00  0.00    +0.000 A 
ENDBRANCH   9  10
ENDBRANCH   7   9
ENDBRANCH   5   7
ENDBRANCH   4   5
ENDBRANCH   3   4
ENDBRANCH   1   3
BRANCH   1  16
ATOM     16  C   UNL     1       1.778   7.047  21.017  0.00  0.00    +0.000 C 
BRANCH  16  17
ATOM     17  C   UNL     1       1.741   7.932  19.825  0.00  0.00    +0.000 A 
ATOM     18  C   UNL     1       2.363   7.811  18.606  0.00  0.00    +0.000 A 
ATOM     19  C   UNL     1       2.119   9.014  17.914  0.00  0.00    +0.000 A 
ATOM     20  C   UNL     1       1.327   9.810  18.731  0.00  0.00    +0.000 A 
ATOM     21  O   UNL     1       1.108   9.146  19.912  0.00  0.00    +0.000 OA
BRANCH  20  22
ATOM     22  C   UNL     1       0.831  11.186  18.536  0.00  0.00    +0.000 A 
ATOM     23  C   UNL     1       1.802  12.208  18.483  0.00  0.00    +0.000 A 
ATOM     24  C   UNL     1       1.460  13.563  18.525  0.00  0.00    +0.000 A 
ATOM     25  C   UNL     1       0.135  13.924  18.701  0.00  0.00    +0.000 A 
ATOM     26 CL   UNL     1      -0.287  15.583  18.856  0.00  0.00    +0.000 Cl
ATOM     27  C   UNL     1      -0.857  12.949  18.688  0.00  0.00    +0.000 A 
ATOM     28  C   UNL     1      -0.512  11.597  18.496  0.00  0.00    +0.000 A 
ATOM     29 BR   UNL     1      -1.926  10.467  17.903  0.00  0.00    +0.000 Br
ENDBRANCH  20  22
ENDBRANCH  16  17
ENDBRANCH   1  16
TORSDOF 9
ENDMDL
MODEL 2
REMARK VINA RESULT:      -7.3      1.112      1.732
REMARK  Name = 
REMARK  11 active torsions:
REMARK  status: ('A' for Active; 'I' for Inactive)
REMARK    1  A    between atoms: C_1  and  N_2
REMARK    2  A    between atoms: N_2  and  C_3
REMARK    3  A    between atoms: N_2  and  C_4
REMARK    4  A    between atoms: N_2  and  C_22
REMARK    5  A    between atoms: C_4  and  C_5
REMARK    6  A    between atoms: C_5  and  C_6
REMARK    7  A    between atoms: C_6  and  N_7
REMARK    8  A    between atoms: N_7  and  C_8
REMARK    9  A    between atoms: C_8  and  C_9
REMARK   10  A    between atoms: C_12  and  C_13
REMARK   11  A    between atoms: C_22  and  C_23
REMARK                            x       y       z     vdW  Elec       q    Type
REMARK                         _______ _______ _______ _____ _____    ______ ____
ROOT
ATOM      1  N   UNL     1       2.272   5.951  20.622  0.00  0.00    +0.000 NA
ATOM      2  H   UNL     1       2.865   6.042  19.798  0.00  0.00    +0.000 HD
ENDROOT
BRANCH   1   3
ATOM      3  C   UNL     1       1.368   4.805  20.584  0.00  0.00    +0.000 C 
BRANCH   3   4
ATOM      4  C   UNL     1       1.531   3.839  19.392  0.00  0.00    +0.000 C 
BRANCH   4   5
ATOM      5  C   UNL     1       2.562   4.351  18.396  0.00  0.00    +0.000 C 
BRANCH   5   7
ATOM      6  C   UNL     1       3.588   2.167  18.876  0.00  0.00    +0.000 C 
ATOM      7  N   UNL     1       3.895   3.580  18.379  0.00  0.00    +0.000 N 
ATOM      8  C   UNL     1       4.455   3.455  16.964  0.00  0.00    +0.000 C 
BRANCH   7   9
ATOM      9  C   UNL     1       5.003   4.241  19.261  0.00  0.00    +0.000 C 
BRANCH   9  10
ATOM     10  C   UNL     1       5.858   5.351  18.694  0.00  0.00    +0.000 A 
ATOM     11  C   UNL     1       7.184   5.539  19.115  0.00  0.00    +0.000 A 
ATOM     12  C   UNL     1       7.970   6.557  18.573  0.00  0.00    +0.000 A 
ATOM     13  C   UNL     1       7.443   7.413  17.609  0.00  0.00    +0.000 A 
ATOM     14  C   UNL     1       6.149   7.211  17.150  0.00  0.00    +0.000 A 
ATOM     15  C   UNL     1       5.374   6.175  17.670  0.00  0.00    +0.000 A 
ENDBRANCH   9  10
ENDBRANCH   7   9
ENDBRANCH   5   7
ENDBRANCH   4   5
ENDBRANCH   3   4
ENDBRANCH   1   3
BRANCH   1  16
ATOM     16  C   UNL     1       1.586   7.215  20.876  0.00  0.00    +0.000 C 
BRANCH  16  17
ATOM     17  C   UNL     1       1.640   8.147  19.721  0.00  0.00    +0.000 A 
ATOM     18  C   UNL     1       2.245   8.013  18.495  0.00  0.00    +0.000 A 
ATOM     19  C   UNL     1       2.127   9.262  17.854  0.00  0.00    +0.000 A 
ATOM     20  C   UNL     1       1.423  10.102  18.708  0.00  0.00    +0.000 A 
ATOM     21  O   UNL     1       1.138   9.416  19.862  0.00  0.00    +0.000 OA
BRANCH  20  22
ATOM     22  C   UNL     1       1.072  11.529  18.571  0.00  0.00    +0.000 A 
ATOM     23  C   UNL     1       2.144  12.430  18.389  0.00  0.00    +0.000 A 
ATOM     24  C   UNL     1       1.973  13.815  18.469  0.00  0.00    +0.000 A 
ATOM     25  C   UNL     1       0.733  14.328  18.813  0.00  0.00    +0.000 A 
ATOM     26 CL   UNL     1       0.535  16.024  19.013  0.00  0.00    +0.000 Cl
ATOM     27  C   UNL     1      -0.361  13.477  18.931  0.00  0.00    +0.000 A 
ATOM     28  C   UNL     1      -0.206  12.096  18.703  0.00  0.00    +0.000 A 
ATOM     29 BR   UNL     1      -1.808  11.148  18.302  0.00  0.00    +0.000 Br
ENDBRANCH  20  22
ENDBRANCH  16  17
ENDBRANCH   1  16
TORSDOF 9
ENDMDL
MODEL 3
REMARK VINA RESULT:      -7.2      2.899      3.885
REMARK  Name = 
REMARK  11 active torsions:
REMARK  status: ('A' for Active; 'I' for Inactive)
REMARK    1  A    between atoms: C_1  and  N_2
REMARK    2  A    between atoms: N_2  and  C_3
REMARK    3  A    between atoms: N_2  and  C_4
REMARK    4  A    between atoms: N_2  and  C_22
REMARK    5  A    between atoms: C_4  and  C_5
REMARK    6  A    between atoms: C_5  and  C_6
REMARK    7  A    between atoms: C_6  and  N_7
REMARK    8  A    between atoms: N_7  and  C_8
REMARK    9  A    between atoms: C_8  and  C_9
REMARK   10  A    between atoms: C_12  and  C_13
REMARK   11  A    between atoms: C_22  and  C_23
REMARK                            x       y       z     vdW  Elec       q    Type
REMARK                         _______ _______ _______ _____ _____    ______ ____
ROOT
ATOM      1  N   UNL     1       0.591   8.380  21.225  0.00  0.00    +0.000 NA
ATOM      2  H   UNL     1       0.441   7.747  22.010  0.00  0.00    +0.000 HD
ENDROOT
BRANCH   1   3
ATOM      3  C   UNL     1       1.814   8.116  20.470  0.00  0.00    +0.000 C 
BRANCH   3   4
ATOM      4  C   UNL     1       2.175   6.634  20.241  0.00  0.00    +0.000 C 
BRANCH   4   5
ATOM      5  C   UNL     1       2.706   6.400  18.833  0.00  0.00    +0.000 C 
BRANCH   5   7
ATOM      6  C   UNL     1       3.035   4.142  19.753  0.00  0.00    +0.000 C 
ATOM      7  N   UNL     1       2.904   4.923  18.445  0.00  0.00    +0.000 N 
ATOM      8  C   UNL     1       1.693   4.369  17.701  0.00  0.00    +0.000 C 
BRANCH   7   9
ATOM      9  C   UNL     1       4.156   4.684  17.539  0.00  0.00    +0.000 C 
BRANCH   9  10
ATOM     10  C   UNL     1       5.436   5.444  17.802  0.00  0.00    +0.000 A 
ATOM     11  C   UNL     1       5.780   6.576  17.048  0.00  0.00    +0.000 A 
ATOM     12  C   UNL     1       6.957   7.280  17.310  0.00  0.00    +0.000 A 
ATOM     13  C   UNL     1       7.816   6.860  18.322  0.00  0.00    +0.000 A 
ATOM     14  C   UNL     1       7.465   5.769  19.107  0.00  0.00    +0.000 A 
ATOM     15  C   UNL     1       6.276   5.084  18.864  0.00  0.00    +0.000 A 
ENDBRANCH   9  10
ENDBRANCH   7   9
ENDBRANCH   5   7
ENDBRANCH   4   5
ENDBRANCH   3   4
ENDBRANCH   1   3
BRANCH   1  16
ATOM     16  C   UNL     1       0.486   9.762  21.682  0.00  0.00    +0.000 C 
BRANCH  16  17
ATOM     17  C   UNL     1      -0.312  10.617  20.766  0.00  0.00    +0.000 A 
ATOM     18  C   UNL     1      -0.723  11.922  20.896  0.00  0.00    +0.000 A 
ATOM     19  C   UNL     1      -1.594  12.174  19.818  0.00  0.00    +0.000 A 
ATOM     20  C   UNL     1      -1.653  11.016  19.052  0.00  0.00    +0.000 A 
ATOM     21  O   UNL     1      -0.875  10.056  19.648  0.00  0.00    +0.000 OA
BRANCH  20  22
ATOM     22  C   UNL     1      -2.455  10.702  17.854  0.00  0.00    +0.000 A 
ATOM     23  C   UNL     1      -1.895   9.784  16.939  0.00  0.00    +0.000 A 
ATOM     24  C   UNL     1      -2.441   9.570  15.671  0.00  0.00    +0.000 A 
ATOM     25  C   UNL     1      -3.520  10.334  15.257  0.00  0.00    +0.000 A 
ATOM     26 CL   UNL     1      -4.136  10.152  13.663  0.00  0.00    +0.000 Cl
ATOM     27  C   UNL     1      -4.141  11.198  16.153  0.00  0.00    +0.000 A 
ATOM     28  C   UNL     1      -3.672  11.295  17.478  0.00  0.00    +0.000 A 
ATOM     29 BR   UNL     1      -4.912  12.005  18.736  0.00  0.00    +0.000 Br
ENDBRANCH  20  22
ENDBRANCH  16  17
ENDBRANCH   1  16
TORSDOF 9
ENDMDL
MODEL 4
REMARK VINA RESULT:      -7.1      1.047      1.693
REMARK  Name = 
REMARK  11 active torsions:
REMARK  status: ('A' for Active; 'I' for Inactive)
REMARK    1  A    between atoms: C_1  and  N_2
REMARK    2  A    between atoms: N_2  and  C_3
REMARK    3  A    between atoms: N_2  and  C_4
REMARK    4  A    between atoms: N_2  and  C_22
REMARK    5  A    between atoms: C_4  and  C_5
REMARK    6  A    between atoms: C_5  and  C_6
REMARK    7  A    between atoms: C_6  and  N_7
REMARK    8  A    between atoms: N_7  and  C_8
REMARK    9  A    between atoms: C_8  and  C_9
REMARK   10  A    between atoms: C_12  and  C_13
REMARK   11  A    between atoms: C_22  and  C_23
REMARK                            x       y       z     vdW  Elec       q    Type
REMARK                         _______ _______ _______ _____ _____    ______ ____
ROOT
ATOM      1  N   UNL     1       2.244   5.661  21.123  0.00  0.00    +0.000 NA
ATOM      2  H   UNL     1       3.236   5.463  21.257  0.00  0.00    +0.000 HD
ENDROOT
BRANCH   1   3
ATOM      3  C   UNL     1       1.415   4.470  20.951  0.00  0.00    +0.000 C 
BRANCH   3   4
ATOM      4  C   UNL     1       1.231   3.964  19.505  0.00  0.00    +0.000 C 
BRANCH   4   5
ATOM      5  C   UNL     1       1.948   2.639  19.282  0.00  0.00    +0.000 C 
BRANCH   5   7
ATOM      6  C   UNL     1       4.291   2.489  20.018  0.00  0.00    +0.000 C 
ATOM      7  N   UNL     1       3.405   2.757  18.800  0.00  0.00    +0.000 N 
ATOM      8  C   UNL     1       3.739   1.700  17.752  0.00  0.00    +0.000 C 
BRANCH   7   9
ATOM      9  C   UNL     1       3.741   4.151  18.178  0.00  0.00    +0.000 C 
BRANCH   9  10
ATOM     10  C   UNL     1       4.968   4.317  17.312  0.00  0.00    +0.000 A 
ATOM     11  C   UNL     1       6.243   4.478  17.875  0.00  0.00    +0.000 A 
ATOM     12  C   UNL     1       7.372   4.614  17.066  0.00  0.00    +0.000 A 
ATOM     13  C   UNL     1       7.247   4.603  15.679  0.00  0.00    +0.000 A 
ATOM     14  C   UNL     1       5.998   4.398  15.107  0.00  0.00    +0.000 A 
ATOM     15  C   UNL     1       4.876   4.233  15.917  0.00  0.00    +0.000 A 
ENDBRANCH   9  10
ENDBRANCH   7   9
ENDBRANCH   5   7
ENDBRANCH   4   5
ENDBRANCH   3   4
ENDBRANCH   1   3
BRANCH   1  16
ATOM     16  C   UNL     1       2.078   6.637  20.051  0.00  0.00    +0.000 C 
BRANCH  16  17
ATOM     17  C   UNL     1       1.484   7.915  20.516  0.00  0.00    +0.000 A 
ATOM     18  C   UNL     1       0.772   8.205  21.656  0.00  0.00    +0.000 A 
ATOM     19  C   UNL     1       0.304   9.525  21.508  0.00  0.00    +0.000 A 
ATOM     20  C   UNL     1       0.778  10.000  20.292  0.00  0.00    +0.000 A 
ATOM     21  O   UNL     1       1.491   9.001  19.678  0.00  0.00    +0.000 OA
BRANCH  20  22
ATOM     22  C   UNL     1       0.541  11.287  19.609  0.00  0.00    +0.000 A 
ATOM     23  C   UNL     1       1.504  12.299  19.812  0.00  0.00    +0.000 A 
ATOM     24  C   UNL     1       1.290  13.621  19.410  0.00  0.00    +0.000 A 
ATOM     25  C   UNL     1       0.068  13.977  18.865  0.00  0.00    +0.000 A 
ATOM     26 CL   UNL     1      -0.243  15.618  18.461  0.00  0.00    +0.000 Cl
ATOM     27  C   UNL     1      -0.879  12.996  18.586  0.00  0.00    +0.000 A 
ATOM     28  C   UNL     1      -0.593  11.644  18.860  0.00  0.00    +0.000 A 
ATOM     29 BR   UNL     1      -1.655  10.376  17.917  0.00  0.00    +0.000 Br
ENDBRANCH  20  22
ENDBRANCH  16  17
ENDBRANCH   1  16
TORSDOF 9
ENDMDL
MODEL 5
REMARK VINA RESULT:      -7.0      2.056      2.502
REMARK  Name = 
REMARK  11 active torsions:
REMARK  status: ('A' for Active; 'I' for Inactive)
REMARK    1  A    between atoms: C_1  and  N_2
REMARK    2  A    between atoms: N_2  and  C_3
REMARK    3  A    between atoms: N_2  and  C_4
REMARK    4  A    between atoms: N_2  and  C_22
REMARK    5  A    between atoms: C_4  and  C_5
REMARK    6  A    between atoms: C_5  and  C_6
REMARK    7  A    between atoms: C_6  and  N_7
REMARK    8  A    between atoms: N_7  and  C_8
REMARK    9  A    between atoms: C_8  and  C_9
REMARK   10  A    between atoms: C_12  and  C_13
REMARK   11  A    between atoms: C_22  and  C_23
REMARK                            x       y       z     vdW  Elec       q    Type
REMARK                         _______ _______ _______ _____ _____    ______ ____
ROOT
ATOM      1  N   UNL     1       1.571   6.777  20.927  0.00  0.00    +0.000 NA
ATOM      2  H   UNL     1       1.545   6.452  21.893  0.00  0.00    +0.000 HD
ENDROOT
BRANCH   1   3
ATOM      3  C   UNL     1       2.467   6.013  20.063  0.00  0.00    +0.000 C 
BRANCH   3   4
ATOM      4  C   UNL     1       2.583   4.502  20.354  0.00  0.00    +0.000 C 
BRANCH   4   5
ATOM      5  C   UNL     1       3.683   3.856  19.523  0.00  0.00    +0.000 C 
BRANCH   5   7
ATOM      6  C   UNL     1       3.433   1.708  18.349  0.00  0.00    +0.000 C 
ATOM      7  N   UNL     1       3.215   3.215  18.204  0.00  0.00    +0.000 N 
ATOM      8  C   UNL     1       1.724   3.440  17.966  0.00  0.00    +0.000 C 
BRANCH   7   9
ATOM      9  C   UNL     1       3.973   3.758  16.949  0.00  0.00    +0.000 C 
BRANCH   9  10
ATOM     10  C   UNL     1       5.054   4.801  17.112  0.00  0.00    +0.000 A 
ATOM     11  C   UNL     1       6.382   4.439  17.386  0.00  0.00    +0.000 A 
ATOM     12  C   UNL     1       7.377   5.410  17.518  0.00  0.00    +0.000 A 
ATOM     13  C   UNL     1       7.061   6.760  17.390  0.00  0.00    +0.000 A 
ATOM     14  C   UNL     1       5.760   7.131  17.073  0.00  0.00    +0.000 A 
ATOM     15  C   UNL     1       4.774   6.159  16.912  0.00  0.00    +0.000 A 
ENDBRANCH   9  10
ENDBRANCH   7   9
ENDBRANCH   5   7
ENDBRANCH   4   5
ENDBRANCH   3   4
ENDBRANCH   1   3
BRANCH   1  16
ATOM     16  C   UNL     1       1.832   8.213  20.899  0.00  0.00    +0.000 C 
BRANCH  16  17
ATOM     17  C   UNL     1       1.126   8.909  19.793  0.00  0.00    +0.000 A 
ATOM     18  C   UNL     1       1.533   9.187  18.510  0.00  0.00    +0.000 A 
ATOM     19  C   UNL     1       0.542  10.015  17.949  0.00  0.00    +0.000 A 
ATOM     20  C   UNL     1      -0.451  10.183  18.906  0.00  0.00    +0.000 A 
ATOM     21  O   UNL     1      -0.080   9.513  20.045  0.00  0.00    +0.000 OA
BRANCH  20  22
ATOM     22  C   UNL     1      -1.680  10.999  18.877  0.00  0.00    +0.000 A 
ATOM     23  C   UNL     1      -1.808  11.988  19.876  0.00  0.00    +0.000 A 
ATOM     24  C   UNL     1      -3.007  12.672  20.095  0.00  0.00    +0.000 A 
ATOM     25  C   UNL     1      -4.133  12.323  19.368  0.00  0.00    +0.000 A 
ATOM     26 CL   UNL     1      -5.637  13.087  19.699  0.00  0.00    +0.000 Cl
ATOM     27  C   UNL     1      -4.029  11.404  18.329  0.00  0.00    +0.000 A 
ATOM     28  C   UNL     1      -2.780  10.829  18.020  0.00  0.00    +0.000 A 
ATOM     29 BR   UNL     1      -2.630  10.089  16.272  0.00  0.00    +0.000 Br
ENDBRANCH  20  22
ENDBRANCH  16  17
ENDBRANCH   1  16
TORSDOF 9
ENDMDL
MODEL 6
REMARK VINA RESULT:      -6.9      2.679      3.636
REMARK  Name = 
REMARK  11 active torsions:
REMARK  status: ('A' for Active; 'I' for Inactive)
REMARK    1  A    between atoms: C_1  and  N_2
REMARK    2  A    between atoms: N_2  and  C_3
REMARK    3  A    between atoms: N_2  and  C_4
REMARK    4  A    between atoms: N_2  and  C_22
REMARK    5  A    between atoms: C_4  and  C_5
REMARK    6  A    between atoms: C_5  and  C_6
REMARK    7  A    between atoms: C_6  and  N_7
REMARK    8  A    between atoms: N_7  and  C_8
REMARK    9  A    between atoms: C_8  and  C_9
REMARK   10  A    between atoms: C_12  and  C_13
REMARK   11  A    between atoms: C_22  and  C_23
REMARK                            x       y       z     vdW  Elec       q    Type
REMARK                         _______ _______ _______ _____ _____    ______ ____
ROOT
ATOM      1  N   UNL     1       1.630   8.502  22.087  0.00  0.00    +0.000 NA
ATOM      2  H   UNL     1       2.541   8.771  22.456  0.00  0.00    +0.000 HD
ENDROOT
BRANCH   1   3
ATOM      3  C   UNL     1       1.644   8.127  20.675  0.00  0.00    +0.000 C 
BRANCH   3   4
ATOM      4  C   UNL     1       1.950   6.649  20.359  0.00  0.00    +0.000 C 
BRANCH   4   5
ATOM      5  C   UNL     1       2.828   6.513  19.121  0.00  0.00    +0.000 C 
BRANCH   5   7
ATOM      6  C   UNL     1       3.225   4.193  19.837  0.00  0.00    +0.000 C 
ATOM      7  N   UNL     1       3.014   5.074  18.606  0.00  0.00    +0.000 N 
ATOM      8  C   UNL     1       1.766   4.567  17.890  0.00  0.00    +0.000 C 
BRANCH   7   9
ATOM      9  C   UNL     1       4.213   4.922  17.614  0.00  0.00    +0.000 C 
BRANCH   9  10
ATOM     10  C   UNL     1       5.514   5.642  17.885  0.00  0.00    +0.000 A 
ATOM     11  C   UNL     1       6.409   5.190  18.866  0.00  0.00    +0.000 A 
ATOM     12  C   UNL     1       7.615   5.853  19.097  0.00  0.00    +0.000 A 
ATOM     13  C   UNL     1       7.945   6.987  18.359  0.00  0.00    +0.000 A 
ATOM     14  C   UNL     1       7.091   7.420  17.352  0.00  0.00    +0.000 A 
ATOM     15  C   UNL     1       5.900   6.739  17.103  0.00  0.00    +0.000 A 
ENDBRANCH   9  10
ENDBRANCH   7   9
ENDBRANCH   5   7
ENDBRANCH   4   5
ENDBRANCH   3   4
ENDBRANCH   1   3
BRANCH   1  16
ATOM     16  C   UNL     1       0.649   9.539  22.395  0.00  0.00    +0.000 C 
BRANCH  16  17
ATOM     17  C   UNL     1       0.298  10.375  21.219  0.00  0.00    +0.000 A 
ATOM     18  C   UNL     1       0.630  11.674  20.918  0.00  0.00    +0.000 A 
ATOM     19  C   UNL     1      -0.110  12.017  19.770  0.00  0.00    +0.000 A 
ATOM     20  C   UNL     1      -0.842  10.897  19.397  0.00  0.00    +0.000 A 
ATOM     21  O   UNL     1      -0.599   9.893  20.300  0.00  0.00    +0.000 OA
BRANCH  20  22
ATOM     22  C   UNL     1      -1.827  10.715  18.313  0.00  0.00    +0.000 A 
ATOM     23  C   UNL     1      -1.505   9.767  17.317  0.00  0.00    +0.000 A 
ATOM     24  C   UNL     1      -2.236   9.658  16.130  0.00  0.00    +0.000 A 
ATOM     25  C   UNL     1      -3.262  10.554  15.878  0.00  0.00    +0.000 A 
ATOM     26 CL   UNL     1      -4.101  10.495  14.380  0.00  0.00    +0.000 Cl
ATOM     27  C   UNL     1      -3.652  11.455  16.863  0.00  0.00    +0.000 A 
ATOM     28  C   UNL     1      -3.004  11.456  18.114  0.00  0.00    +0.000 A 
ATOM     29 BR   UNL     1      -3.973  12.265  19.539  0.00  0.00    +0.000 Br
ENDBRANCH  20  22
ENDBRANCH  16  17
ENDBRANCH   1  16
TORSDOF 9
ENDMDL
MODEL 7
REMARK VINA RESULT:      -6.9      5.856      8.480
REMARK  Name = 
REMARK  11 active torsions:
REMARK  status: ('A' for Active; 'I' for Inactive)
REMARK    1  A    between atoms: C_1  and  N_2
REMARK    2  A    between atoms: N_2  and  C_3
REMARK    3  A    between atoms: N_2  and  C_4
REMARK    4  A    between atoms: N_2  and  C_22
REMARK    5  A    between atoms: C_4  and  C_5
REMARK    6  A    between atoms: C_5  and  C_6
REMARK    7  A    between atoms: C_6  and  N_7
REMARK    8  A    between atoms: N_7  and  C_8
REMARK    9  A    between atoms: C_8  and  C_9
REMARK   10  A    between atoms: C_12  and  C_13
REMARK   11  A    between atoms: C_22  and  C_23
REMARK                            x       y       z     vdW  Elec       q    Type
REMARK                         _______ _______ _______ _____ _____    ______ ____
ROOT
ATOM      1  N   UNL     1       7.507   7.617  16.856  0.00  0.00    +0.000 NA
ATOM      2  H   UNL     1       8.004   7.782  15.982  0.00  0.00    +0.000 HD
ENDROOT
BRANCH   1   3
ATOM      3  C   UNL     1       8.135   8.227  18.026  0.00  0.00    +0.000 C 
BRANCH   3   4
ATOM      4  C   UNL     1       8.743   9.631  17.827  0.00  0.00    +0.000 C 
BRANCH   4   5
ATOM      5  C   UNL     1       9.045  10.302  19.160  0.00  0.00    +0.000 C 
BRANCH   5   7
ATOM      6  C   UNL     1      10.781  11.496  17.890  0.00  0.00    +0.000 C 
ATOM      7  N   UNL     1       9.811  11.635  19.063  0.00  0.00    +0.000 N 
ATOM      8  C   UNL     1       8.876  12.799  18.748  0.00  0.00    +0.000 C 
BRANCH   7   9
ATOM      9  C   UNL     1      10.584  12.001  20.371  0.00  0.00    +0.000 C 
BRANCH   9  10
ATOM     10  C   UNL     1       9.893  12.780  21.466  0.00  0.00    +0.000 A 
ATOM     11  C   UNL     1      10.115  14.155  21.635  0.00  0.00    +0.000 A 
ATOM     12  C   UNL     1       9.459  14.869  22.639  0.00  0.00    +0.000 A 
ATOM     13  C   UNL     1       8.577  14.220  23.500  0.00  0.00    +0.000 A 
ATOM     14  C   UNL     1       8.311  12.869  23.315  0.00  0.00    +0.000 A 
ATOM     15  C   UNL     1       8.945  12.164  22.293  0.00  0.00    +0.000 A 
ENDBRANCH   9  10
ENDBRANCH   7   9
ENDBRANCH   5   7
ENDBRANCH   4   5
ENDBRANCH   3   4
ENDBRANCH   1   3
BRANCH   1  16
ATOM     16  C   UNL     1       7.258   6.188  17.018  0.00  0.00    +0.000 C 
BRANCH  16  17
ATOM     17  C   UNL     1       5.839   5.876  17.322  0.00  0.00    +0.000 A 
ATOM     18  C   UNL     1       5.049   4.827  16.915  0.00  0.00    +0.000 A 
ATOM     19  C   UNL     1       3.743   5.119  17.355  0.00  0.00    +0.000 A 
ATOM     20  C   UNL     1       3.795   6.324  18.044  0.00  0.00    +0.000 A 
ATOM     21  O   UNL     1       5.084   6.794  18.008  0.00  0.00    +0.000 OA
BRANCH  20  22
ATOM     22  C   UNL     1       2.717   7.123  18.656  0.00  0.00    +0.000 A 
ATOM     23  C   UNL     1       2.319   8.287  17.964  0.00  0.00    +0.000 A 
ATOM     24  C   UNL     1       1.475   9.242  18.538  0.00  0.00    +0.000 A 
ATOM     25  C   UNL     1       1.071   9.090  19.854  0.00  0.00    +0.000 A 
ATOM     26 CL   UNL     1       0.115  10.307  20.602  0.00  0.00    +0.000 Cl
ATOM     27  C   UNL     1       1.385   7.924  20.545  0.00  0.00    +0.000 A 
ATOM     28  C   UNL     1       2.112   6.901  19.905  0.00  0.00    +0.000 A 
ATOM     29 BR   UNL     1       1.964   5.174  20.694  0.00  0.00    +0.000 Br
ENDBRANCH  20  22
ENDBRANCH  16  17
ENDBRANCH   1  16
TORSDOF 9
ENDMDL
MODEL 8
REMARK VINA RESULT:      -6.9      2.137      2.815
REMARK  Name = 
REMARK  11 active torsions:
REMARK  status: ('A' for Active; 'I' for Inactive)
REMARK    1  A    between atoms: C_1  and  N_2
REMARK    2  A    between atoms: N_2  and  C_3
REMARK    3  A    between atoms: N_2  and  C_4
REMARK    4  A    between atoms: N_2  and  C_22
REMARK    5  A    between atoms: C_4  and  C_5
REMARK    6  A    between atoms: C_5  and  C_6
REMARK    7  A    between atoms: C_6  and  N_7
REMARK    8  A    between atoms: N_7  and  C_8
REMARK    9  A    between atoms: C_8  and  C_9
REMARK   10  A    between atoms: C_12  and  C_13
REMARK   11  A    between atoms: C_22  and  C_23
REMARK                            x       y       z     vdW  Elec       q    Type
REMARK                         _______ _______ _______ _____ _____    ______ ____
ROOT
ATOM      1  N   UNL     1       1.945   6.978  20.222  0.00  0.00    +0.000 NA
ATOM      2  H   UNL     1       1.576   6.894  19.275  0.00  0.00    +0.000 HD
ENDROOT
BRANCH   1   3
ATOM      3  C   UNL     1       1.763   5.783  21.043  0.00  0.00    +0.000 C 
BRANCH   3   4
ATOM      4  C   UNL     1       1.301   4.508  20.309  0.00  0.00    +0.000 C 
BRANCH   4   5
ATOM      5  C   UNL     1       2.063   4.306  19.006  0.00  0.00    +0.000 C 
BRANCH   5   7
ATOM      6  C   UNL     1       3.008   2.517  20.404  0.00  0.00    +0.000 C 
ATOM      7  N   UNL     1       3.085   3.155  19.017  0.00  0.00    +0.000 N 
ATOM      8  C   UNL     1       2.728   2.076  17.998  0.00  0.00    +0.000 C 
BRANCH   7   9
ATOM      9  C   UNL     1       4.545   3.620  18.709  0.00  0.00    +0.000 C 
BRANCH   9  10
ATOM     10  C   UNL     1       4.823   4.494  17.508  0.00  0.00    +0.000 A 
ATOM     11  C   UNL     1       4.713   5.891  17.580  0.00  0.00    +0.000 A 
ATOM     12  C   UNL     1       4.988   6.689  16.468  0.00  0.00    +0.000 A 
ATOM     13  C   UNL     1       5.367   6.106  15.261  0.00  0.00    +0.000 A 
ATOM     14  C   UNL     1       5.525   4.728  15.188  0.00  0.00    +0.000 A 
ATOM     15  C   UNL     1       5.278   3.934  16.307  0.00  0.00    +0.000 A 
ENDBRANCH   9  10
ENDBRANCH   7   9
ENDBRANCH   5   7
ENDBRANCH   4   5
ENDBRANCH   3   4
ENDBRANCH   1   3
BRANCH   1  16
ATOM     16  C   UNL     1       1.423   8.189  20.848  0.00  0.00    +0.000 C 
BRANCH  16  17
ATOM     17  C   UNL     1       0.862   9.154  19.867  0.00  0.00    +0.000 A 
ATOM     18  C   UNL     1       1.461   9.805  18.815  0.00  0.00    +0.000 A 
ATOM     19  C   UNL     1       0.515  10.728  18.329  0.00  0.00    +0.000 A 
ATOM     20  C   UNL     1      -0.640  10.579  19.088  0.00  0.00    +0.000 A 
ATOM     21  O   UNL     1      -0.416   9.620  20.043  0.00  0.00    +0.000 OA
BRANCH  20  22
ATOM     22  C   UNL     1      -1.910  11.329  19.053  0.00  0.00    +0.000 A 
ATOM     23  C   UNL     1      -2.141  12.234  20.112  0.00  0.00    +0.000 A 
ATOM     24  C   UNL     1      -3.385  12.836  20.318  0.00  0.00    +0.000 A 
ATOM     25  C   UNL     1      -4.454  12.481  19.512  0.00  0.00    +0.000 A 
ATOM     26 CL   UNL     1      -6.013  13.138  19.819  0.00  0.00    +0.000 Cl
ATOM     27  C   UNL     1      -4.250  11.647  18.417  0.00  0.00    +0.000 A 
ATOM     28  C   UNL     1      -2.958  11.164  18.132  0.00  0.00    +0.000 A 
ATOM     29 BR   UNL     1      -2.684  10.564  16.346  0.00  0.00    +0.000 Br
ENDBRANCH  20  22
ENDBRANCH  16  17
ENDBRANCH   1  16
TORSDOF 9
ENDMDL
MODEL 9
REMARK VINA RESULT:      -6.8      2.667      3.515
REMARK  Name = 
REMARK  11 active torsions:
REMARK  status: ('A' for Active; 'I' for Inactive)
REMARK    1  A    between atoms: C_1  and  N_2
REMARK    2  A    between atoms: N_2  and  C_3
REMARK    3  A    between atoms: N_2  and  C_4
REMARK    4  A    between atoms: N_2  and  C_22
REMARK    5  A    between atoms: C_4  and  C_5
REMARK    6  A    between atoms: C_5  and  C_6
REMARK    7  A    between atoms: C_6  and  N_7
REMARK    8  A    between atoms: N_7  and  C_8
REMARK    9  A    between atoms: C_8  and  C_9
REMARK   10  A    between atoms: C_12  and  C_13
REMARK   11  A    between atoms: C_22  and  C_23
REMARK                            x       y       z     vdW  Elec       q    Type
REMARK                         _______ _______ _______ _____ _____    ______ ____
ROOT
ATOM      1  N   UNL     1       2.262   8.203  18.737  0.00  0.00    +0.000 NA
ATOM      2  H   UNL     1       2.854   8.674  19.420  0.00  0.00    +0.000 HD
ENDROOT
BRANCH   1   3
ATOM      3  C   UNL     1       2.929   7.129  18.006  0.00  0.00    +0.000 C 
BRANCH   3   4
ATOM      4  C   UNL     1       2.364   5.707  18.205  0.00  0.00    +0.000 C 
BRANCH   4   5
ATOM      5  C   UNL     1       2.848   5.092  19.511  0.00  0.00    +0.000 C 
BRANCH   5   7
ATOM      6  C   UNL     1       2.772   2.949  20.717  0.00  0.00    +0.000 C 
ATOM      7  N   UNL     1       3.255   3.609  19.425  0.00  0.00    +0.000 N 
ATOM      8  C   UNL     1       2.561   2.901  18.264  0.00  0.00    +0.000 C 
BRANCH   7   9
ATOM      9  C   UNL     1       4.793   3.398  19.246  0.00  0.00    +0.000 C 
BRANCH   9  10
ATOM     10  C   UNL     1       5.613   4.419  18.491  0.00  0.00    +0.000 A 
ATOM     11  C   UNL     1       6.446   5.327  19.163  0.00  0.00    +0.000 A 
ATOM     12  C   UNL     1       7.212   6.255  18.455  0.00  0.00    +0.000 A 
ATOM     13  C   UNL     1       7.151   6.301  17.064  0.00  0.00    +0.000 A 
ATOM     14  C   UNL     1       6.367   5.378  16.384  0.00  0.00    +0.000 A 
ATOM     15  C   UNL     1       5.625   4.433  17.091  0.00  0.00    +0.000 A 
ENDBRANCH   9  10
ENDBRANCH   7   9
ENDBRANCH   5   7
ENDBRANCH   4   5
ENDBRANCH   3   4
ENDBRANCH   1   3
BRANCH   1  16
ATOM     16  C   UNL     1       1.638   9.192  17.862  0.00  0.00    +0.000 C 
BRANCH  16  17
ATOM     17  C   UNL     1       0.515   9.914  18.511  0.00  0.00    +0.000 A 
ATOM     18  C   UNL     1      -0.755  10.180  18.057  0.00  0.00    +0.000 A 
ATOM     19  C   UNL     1      -1.343  11.043  19.002  0.00  0.00    +0.000 A 
ATOM     20  C   UNL     1      -0.414  11.244  20.015  0.00  0.00    +0.000 A 
ATOM     21  O   UNL     1       0.733  10.559  19.702  0.00  0.00    +0.000 OA
BRANCH  20  22
ATOM     22  C   UNL     1      -0.478  12.102  21.214  0.00  0.00    +0.000 A 
ATOM     23  C   UNL     1      -1.356  11.693  22.241  0.00  0.00    +0.000 A 
ATOM     24  C   UNL     1      -1.675  12.522  23.320  0.00  0.00    +0.000 A 
ATOM     25  C   UNL     1      -1.181  13.815  23.355  0.00  0.00    +0.000 A 
ATOM     26 CL   UNL     1      -1.646  14.876  24.624  0.00  0.00    +0.000 Cl
ATOM     27  C   UNL     1      -0.258  14.230  22.400  0.00  0.00    +0.000 A 
ATOM     28  C   UNL     1       0.170  13.335  21.399  0.00  0.00    +0.000 A 
ATOM     29 BR   UNL     1       1.816  13.780  20.553  0.00  0.00    +0.000 Br
ENDBRANCH  20  22
ENDBRANCH  16  17
ENDBRANCH   1  16
TORSDOF 9
ENDMDL
