MODEL 1
REMARK VINA RESULT:      -7.6      0.000      0.000
REMARK  Name = 
REMARK  4 active torsions:
REMARK  status: ('A' for Active; 'I' for Inactive)
REMARK    1  A    between atoms: C_2  and  C_23
REMARK    2  A    between atoms: N_3  and  N_4
REMARK    3  A    between atoms: C_7  and  N_8
REMARK    4  A    between atoms: C_28  and  O_29
REMARK                            x       y       z     vdW  Elec       q    Type
REMARK                         _______ _______ _______ _____ _____    ______ ____
ROOT
ATOM      1  N   UNL     1       3.355   8.223  17.588  0.00  0.00    +0.000 N 
ATOM      2  C   UNL     1       3.539   6.812  17.535  0.00  0.00    +0.000 A 
ATOM      3  C   UNL     1       4.520   6.347  16.691  0.00  0.00    +0.000 A 
ATOM      4  C   UNL     1       4.727   4.989  16.626  0.00  0.00    +0.000 A 
ATOM      5  N   UNL     1       4.041   4.173  17.445  0.00  0.00    +0.000 NA
ATOM      6  C   UNL     1       3.096   4.680  18.260  0.00  0.00    +0.000 A 
ATOM      7  N   UNL     1       2.371   3.817  19.057  0.00  0.00    +0.000 N 
ATOM      8  C   UNL     1       1.393   4.349  20.013  0.00  0.00    +0.000 C 
ATOM      9  C   UNL     1       1.922   4.266  21.453  0.00  0.00    +0.000 C 
ATOM     10  O   UNL     1       2.361   2.935  21.777  0.00  0.00    +0.000 OA
ATOM     11  C   UNL     1       3.422   2.539  20.892  0.00  0.00    +0.000 C 
ATOM     12  C   UNL     1       2.957   2.525  19.425  0.00  0.00    +0.000 C 
ATOM     13  N   UNL     1       2.803   5.985  18.293  0.00  0.00    +0.000 NA
ATOM     14  H   UNL     1       4.108   8.624  18.157  0.00  0.00    +0.000 HD
ENDROOT
BRANCH   4  15
ATOM     15  N   UNL     1       5.628   4.443  15.735  0.00  0.00    +0.000 N 
ATOM     16  C   UNL     1       7.037   4.842  15.647  0.00  0.00    +0.000 C 
ATOM     17  C   UNL     1       7.395   5.188  14.191  0.00  0.00    +0.000 C 
ATOM     18  O   UNL     1       7.069   4.112  13.296  0.00  0.00    +0.000 OA
ATOM     19  C   UNL     1       5.656   3.845  13.344  0.00  0.00    +0.000 C 
ATOM     20  C   UNL     1       5.201   3.441  14.755  0.00  0.00    +0.000 C 
ENDBRANCH   4  15
BRANCH   1  23
ATOM     21  O   UNL     1       2.585  10.818  17.948  0.00  0.00    +0.000 OA
ATOM     22  C   UNL     1       1.768   9.920  18.139  0.00  0.00    +0.000 C 
ATOM     23  N   UNL     1       2.110   8.585  18.112  0.00  0.00    +0.000 N 
ATOM     24  H   UNL     1       1.400   7.855  18.155  0.00  0.00    +0.000 HD
BRANCH  22  25
ATOM     25  C   UNL     1       0.329  10.227  18.423  0.00  0.00    +0.000 A 
ATOM     26  C   UNL     1      -0.627   9.711  17.537  0.00  0.00    +0.000 A 
ATOM     27  C   UNL     1      -1.988   9.961  17.731  0.00  0.00    +0.000 A 
ATOM     28  C   UNL     1      -2.409  10.729  18.813  0.00  0.00    +0.000 A 
ATOM     29  C   UNL     1      -1.472  11.242  19.712  0.00  0.00    +0.000 A 
ATOM     30  C   UNL     1      -0.112  10.989  19.518  0.00  0.00    +0.000 A 
BRANCH  30  31
ATOM     31  O   UNL     1       0.781  11.494  20.432  0.00  0.00    +0.000 OA
ATOM     32  H   UNL     1       1.684  11.402  20.084  0.00  0.00    +0.000 HD
ENDBRANCH  30  31
ENDBRANCH  22  25
ENDBRANCH   1  23
TORSDOF 4
ENDMDL
MODEL 2
REMARK VINA RESULT:      -7.5      3.352      8.525
REMARK  Name = 
REMARK  4 active torsions:
REMARK  status: ('A' for Active; 'I' for Inactive)
REMARK    1  A    between atoms: C_2  and  C_23
REMARK    2  A    between atoms: N_3  and  N_4
REMARK    3  A    between atoms: C_7  and  N_8
REMARK    4  A    between atoms: C_28  and  O_29
REMARK                            x       y       z     vdW  Elec       q    Type
REMARK                         _______ _______ _______ _____ _____    ______ ____
ROOT
ATOM      1  N   UNL     1       2.491   9.063  17.783  0.00  0.00    +0.000 N 
ATOM      2  C   UNL     1       1.643  10.136  18.181  0.00  0.00    +0.000 A 
ATOM      3  C   UNL     1       2.229  11.374  18.307  0.00  0.00    +0.000 A 
ATOM      4  C   UNL     1       1.433  12.432  18.680  0.00  0.00    +0.000 A 
ATOM      5  N   UNL     1       0.108  12.249  18.819  0.00  0.00    +0.000 NA
ATOM      6  C   UNL     1      -0.417  11.017  18.677  0.00  0.00    +0.000 A 
ATOM      7  N   UNL     1      -1.773  10.845  18.872  0.00  0.00    +0.000 N 
ATOM      8  C   UNL     1      -2.385   9.531  18.645  0.00  0.00    +0.000 C 
ATOM      9  C   UNL     1      -3.188   9.512  17.335  0.00  0.00    +0.000 C 
ATOM     10  O   UNL     1      -4.135  10.592  17.281  0.00  0.00    +0.000 OA
ATOM     11  C   UNL     1      -3.448  11.853  17.361  0.00  0.00    +0.000 C 
ATOM     12  C   UNL     1      -2.671  11.988  18.682  0.00  0.00    +0.000 C 
ATOM     13  N   UNL     1       0.333   9.945  18.398  0.00  0.00    +0.000 NA
ATOM     14  H   UNL     1       2.660   9.144  16.775  0.00  0.00    +0.000 HD
ENDROOT
BRANCH   4  15
ATOM     15  N   UNL     1       1.967  13.681  18.916  0.00  0.00    +0.000 N 
ATOM     16  C   UNL     1       1.241  14.771  19.578  0.00  0.00    +0.000 C 
ATOM     17  C   UNL     1       1.313  16.047  18.721  0.00  0.00    +0.000 C 
ATOM     18  O   UNL     1       2.669  16.399  18.409  0.00  0.00    +0.000 OA
ATOM     19  C   UNL     1       3.291  15.339  17.661  0.00  0.00    +0.000 C 
ATOM     20  C   UNL     1       3.315  14.022  18.452  0.00  0.00    +0.000 C 
ENDBRANCH   4  15
BRANCH   1  23
ATOM     21  O   UNL     1       3.934   6.748  17.661  0.00  0.00    +0.000 OA
ATOM     22  C   UNL     1       2.791   6.717  18.111  0.00  0.00    +0.000 C 
ATOM     23  N   UNL     1       1.950   7.809  18.083  0.00  0.00    +0.000 N 
ATOM     24  H   UNL     1       1.052   7.800  18.564  0.00  0.00    +0.000 HD
BRANCH  22  25
ATOM     25  C   UNL     1       2.231   5.470  18.724  0.00  0.00    +0.000 A 
ATOM     26  C   UNL     1       2.033   4.368  17.880  0.00  0.00    +0.000 A 
ATOM     27  C   UNL     1       1.507   3.173  18.377  0.00  0.00    +0.000 A 
ATOM     28  C   UNL     1       1.173   3.065  19.724  0.00  0.00    +0.000 A 
ATOM     29  C   UNL     1       1.373   4.148  20.583  0.00  0.00    +0.000 A 
ATOM     30  C   UNL     1       1.902   5.341  20.084  0.00  0.00    +0.000 A 
BRANCH  30  31
ATOM     31  O   UNL     1       2.102   6.380  20.960  0.00  0.00    +0.000 OA
ATOM     32  H   UNL     1       1.329   6.969  20.944  0.00  0.00    +0.000 HD
ENDBRANCH  30  31
ENDBRANCH  22  25
ENDBRANCH   1  23
TORSDOF 4
ENDMDL
MODEL 3
REMARK VINA RESULT:      -7.3      3.336      8.410
REMARK  Name = 
REMARK  4 active torsions:
REMARK  status: ('A' for Active; 'I' for Inactive)
REMARK    1  A    between atoms: C_2  and  C_23
REMARK    2  A    between atoms: N_3  and  N_4
REMARK    3  A    between atoms: C_7  and  N_8
REMARK    4  A    between atoms: C_28  and  O_29
REMARK                            x       y       z     vdW  Elec       q    Type
REMARK                         _______ _______ _______ _____ _____    ______ ____
ROOT
ATOM      1  N   UNL     1       2.511   8.983  17.754  0.00  0.00    +0.000 N 
ATOM      2  C   UNL     1       1.672  10.057  18.168  0.00  0.00    +0.000 A 
ATOM      3  C   UNL     1       2.271  11.286  18.320  0.00  0.00    +0.000 A 
ATOM      4  C   UNL     1       1.484  12.345  18.709  0.00  0.00    +0.000 A 
ATOM      5  N   UNL     1       0.157  12.174  18.837  0.00  0.00    +0.000 NA
ATOM      6  C   UNL     1      -0.381  10.951  18.669  0.00  0.00    +0.000 A 
ATOM      7  N   UNL     1      -1.740  10.790  18.852  0.00  0.00    +0.000 N 
ATOM      8  C   UNL     1      -2.365   9.488  18.597  0.00  0.00    +0.000 C 
ATOM      9  C   UNL     1      -3.160   9.502  17.282  0.00  0.00    +0.000 C 
ATOM     10  O   UNL     1      -4.096  10.594  17.244  0.00  0.00    +0.000 OA
ATOM     11  C   UNL     1      -3.395  11.845  17.352  0.00  0.00    +0.000 C 
ATOM     12  C   UNL     1      -2.624  11.946  18.680  0.00  0.00    +0.000 C 
ATOM     13  N   UNL     1       0.359   9.877  18.373  0.00  0.00    +0.000 NA
ATOM     14  H   UNL     1       2.686   9.081  16.748  0.00  0.00    +0.000 HD
ENDROOT
BRANCH   4  15
ATOM     15  N   UNL     1       2.030  13.584  18.972  0.00  0.00    +0.000 N 
ATOM     16  C   UNL     1       2.872  14.326  18.027  0.00  0.00    +0.000 C 
ATOM     17  C   UNL     1       4.178  14.760  18.716  0.00  0.00    +0.000 C 
ATOM     18  O   UNL     1       3.921  15.497  19.921  0.00  0.00    +0.000 OA
ATOM     19  C   UNL     1       3.192  14.677  20.851  0.00  0.00    +0.000 C 
ATOM     20  C   UNL     1       1.841  14.227  20.275  0.00  0.00    +0.000 C 
ENDBRANCH   4  15
BRANCH   1  23
ATOM     21  O   UNL     1       3.974   6.678  17.792  0.00  0.00    +0.000 OA
ATOM     22  C   UNL     1       2.797   6.644  18.144  0.00  0.00    +0.000 C 
ATOM     23  N   UNL     1       1.954   7.729  18.027  0.00  0.00    +0.000 N 
ATOM     24  H   UNL     1       1.019   7.720  18.430  0.00  0.00    +0.000 HD
BRANCH  22  25
ATOM     25  C   UNL     1       2.195   5.402  18.727  0.00  0.00    +0.000 A 
ATOM     26  C   UNL     1       1.958   4.330  17.855  0.00  0.00    +0.000 A 
ATOM     27  C   UNL     1       1.392   3.141  18.324  0.00  0.00    +0.000 A 
ATOM     28  C   UNL     1       1.056   3.011  19.669  0.00  0.00    +0.000 A 
ATOM     29  C   UNL     1       1.295   4.065  20.553  0.00  0.00    +0.000 A 
ATOM     30  C   UNL     1       1.864   5.251  20.084  0.00  0.00    +0.000 A 
BRANCH  30  31
ATOM     31  O   UNL     1       2.102   6.261  20.985  0.00  0.00    +0.000 OA
ATOM     32  H   UNL     1       3.043   6.497  20.962  0.00  0.00    +0.000 HD
ENDBRANCH  30  31
ENDBRANCH  22  25
ENDBRANCH   1  23
TORSDOF 4
ENDMDL
MODEL 4
REMARK VINA RESULT:      -7.3      3.669      5.922
REMARK  Name = 
REMARK  4 active torsions:
REMARK  status: ('A' for Active; 'I' for Inactive)
REMARK    1  A    between atoms: C_2  and  C_23
REMARK    2  A    between atoms: N_3  and  N_4
REMARK    3  A    between atoms: C_7  and  N_8
REMARK    4  A    between atoms: C_28  and  O_29
REMARK                            x       y       z     vdW  Elec       q    Type
REMARK                         _______ _______ _______ _____ _____    ______ ____
ROOT
ATOM      1  N   UNL     1       2.725  12.018  17.650  0.00  0.00    +0.000 N 
ATOM      2  C   UNL     1       2.162  10.847  18.233  0.00  0.00    +0.000 A 
ATOM      3  C   UNL     1       2.735   9.645  17.885  0.00  0.00    +0.000 A 
ATOM      4  C   UNL     1       2.219   8.498  18.441  0.00  0.00    +0.000 A 
ATOM      5  N   UNL     1       1.246   8.587  19.365  0.00  0.00    +0.000 NA
ATOM      6  C   UNL     1       0.724   9.789  19.675  0.00  0.00    +0.000 A 
ATOM      7  N   UNL     1      -0.307   9.851  20.591  0.00  0.00    +0.000 N 
ATOM      8  C   UNL     1      -0.839  11.153  21.009  0.00  0.00    +0.000 C 
ATOM      9  C   UNL     1      -0.369  11.516  22.427  0.00  0.00    +0.000 C 
ATOM     10  O   UNL     1      -0.657  10.462  23.363  0.00  0.00    +0.000 OA
ATOM     11  C   UNL     1       0.018   9.256  22.967  0.00  0.00    +0.000 C 
ATOM     12  C   UNL     1      -0.447   8.779  21.580  0.00  0.00    +0.000 C 
ATOM     13  N   UNL     1       1.139  10.922  19.096  0.00  0.00    +0.000 NA
ATOM     14  H   UNL     1       3.599  12.233  18.140  0.00  0.00    +0.000 HD
ENDROOT
BRANCH   4  15
ATOM     15  N   UNL     1       2.680   7.253  18.070  0.00  0.00    +0.000 N 
ATOM     16  C   UNL     1       2.002   5.995  18.403  0.00  0.00    +0.000 C 
ATOM     17  C   UNL     1       2.995   5.019  19.057  0.00  0.00    +0.000 C 
ATOM     18  O   UNL     1       4.157   4.818  18.237  0.00  0.00    +0.000 OA
ATOM     19  C   UNL     1       4.842   6.068  18.041  0.00  0.00    +0.000 C 
ATOM     20  C   UNL     1       3.946   7.105  17.347  0.00  0.00    +0.000 C 
ENDBRANCH   4  15
BRANCH   1  23
ATOM     21  O   UNL     1       2.918  13.980  19.539  0.00  0.00    +0.000 OA
ATOM     22  C   UNL     1       2.116  14.114  18.618  0.00  0.00    +0.000 C 
ATOM     23  N   UNL     1       1.860  13.115  17.702  0.00  0.00    +0.000 N 
ATOM     24  H   UNL     1       1.283  13.285  16.880  0.00  0.00    +0.000 HD
BRANCH  22  25
ATOM     25  C   UNL     1       1.351  15.389  18.433  0.00  0.00    +0.000 A 
ATOM     26  C   UNL     1       2.078  16.529  18.061  0.00  0.00    +0.000 A 
ATOM     27  C   UNL     1       1.435  17.757  17.877  0.00  0.00    +0.000 A 
ATOM     28  C   UNL     1       0.059  17.859  18.063  0.00  0.00    +0.000 A 
ATOM     29  C   UNL     1      -0.682  16.731  18.423  0.00  0.00    +0.000 A 
ATOM     30  C   UNL     1      -0.039  15.505  18.603  0.00  0.00    +0.000 A 
BRANCH  30  31
ATOM     31  O   UNL     1      -0.802  14.412  18.939  0.00  0.00    +0.000 OA
ATOM     32  H   UNL     1      -0.926  14.390  19.902  0.00  0.00    +0.000 HD
ENDBRANCH  30  31
ENDBRANCH  22  25
ENDBRANCH   1  23
TORSDOF 4
ENDMDL
MODEL 5
REMARK VINA RESULT:      -7.3      4.269     10.407
REMARK  Name = 
REMARK  4 active torsions:
REMARK  status: ('A' for Active; 'I' for Inactive)
REMARK    1  A    between atoms: C_2  and  C_23
REMARK    2  A    between atoms: N_3  and  N_4
REMARK    3  A    between atoms: C_7  and  N_8
REMARK    4  A    between atoms: C_28  and  O_29
REMARK                            x       y       z     vdW  Elec       q    Type
REMARK                         _______ _______ _______ _____ _____    ______ ____
ROOT
ATOM      1  N   UNL     1       0.727   9.629  22.589  0.00  0.00    +0.000 N 
ATOM      2  C   UNL     1       0.024  10.681  21.935  0.00  0.00    +0.000 A 
ATOM      3  C   UNL     1      -1.131  11.123  22.540  0.00  0.00    +0.000 A 
ATOM      4  C   UNL     1      -1.826  12.145  21.938  0.00  0.00    +0.000 A 
ATOM      5  N   UNL     1      -1.318  12.739  20.843  0.00  0.00    +0.000 NA
ATOM      6  C   UNL     1      -0.180  12.273  20.295  0.00  0.00    +0.000 A 
ATOM      7  N   UNL     1       0.297  12.867  19.143  0.00  0.00    +0.000 N 
ATOM      8  C   UNL     1       1.576  12.434  18.570  0.00  0.00    +0.000 C 
ATOM      9  C   UNL     1       2.681  13.468  18.835  0.00  0.00    +0.000 C 
ATOM     10  O   UNL     1       2.287  14.783  18.406  0.00  0.00    +0.000 OA
ATOM     11  C   UNL     1       1.110  15.200  19.118  0.00  0.00    +0.000 C 
ATOM     12  C   UNL     1      -0.075  14.255  18.852  0.00  0.00    +0.000 C 
ATOM     13  N   UNL     1       0.483  11.226  20.799  0.00  0.00    +0.000 NA
ATOM     14  H   UNL     1       1.234  10.027  23.385  0.00  0.00    +0.000 HD
ENDROOT
BRANCH   4  15
ATOM     15  N   UNL     1      -3.037  12.577  22.435  0.00  0.00    +0.000 N 
ATOM     16  C   UNL     1      -4.033  13.309  21.644  0.00  0.00    +0.000 C 
ATOM     17  C   UNL     1      -4.454  14.590  22.385  0.00  0.00    +0.000 C 
ATOM     18  O   UNL     1      -4.908  14.306  23.717  0.00  0.00    +0.000 OA
ATOM     19  C   UNL     1      -3.851  13.693  24.476  0.00  0.00    +0.000 C 
ATOM     20  C   UNL     1      -3.387  12.373  23.843  0.00  0.00    +0.000 C 
ENDBRANCH   4  15
BRANCH   1  23
ATOM     21  O   UNL     1       0.087   7.319  21.281  0.00  0.00    +0.000 OA
ATOM     22  C   UNL     1       1.154   7.873  21.027  0.00  0.00    +0.000 C 
ATOM     23  N   UNL     1       1.613   8.963  21.736  0.00  0.00    +0.000 N 
ATOM     24  H   UNL     1       2.439   9.480  21.437  0.00  0.00    +0.000 HD
BRANCH  22  25
ATOM     25  C   UNL     1       2.037   7.389  19.918  0.00  0.00    +0.000 A 
ATOM     26  C   UNL     1       2.217   8.239  18.818  0.00  0.00    +0.000 A 
ATOM     27  C   UNL     1       3.020   7.853  17.741  0.00  0.00    +0.000 A 
ATOM     28  C   UNL     1       3.652   6.613  17.751  0.00  0.00    +0.000 A 
ATOM     29  C   UNL     1       3.493   5.757  18.844  0.00  0.00    +0.000 A 
ATOM     30  C   UNL     1       2.693   6.146  19.920  0.00  0.00    +0.000 A 
BRANCH  30  31
ATOM     31  O   UNL     1       2.573   5.287  20.986  0.00  0.00    +0.000 OA
ATOM     32  H   UNL     1       3.250   4.594  20.918  0.00  0.00    +0.000 HD
ENDBRANCH  30  31
ENDBRANCH  22  25
ENDBRANCH   1  23
TORSDOF 4
ENDMDL
MODEL 6
REMARK VINA RESULT:      -7.2      4.383     10.365
REMARK  Name = 
REMARK  4 active torsions:
REMARK  status: ('A' for Active; 'I' for Inactive)
REMARK    1  A    between atoms: C_2  and  C_23
REMARK    2  A    between atoms: N_3  and  N_4
REMARK    3  A    between atoms: C_7  and  N_8
REMARK    4  A    between atoms: C_28  and  O_29
REMARK                            x       y       z     vdW  Elec       q    Type
REMARK                         _______ _______ _______ _____ _____    ______ ____
ROOT
ATOM      1  N   UNL     1       0.685   9.792  22.721  0.00  0.00    +0.000 N 
ATOM      2  C   UNL     1       0.004  10.850  22.053  0.00  0.00    +0.000 A 
ATOM      3  C   UNL     1      -1.124  11.344  22.666  0.00  0.00    +0.000 A 
ATOM      4  C   UNL     1      -1.797  12.372  22.050  0.00  0.00    +0.000 A 
ATOM      5  N   UNL     1      -1.291  12.922  20.932  0.00  0.00    +0.000 NA
ATOM      6  C   UNL     1      -0.178  12.406  20.376  0.00  0.00    +0.000 A 
ATOM      7  N   UNL     1       0.296  12.956  19.202  0.00  0.00    +0.000 N 
ATOM      8  C   UNL     1       1.550  12.467  18.617  0.00  0.00    +0.000 C 
ATOM      9  C   UNL     1       2.693  13.471  18.837  0.00  0.00    +0.000 C 
ATOM     10  O   UNL     1       2.333  14.787  18.381  0.00  0.00    +0.000 OA
ATOM     11  C   UNL     1       1.183  15.260  19.102  0.00  0.00    +0.000 C 
ATOM     12  C   UNL     1      -0.036  14.347  18.881  0.00  0.00    +0.000 C 
ATOM     13  N   UNL     1       0.460  11.351  20.896  0.00  0.00    +0.000 NA
ATOM     14  H   UNL     1       1.219  10.194  23.498  0.00  0.00    +0.000 HD
ENDROOT
BRANCH   4  15
ATOM     15  N   UNL     1      -2.985  12.855  22.556  0.00  0.00    +0.000 N 
ATOM     16  C   UNL     1      -3.263  13.012  23.988  0.00  0.00    +0.000 C 
ATOM     17  C   UNL     1      -4.594  12.327  24.344  0.00  0.00    +0.000 C 
ATOM     18  O   UNL     1      -5.670  12.801  23.520  0.00  0.00    +0.000 OA
ATOM     19  C   UNL     1      -5.391  12.516  22.137  0.00  0.00    +0.000 C 
ATOM     20  C   UNL     1      -4.098  13.198  21.666  0.00  0.00    +0.000 C 
ENDBRANCH   4  15
BRANCH   1  23
ATOM     21  O   UNL     1      -0.110   7.576  21.338  0.00  0.00    +0.000 OA
ATOM     22  C   UNL     1       1.004   8.047  21.123  0.00  0.00    +0.000 C 
ATOM     23  N   UNL     1       1.534   9.077  21.870  0.00  0.00    +0.000 N 
ATOM     24  H   UNL     1       2.406   9.531  21.603  0.00  0.00    +0.000 HD
BRANCH  22  25
ATOM     25  C   UNL     1       1.871   7.518  20.020  0.00  0.00    +0.000 A 
ATOM     26  C   UNL     1       2.085   8.351  18.913  0.00  0.00    +0.000 A 
ATOM     27  C   UNL     1       2.876   7.925  17.841  0.00  0.00    +0.000 A 
ATOM     28  C   UNL     1       3.461   6.662  17.866  0.00  0.00    +0.000 A 
ATOM     29  C   UNL     1       3.267   5.823  18.966  0.00  0.00    +0.000 A 
ATOM     30  C   UNL     1       2.480   6.252  20.036  0.00  0.00    +0.000 A 
BRANCH  30  31
ATOM     31  O   UNL     1       2.326   5.409  21.110  0.00  0.00    +0.000 OA
ATOM     32  H   UNL     1       2.318   4.489  20.798  0.00  0.00    +0.000 HD
ENDBRANCH  30  31
ENDBRANCH  22  25
ENDBRANCH   1  23
TORSDOF 4
ENDMDL
MODEL 7
REMARK VINA RESULT:      -7.1      4.108     10.294
REMARK  Name = 
REMARK  4 active torsions:
REMARK  status: ('A' for Active; 'I' for Inactive)
REMARK    1  A    between atoms: C_2  and  C_23
REMARK    2  A    between atoms: N_3  and  N_4
REMARK    3  A    between atoms: C_7  and  N_8
REMARK    4  A    between atoms: C_28  and  O_29
REMARK                            x       y       z     vdW  Elec       q    Type
REMARK                         _______ _______ _______ _____ _____    ______ ____
ROOT
ATOM      1  N   UNL     1       0.880   9.503  22.320  0.00  0.00    +0.000 N 
ATOM      2  C   UNL     1       0.169  10.588  21.729  0.00  0.00    +0.000 A 
ATOM      3  C   UNL     1      -0.995  10.977  22.351  0.00  0.00    +0.000 A 
ATOM      4  C   UNL     1      -1.697  12.028  21.810  0.00  0.00    +0.000 A 
ATOM      5  N   UNL     1      -1.188  12.696  20.760  0.00  0.00    +0.000 NA
ATOM      6  C   UNL     1      -0.040  12.279  20.193  0.00  0.00    +0.000 A 
ATOM      7  N   UNL     1       0.439  12.952  19.086  0.00  0.00    +0.000 N 
ATOM      8  C   UNL     1       1.727  12.571  18.497  0.00  0.00    +0.000 C 
ATOM      9  C   UNL     1       2.818  13.598  18.837  0.00  0.00    +0.000 C 
ATOM     10  O   UNL     1       2.412  14.933  18.489  0.00  0.00    +0.000 OA
ATOM     11  C   UNL     1       1.225  15.290  19.217  0.00  0.00    +0.000 C 
ATOM     12  C   UNL     1       0.053  14.351  18.881  0.00  0.00    +0.000 C 
ATOM     13  N   UNL     1       0.631  11.210  20.635  0.00  0.00    +0.000 NA
ATOM     14  H   UNL     1       1.376   9.856  23.145  0.00  0.00    +0.000 HD
ENDROOT
BRANCH   4  15
ATOM     15  N   UNL     1      -2.917  12.413  22.323  0.00  0.00    +0.000 N 
ATOM     16  C   UNL     1      -3.999  12.992  21.518  0.00  0.00    +0.000 C 
ATOM     17  C   UNL     1      -4.488  14.302  22.159  0.00  0.00    +0.000 C 
ATOM     18  O   UNL     1      -4.864  14.112  23.532  0.00  0.00    +0.000 OA
ATOM     19  C   UNL     1      -3.732  13.653  24.292  0.00  0.00    +0.000 C 
ATOM     20  C   UNL     1      -3.193  12.317  23.759  0.00  0.00    +0.000 C 
ENDBRANCH   4  15
BRANCH   1  23
ATOM     21  O   UNL     1       0.468   7.042  21.213  0.00  0.00    +0.000 OA
ATOM     22  C   UNL     1       1.423   7.715  20.834  0.00  0.00    +0.000 C 
ATOM     23  N   UNL     1       1.780   8.904  21.433  0.00  0.00    +0.000 N 
ATOM     24  H   UNL     1       2.499   9.504  21.033  0.00  0.00    +0.000 HD
BRANCH  22  25
ATOM     25  C   UNL     1       2.275   7.275  19.683  0.00  0.00    +0.000 A 
ATOM     26  C   UNL     1       2.941   6.048  19.804  0.00  0.00    +0.000 A 
ATOM     27  C   UNL     1       3.761   5.575  18.775  0.00  0.00    +0.000 A 
ATOM     28  C   UNL     1       3.923   6.324  17.613  0.00  0.00    +0.000 A 
ATOM     29  C   UNL     1       3.258   7.544  17.470  0.00  0.00    +0.000 A 
ATOM     30  C   UNL     1       2.438   8.012  18.498  0.00  0.00    +0.000 A 
BRANCH  30  31
ATOM     31  O   UNL     1       1.784   9.208  18.316  0.00  0.00    +0.000 OA
ATOM     32  H   UNL     1       2.194   9.887  18.876  0.00  0.00    +0.000 HD
ENDBRANCH  30  31
ENDBRANCH  22  25
ENDBRANCH   1  23
TORSDOF 4
ENDMDL
MODEL 8
REMARK VINA RESULT:      -7.1      3.907      6.142
REMARK  Name = 
REMARK  4 active torsions:
REMARK  status: ('A' for Active; 'I' for Inactive)
REMARK    1  A    between atoms: C_2  and  C_23
REMARK    2  A    between atoms: N_3  and  N_4
REMARK    3  A    between atoms: C_7  and  N_8
REMARK    4  A    between atoms: C_28  and  O_29
REMARK                            x       y       z     vdW  Elec       q    Type
REMARK                         _______ _______ _______ _____ _____    ______ ____
ROOT
ATOM      1  N   UNL     1       2.674  12.269  17.753  0.00  0.00    +0.000 N 
ATOM      2  C   UNL     1       2.107  11.088  18.311  0.00  0.00    +0.000 A 
ATOM      3  C   UNL     1       2.685   9.893  17.949  0.00  0.00    +0.000 A 
ATOM      4  C   UNL     1       2.165   8.736  18.481  0.00  0.00    +0.000 A 
ATOM      5  N   UNL     1       1.184   8.808  19.397  0.00  0.00    +0.000 NA
ATOM      6  C   UNL     1       0.658  10.004  19.723  0.00  0.00    +0.000 A 
ATOM      7  N   UNL     1      -0.382  10.050  20.630  0.00  0.00    +0.000 N 
ATOM      8  C   UNL     1      -0.920  11.344  21.065  0.00  0.00    +0.000 C 
ATOM      9  C   UNL     1      -0.463  11.683  22.493  0.00  0.00    +0.000 C 
ATOM     10  O   UNL     1      -0.758  10.613  23.408  0.00  0.00    +0.000 OA
ATOM     11  C   UNL     1      -0.078   9.415  22.998  0.00  0.00    +0.000 C 
ATOM     12  C   UNL     1      -0.530   8.960  21.599  0.00  0.00    +0.000 C 
ATOM     13  N   UNL     1       1.076  11.147  19.167  0.00  0.00    +0.000 NA
ATOM     14  H   UNL     1       3.543  12.476  18.255  0.00  0.00    +0.000 HD
ENDROOT
BRANCH   4  15
ATOM     15  N   UNL     1       2.631   7.497  18.093  0.00  0.00    +0.000 N 
ATOM     16  C   UNL     1       2.173   6.231  18.673  0.00  0.00    +0.000 C 
ATOM     17  C   UNL     1       3.381   5.390  19.121  0.00  0.00    +0.000 C 
ATOM     18  O   UNL     1       4.318   5.197  18.050  0.00  0.00    +0.000 OA
ATOM     19  C   UNL     1       4.817   6.470  17.600  0.00  0.00    +0.000 C 
ATOM     20  C   UNL     1       3.688   7.374  17.085  0.00  0.00    +0.000 C 
ENDBRANCH   4  15
BRANCH   1  23
ATOM     21  O   UNL     1       3.088  14.406  19.402  0.00  0.00    +0.000 OA
ATOM     22  C   UNL     1       2.168  14.448  18.589  0.00  0.00    +0.000 C 
ATOM     23  N   UNL     1       1.807  13.364  17.816  0.00  0.00    +0.000 N 
ATOM     24  H   UNL     1       1.122  13.452  17.067  0.00  0.00    +0.000 HD
BRANCH  22  25
ATOM     25  C   UNL     1       1.366  15.697  18.387  0.00  0.00    +0.000 A 
ATOM     26  C   UNL     1       0.001  15.647  18.708  0.00  0.00    +0.000 A 
ATOM     27  C   UNL     1      -0.813  16.770  18.538  0.00  0.00    +0.000 A 
ATOM     28  C   UNL     1      -0.274  17.956  18.047  0.00  0.00    +0.000 A 
ATOM     29  C   UNL     1       1.086  18.027  17.733  0.00  0.00    +0.000 A 
ATOM     30  C   UNL     1       1.898  16.905  17.906  0.00  0.00    +0.000 A 
BRANCH  30  31
ATOM     31  O   UNL     1       3.234  17.016  17.604  0.00  0.00    +0.000 OA
ATOM     32  H   UNL     1       3.597  17.807  18.037  0.00  0.00    +0.000 HD
ENDBRANCH  30  31
ENDBRANCH  22  25
ENDBRANCH   1  23
TORSDOF 4
ENDMDL
MODEL 9
REMARK VINA RESULT:      -7.0      1.216      1.667
REMARK  Name = 
REMARK  4 active torsions:
REMARK  status: ('A' for Active; 'I' for Inactive)
REMARK    1  A    between atoms: C_2  and  C_23
REMARK    2  A    between atoms: N_3  and  N_4
REMARK    3  A    between atoms: C_7  and  N_8
REMARK    4  A    between atoms: C_28  and  O_29
REMARK                            x       y       z     vdW  Elec       q    Type
REMARK                         _______ _______ _______ _____ _____    ______ ____
ROOT
ATOM      1  N   UNL     1       2.522   9.037  17.991  0.00  0.00    +0.000 N 
ATOM      2  C   UNL     1       2.947   7.686  17.839  0.00  0.00    +0.000 A 
ATOM      3  C   UNL     1       4.175   7.485  17.251  0.00  0.00    +0.000 A 
ATOM      4  C   UNL     1       4.616   6.191  17.100  0.00  0.00    +0.000 A 
ATOM      5  N   UNL     1       3.890   5.179  17.607  0.00  0.00    +0.000 NA
ATOM      6  C   UNL     1       2.697   5.430  18.180  0.00  0.00    +0.000 A 
ATOM      7  N   UNL     1       1.948   4.370  18.650  0.00  0.00    +0.000 N 
ATOM      8  C   UNL     1       0.684   4.620  19.351  0.00  0.00    +0.000 C 
ATOM      9  C   UNL     1       0.834   4.395  20.864  0.00  0.00    +0.000 C 
ATOM     10  O   UNL     1       1.392   3.101  21.151  0.00  0.00    +0.000 OA
ATOM     11  C   UNL     1       2.695   2.984  20.554  0.00  0.00    +0.000 C 
ATOM     12  C   UNL     1       2.628   3.127  19.023  0.00  0.00    +0.000 C 
ATOM     13  N   UNL     1       2.192   6.665  18.271  0.00  0.00    +0.000 NA
ATOM     14  H   UNL     1       3.028   9.445  18.784  0.00  0.00    +0.000 HD
ENDROOT
BRANCH   4  15
ATOM     15  N   UNL     1       5.791   5.908  16.438  0.00  0.00    +0.000 N 
ATOM     16  C   UNL     1       5.870   5.590  15.008  0.00  0.00    +0.000 C 
ATOM     17  C   UNL     1       6.657   4.284  14.803  0.00  0.00    +0.000 C 
ATOM     18  O   UNL     1       7.949   4.341  15.426  0.00  0.00    +0.000 OA
ATOM     19  C   UNL     1       7.802   4.541  16.844  0.00  0.00    +0.000 C 
ATOM     20  C   UNL     1       7.065   5.851  17.160  0.00  0.00    +0.000 C 
ENDBRANCH   4  15
BRANCH   1  23
ATOM     21  O   UNL     1       1.298  11.382  18.668  0.00  0.00    +0.000 OA
ATOM     22  C   UNL     1       0.606  10.400  18.406  0.00  0.00    +0.000 C 
ATOM     23  N   UNL     1       1.142   9.148  18.188  0.00  0.00    +0.000 N 
ATOM     24  H   UNL     1       0.567   8.376  17.858  0.00  0.00    +0.000 HD
BRANCH  22  25
ATOM     25  C   UNL     1      -0.885  10.504  18.310  0.00  0.00    +0.000 A 
ATOM     26  C   UNL     1      -1.533   9.663  17.394  0.00  0.00    +0.000 A 
ATOM     27  C   UNL     1      -2.922   9.708  17.242  0.00  0.00    +0.000 A 
ATOM     28  C   UNL     1      -3.679  10.593  18.005  0.00  0.00    +0.000 A 
ATOM     29  C   UNL     1      -3.052  11.430  18.931  0.00  0.00    +0.000 A 
ATOM     30  C   UNL     1      -1.664  11.381  19.083  0.00  0.00    +0.000 A 
BRANCH  30  31
ATOM     31  O   UNL     1      -1.082  12.206  20.016  0.00  0.00    +0.000 OA
ATOM     32  H   UNL     1      -0.155  11.945  20.142  0.00  0.00    +0.000 HD
ENDBRANCH  30  31
ENDBRANCH  22  25
ENDBRANCH   1  23
TORSDOF 4
ENDMDL
