MODEL 1
REMARK VINA RESULT:      -6.8      0.000      0.000
REMARK  Name = 
REMARK  13 active torsions:
REMARK  status: ('A' for Active; 'I' for Inactive)
REMARK    1  A    between atoms: C_1  and  O_2
REMARK    2  A    between atoms: O_2  and  C_3
REMARK    3  A    between atoms: C_10  and  O_11
REMARK    4  A    between atoms: O_11  and  C_12
REMARK    5  A    between atoms: C_13  and  O_14
REMARK    6  A    between atoms: O_14  and  C_15
REMARK    7  A    between atoms: N_21  and  C_22
REMARK    8  A    between atoms: C_22  and  C_23
REMARK    9  A    between atoms: C_23  and  N_24
REMARK   10  A    between atoms: N_24  and  C_25
REMARK   11  A    between atoms: N_24  and  C_26
REMARK   12  A    between atoms: C_30  and  O_31
REMARK   13  A    between atoms: O_31  and  C_32
REMARK                            x       y       z     vdW  Elec       q    Type
REMARK                         _______ _______ _______ _____ _____    ______ ____
ROOT
ATOM      1  C   UNL     1      -1.920  12.111  23.103  0.00  0.00    +0.000 A 
ATOM      2  C   UNL     1      -1.477  10.801  23.250  0.00  0.00    +0.000 A 
ATOM      3  C   UNL     1      -0.580  10.208  22.351  0.00  0.00    +0.000 A 
ATOM      4  C   UNL     1      -0.272   8.889  22.598  0.00  0.00    +0.000 A 
ATOM      5  C   UNL     1       0.553   8.182  21.743  0.00  0.00    +0.000 A 
ATOM      6  C   UNL     1       1.091   8.721  20.566  0.00  0.00    +0.000 A 
ATOM      7  C   UNL     1       1.938   7.877  19.654  0.00  0.00    +0.000 A 
ATOM      8  C   UNL     1       2.324   6.499  19.848  0.00  0.00    +0.000 A 
ATOM      9  C   UNL     1       3.150   5.806  18.915  0.00  0.00    +0.000 A 
ATOM     10  C   UNL     1       3.599   6.465  17.782  0.00  0.00    +0.000 A 
ATOM     11  C   UNL     1       3.232   7.787  17.568  0.00  0.00    +0.000 A 
ATOM     12  C   UNL     1       2.420   8.476  18.489  0.00  0.00    +0.000 A 
ATOM     13  C   UNL     1       2.079   9.866  18.145  0.00  0.00    +0.000 A 
ATOM     14  O   UNL     1       2.526  10.307  17.084  0.00  0.00    +0.000 OA
ATOM     15  N   UNL     1       1.284  10.630  19.010  0.00  0.00    +0.000 N 
ATOM     16  C   UNL     1       0.794  10.107  20.281  0.00  0.00    +0.000 A 
ATOM     17  C   UNL     1      -0.021  10.890  21.240  0.00  0.00    +0.000 A 
ATOM     18  C   UNL     1      -0.358  12.281  21.265  0.00  0.00    +0.000 A 
ATOM     19  C   UNL     1      -1.283  12.893  22.147  0.00  0.00    +0.000 A 
ENDROOT
BRANCH   1  21
ATOM     20  C   UNL     1      -4.210  12.709  23.243  0.00  0.00    +0.000 C 
ATOM     21  O   UNL     1      -2.930  12.617  23.879  0.00  0.00    +0.000 OA
ENDBRANCH   1  21
BRANCH   8  22
ATOM     22  O   UNL     1       1.743   5.800  20.886  0.00  0.00    +0.000 OA
ATOM     23  C   UNL     1       1.052   4.591  20.576  0.00  0.00    +0.000 C 
ENDBRANCH   8  22
BRANCH   9  24
ATOM     24  O   UNL     1       3.427   4.486  19.157  0.00  0.00    +0.000 OA
ATOM     25  C   UNL     1       3.862   3.669  18.078  0.00  0.00    +0.000 C 
ENDBRANCH   9  24
BRANCH  19  26
ATOM     26  O   UNL     1      -1.430  14.230  21.892  0.00  0.00    +0.000 OA
ATOM     27  C   UNL     1      -0.787  15.180  22.731  0.00  0.00    +0.000 C 
ENDBRANCH  19  26
BRANCH  15  28
ATOM     28  C   UNL     1       1.018  11.977  18.479  0.00  0.00    +0.000 C 
BRANCH  28  29
ATOM     29  C   UNL     1       2.156  12.968  18.856  0.00  0.00    +0.000 C 
BRANCH  29  30
ATOM     30  N   UNL     1       2.027  14.383  18.439  0.00  0.00    +0.000 NA
ATOM     31  C   UNL     1       1.130  15.161  19.287  0.00  0.00    +0.000 C 
ATOM     32  C   UNL     1       3.360  15.004  18.413  0.00  0.00    +0.000 C 
ENDBRANCH  29  30
ENDBRANCH  28  29
ENDBRANCH  15  28
TORSDOF 7
ENDMDL
MODEL 2
REMARK VINA RESULT:      -6.7      1.280      1.980
REMARK  Name = 
REMARK  13 active torsions:
REMARK  status: ('A' for Active; 'I' for Inactive)
REMARK    1  A    between atoms: C_1  and  O_2
REMARK    2  A    between atoms: O_2  and  C_3
REMARK    3  A    between atoms: C_10  and  O_11
REMARK    4  A    between atoms: O_11  and  C_12
REMARK    5  A    between atoms: C_13  and  O_14
REMARK    6  A    between atoms: O_14  and  C_15
REMARK    7  A    between atoms: N_21  and  C_22
REMARK    8  A    between atoms: C_22  and  C_23
REMARK    9  A    between atoms: C_23  and  N_24
REMARK   10  A    between atoms: N_24  and  C_25
REMARK   11  A    between atoms: N_24  and  C_26
REMARK   12  A    between atoms: C_30  and  O_31
REMARK   13  A    between atoms: O_31  and  C_32
REMARK                            x       y       z     vdW  Elec       q    Type
REMARK                         _______ _______ _______ _____ _____    ______ ____
ROOT
ATOM      1  C   UNL     1      -2.063  12.065  23.310  0.00  0.00    +0.000 A 
ATOM      2  C   UNL     1      -1.556  10.775  23.432  0.00  0.00    +0.000 A 
ATOM      3  C   UNL     1      -0.665  10.227  22.499  0.00  0.00    +0.000 A 
ATOM      4  C   UNL     1      -0.291   8.922  22.726  0.00  0.00    +0.000 A 
ATOM      5  C   UNL     1       0.536   8.258  21.838  0.00  0.00    +0.000 A 
ATOM      6  C   UNL     1       1.009   8.827  20.648  0.00  0.00    +0.000 A 
ATOM      7  C   UNL     1       1.861   8.028  19.702  0.00  0.00    +0.000 A 
ATOM      8  C   UNL     1       2.315   6.667  19.872  0.00  0.00    +0.000 A 
ATOM      9  C   UNL     1       3.138   6.017  18.907  0.00  0.00    +0.000 A 
ATOM     10  C   UNL     1       3.518   6.703  17.764  0.00  0.00    +0.000 A 
ATOM     11  C   UNL     1       3.086   8.008  17.572  0.00  0.00    +0.000 A 
ATOM     12  C   UNL     1       2.276   8.654  18.525  0.00  0.00    +0.000 A 
ATOM     13  C   UNL     1       1.862  10.030  18.204  0.00  0.00    +0.000 A 
ATOM     14  O   UNL     1       2.252  10.496  17.131  0.00  0.00    +0.000 OA
ATOM     15  N   UNL     1       1.063  10.752  19.100  0.00  0.00    +0.000 N 
ATOM     16  C   UNL     1       0.641  10.200  20.383  0.00  0.00    +0.000 A 
ATOM     17  C   UNL     1      -0.175  10.941  21.375  0.00  0.00    +0.000 A 
ATOM     18  C   UNL     1      -0.573  12.315  21.421  0.00  0.00    +0.000 A 
ATOM     19  C   UNL     1      -1.493  12.880  22.339  0.00  0.00    +0.000 A 
ENDROOT
BRANCH   1  21
ATOM     20  C   UNL     1      -4.358  12.618  23.513  0.00  0.00    +0.000 C 
ATOM     21  O   UNL     1      -3.066  12.520  24.123  0.00  0.00    +0.000 OA
ENDBRANCH   1  21
BRANCH   8  22
ATOM     22  O   UNL     1       1.800   5.937  20.925  0.00  0.00    +0.000 OA
ATOM     23  C   UNL     1       1.056   4.758  20.622  0.00  0.00    +0.000 C 
ENDBRANCH   8  22
BRANCH   9  24
ATOM     24  O   UNL     1       3.482   4.709  19.130  0.00  0.00    +0.000 OA
ATOM     25  C   UNL     1       4.819   4.301  18.871  0.00  0.00    +0.000 C 
ENDBRANCH   9  24
BRANCH  19  26
ATOM     26  O   UNL     1      -1.709  14.210  22.099  0.00  0.00    +0.000 OA
ATOM     27  C   UNL     1      -2.352  14.613  20.898  0.00  0.00    +0.000 C 
ENDBRANCH  19  26
BRANCH  15  28
ATOM     28  C   UNL     1       0.719  12.089  18.588  0.00  0.00    +0.000 C 
BRANCH  28  29
ATOM     29  C   UNL     1      -0.618  12.063  17.793  0.00  0.00    +0.000 C 
BRANCH  29  30
ATOM     30  N   UNL     1      -1.656  11.085  18.189  0.00  0.00    +0.000 NA
ATOM     31  C   UNL     1      -2.908  11.704  18.611  0.00  0.00    +0.000 C 
ATOM     32  C   UNL     1      -1.903  10.161  17.072  0.00  0.00    +0.000 C 
ENDBRANCH  29  30
ENDBRANCH  28  29
ENDBRANCH  15  28
TORSDOF 7
ENDMDL
MODEL 3
REMARK VINA RESULT:      -6.4      4.238      6.115
REMARK  Name = 
REMARK  13 active torsions:
REMARK  status: ('A' for Active; 'I' for Inactive)
REMARK    1  A    between atoms: C_1  and  O_2
REMARK    2  A    between atoms: O_2  and  C_3
REMARK    3  A    between atoms: C_10  and  O_11
REMARK    4  A    between atoms: O_11  and  C_12
REMARK    5  A    between atoms: C_13  and  O_14
REMARK    6  A    between atoms: O_14  and  C_15
REMARK    7  A    between atoms: N_21  and  C_22
REMARK    8  A    between atoms: C_22  and  C_23
REMARK    9  A    between atoms: C_23  and  N_24
REMARK   10  A    between atoms: N_24  and  C_25
REMARK   11  A    between atoms: N_24  and  C_26
REMARK   12  A    between atoms: C_30  and  O_31
REMARK   13  A    between atoms: O_31  and  C_32
REMARK                            x       y       z     vdW  Elec       q    Type
REMARK                         _______ _______ _______ _____ _____    ______ ____
ROOT
ATOM      1  C   UNL     1      -4.532  15.637  24.219  0.00  0.00    +0.000 A 
ATOM      2  C   UNL     1      -5.212  15.202  23.086  0.00  0.00    +0.000 A 
ATOM      3  C   UNL     1      -4.644  14.310  22.167  0.00  0.00    +0.000 A 
ATOM      4  C   UNL     1      -5.419  14.011  21.069  0.00  0.00    +0.000 A 
ATOM      5  C   UNL     1      -4.937  13.191  20.065  0.00  0.00    +0.000 A 
ATOM      6  C   UNL     1      -3.644  12.650  20.061  0.00  0.00    +0.000 A 
ATOM      7  C   UNL     1      -3.168  11.809  18.909  0.00  0.00    +0.000 A 
ATOM      8  C   UNL     1      -3.919  11.432  17.735  0.00  0.00    +0.000 A 
ATOM      9  C   UNL     1      -3.361  10.612  16.711  0.00  0.00    +0.000 A 
ATOM     10  C   UNL     1      -2.058  10.159  16.835  0.00  0.00    +0.000 A 
ATOM     11  C   UNL     1      -1.312  10.517  17.950  0.00  0.00    +0.000 A 
ATOM     12  C   UNL     1      -1.860  11.324  18.965  0.00  0.00    +0.000 A 
ATOM     13  C   UNL     1      -0.969  11.656  20.088  0.00  0.00    +0.000 A 
ATOM     14  O   UNL     1       0.179  11.207  20.044  0.00  0.00    +0.000 OA
ATOM     15  N   UNL     1      -1.435  12.446  21.148  0.00  0.00    +0.000 N 
ATOM     16  C   UNL     1      -2.807  12.938  21.204  0.00  0.00    +0.000 A 
ATOM     17  C   UNL     1      -3.351  13.747  22.321  0.00  0.00    +0.000 A 
ATOM     18  C   UNL     1      -2.793  14.075  23.598  0.00  0.00    +0.000 A 
ATOM     19  C   UNL     1      -3.339  14.995  24.528  0.00  0.00    +0.000 A 
ENDROOT
BRANCH   1  21
ATOM     20  C   UNL     1      -5.391  17.844  24.320  0.00  0.00    +0.000 C 
ATOM     21  O   UNL     1      -5.024  16.643  25.008  0.00  0.00    +0.000 OA
ENDBRANCH   1  21
BRANCH   8  22
ATOM     22  O   UNL     1      -5.153  12.018  17.535  0.00  0.00    +0.000 OA
ATOM     23  C   UNL     1      -6.314  11.279  17.912  0.00  0.00    +0.000 C 
ENDBRANCH   8  22
BRANCH   9  24
ATOM     24  O   UNL     1      -4.132  10.343  15.609  0.00  0.00    +0.000 OA
ATOM     25  C   UNL     1      -3.489  10.143  14.357  0.00  0.00    +0.000 C 
ENDBRANCH   9  24
BRANCH  19  26
ATOM     26  O   UNL     1      -2.550  15.134  25.638  0.00  0.00    +0.000 OA
ATOM     27  C   UNL     1      -1.422  15.997  25.595  0.00  0.00    +0.000 C 
ENDBRANCH  19  26
BRANCH  15  28
ATOM     28  C   UNL     1      -0.390  12.703  22.152  0.00  0.00    +0.000 C 
BRANCH  28  29
ATOM     29  C   UNL     1       0.260  14.102  21.946  0.00  0.00    +0.000 C 
BRANCH  29  30
ATOM     30  N   UNL     1       1.737  14.205  21.975  0.00  0.00    +0.000 NA
ATOM     31  C   UNL     1       2.380  13.674  20.777  0.00  0.00    +0.000 C 
ATOM     32  C   UNL     1       2.121  15.611  22.171  0.00  0.00    +0.000 C 
ENDBRANCH  29  30
ENDBRANCH  28  29
ENDBRANCH  15  28
TORSDOF 7
ENDMDL
MODEL 4
REMARK VINA RESULT:      -6.1      3.476      9.152
REMARK  Name = 
REMARK  13 active torsions:
REMARK  status: ('A' for Active; 'I' for Inactive)
REMARK    1  A    between atoms: C_1  and  O_2
REMARK    2  A    between atoms: O_2  and  C_3
REMARK    3  A    between atoms: C_10  and  O_11
REMARK    4  A    between atoms: O_11  and  C_12
REMARK    5  A    between atoms: C_13  and  O_14
REMARK    6  A    between atoms: O_14  and  C_15
REMARK    7  A    between atoms: N_21  and  C_22
REMARK    8  A    between atoms: C_22  and  C_23
REMARK    9  A    between atoms: C_23  and  N_24
REMARK   10  A    between atoms: N_24  and  C_25
REMARK   11  A    between atoms: N_24  and  C_26
REMARK   12  A    between atoms: C_30  and  O_31
REMARK   13  A    between atoms: O_31  and  C_32
REMARK                            x       y       z     vdW  Elec       q    Type
REMARK                         _______ _______ _______ _____ _____    ______ ____
ROOT
ATOM      1  C   UNL     1      -2.803  10.328  17.319  0.00  0.00    +0.000 A 
ATOM      2  C   UNL     1      -3.849  11.151  17.725  0.00  0.00    +0.000 A 
ATOM      3  C   UNL     1      -3.753  11.985  18.848  0.00  0.00    +0.000 A 
ATOM      4  C   UNL     1      -4.887  12.703  19.156  0.00  0.00    +0.000 A 
ATOM      5  C   UNL     1      -4.930  13.511  20.278  0.00  0.00    +0.000 A 
ATOM      6  C   UNL     1      -3.871  13.626  21.190  0.00  0.00    +0.000 A 
ATOM      7  C   UNL     1      -4.008  14.482  22.418  0.00  0.00    +0.000 A 
ATOM      8  C   UNL     1      -5.148  15.281  22.804  0.00  0.00    +0.000 A 
ATOM      9  C   UNL     1      -5.152  16.069  23.991  0.00  0.00    +0.000 A 
ATOM     10  C   UNL     1      -4.034  16.075  24.809  0.00  0.00    +0.000 A 
ATOM     11  C   UNL     1      -2.930  15.307  24.466  0.00  0.00    +0.000 A 
ATOM     12  C   UNL     1      -2.920  14.529  23.292  0.00  0.00    +0.000 A 
ATOM     13  C   UNL     1      -1.703  13.741  23.042  0.00  0.00    +0.000 A 
ATOM     14  O   UNL     1      -0.802  13.821  23.879  0.00  0.00    +0.000 OA
ATOM     15  N   UNL     1      -1.603  12.946  21.892  0.00  0.00    +0.000 N 
ATOM     16  C   UNL     1      -2.663  12.890  20.891  0.00  0.00    +0.000 A 
ATOM     17  C   UNL     1      -2.584  12.091  19.645  0.00  0.00    +0.000 A 
ATOM     18  C   UNL     1      -1.491  11.378  19.058  0.00  0.00    +0.000 A 
ATOM     19  C   UNL     1      -1.574  10.510  17.941  0.00  0.00    +0.000 A 
ENDROOT
BRANCH   1  21
ATOM     20  C   UNL     1      -3.090   9.906  15.004  0.00  0.00    +0.000 C 
ATOM     21  O   UNL     1      -2.972   9.390  16.335  0.00  0.00    +0.000 OA
ENDBRANCH   1  21
BRANCH   8  22
ATOM     22  O   UNL     1      -6.314  15.144  22.078  0.00  0.00    +0.000 OA
ATOM     23  C   UNL     1      -7.338  14.303  22.607  0.00  0.00    +0.000 C 
ENDBRANCH   8  22
BRANCH   9  24
ATOM     24  O   UNL     1      -6.296  16.759  24.302  0.00  0.00    +0.000 OA
ATOM     25  C   UNL     1      -6.376  18.137  23.964  0.00  0.00    +0.000 C 
ENDBRANCH   9  24
BRANCH  19  26
ATOM     26  O   UNL     1      -0.367   9.935  17.645  0.00  0.00    +0.000 OA
ATOM     27  C   UNL     1       0.755  10.190  18.477  0.00  0.00    +0.000 C 
ENDBRANCH  19  26
BRANCH  15  28
ATOM     28  C   UNL     1      -0.334  12.202  21.837  0.00  0.00    +0.000 C 
BRANCH  28  29
ATOM     29  C   UNL     1      -0.487  10.777  22.443  0.00  0.00    +0.000 C 
BRANCH  29  30
ATOM     30  N   UNL     1       0.265   9.662  21.823  0.00  0.00    +0.000 NA
ATOM     31  C   UNL     1       1.472   9.295  22.557  0.00  0.00    +0.000 C 
ATOM     32  C   UNL     1      -0.619   8.494  21.693  0.00  0.00    +0.000 C 
ENDBRANCH  29  30
ENDBRANCH  28  29
ENDBRANCH  15  28
TORSDOF 7
ENDMDL
MODEL 5
REMARK VINA RESULT:      -6.0      3.710      5.773
REMARK  Name = 
REMARK  13 active torsions:
REMARK  status: ('A' for Active; 'I' for Inactive)
REMARK    1  A    between atoms: C_1  and  O_2
REMARK    2  A    between atoms: O_2  and  C_3
REMARK    3  A    between atoms: C_10  and  O_11
REMARK    4  A    between atoms: O_11  and  C_12
REMARK    5  A    between atoms: C_13  and  O_14
REMARK    6  A    between atoms: O_14  and  C_15
REMARK    7  A    between atoms: N_21  and  C_22
REMARK    8  A    between atoms: C_22  and  C_23
REMARK    9  A    between atoms: C_23  and  N_24
REMARK   10  A    between atoms: N_24  and  C_25
REMARK   11  A    between atoms: N_24  and  C_26
REMARK   12  A    between atoms: C_30  and  O_31
REMARK   13  A    between atoms: O_31  and  C_32
REMARK                            x       y       z     vdW  Elec       q    Type
REMARK                         _______ _______ _______ _____ _____    ______ ____
ROOT
ATOM      1  C   UNL     1      -4.835  14.982  23.374  0.00  0.00    +0.000 A 
ATOM      2  C   UNL     1      -3.553  14.443  23.412  0.00  0.00    +0.000 A 
ATOM      3  C   UNL     1      -3.024  13.691  22.354  0.00  0.00    +0.000 A 
ATOM      4  C   UNL     1      -1.763  13.180  22.558  0.00  0.00    +0.000 A 
ATOM      5  C   UNL     1      -1.165  12.371  21.609  0.00  0.00    +0.000 A 
ATOM      6  C   UNL     1      -1.794  11.981  20.418  0.00  0.00    +0.000 A 
ATOM      7  C   UNL     1      -1.104  11.055  19.455  0.00  0.00    +0.000 A 
ATOM      8  C   UNL     1       0.220  10.492  19.581  0.00  0.00    +0.000 A 
ATOM      9  C   UNL     1       0.776   9.634  18.587  0.00  0.00    +0.000 A 
ATOM     10  C   UNL     1       0.029   9.321  17.463  0.00  0.00    +0.000 A 
ATOM     11  C   UNL     1      -1.251   9.841  17.324  0.00  0.00    +0.000 A 
ATOM     12  C   UNL     1      -1.801  10.692  18.301  0.00  0.00    +0.000 A 
ATOM     13  C   UNL     1      -3.173  11.165  18.056  0.00  0.00    +0.000 A 
ATOM     14  O   UNL     1      -3.725  10.774  17.025  0.00  0.00    +0.000 OA
ATOM     15  N   UNL     1      -3.796  12.024  18.972  0.00  0.00    +0.000 N 
ATOM     16  C   UNL     1      -3.117  12.507  20.169  0.00  0.00    +0.000 A 
ATOM     17  C   UNL     1      -3.725  13.442  21.146  0.00  0.00    +0.000 A 
ATOM     18  C   UNL     1      -4.945  14.190  21.092  0.00  0.00    +0.000 A 
ATOM     19  C   UNL     1      -5.508  14.932  22.159  0.00  0.00    +0.000 A 
ENDROOT
BRANCH   1  21
ATOM     20  C   UNL     1      -5.169  16.961  24.636  0.00  0.00    +0.000 C 
ATOM     21  O   UNL     1      -5.403  15.557  24.480  0.00  0.00    +0.000 OA
ENDBRANCH   1  21
BRANCH   8  22
ATOM     22  O   UNL     1       0.892  10.670  20.773  0.00  0.00    +0.000 OA
ATOM     23  C   UNL     1       0.902   9.590  21.706  0.00  0.00    +0.000 C 
ENDBRANCH   8  22
BRANCH   9  24
ATOM     24  O   UNL     1       2.022   9.108  18.813  0.00  0.00    +0.000 OA
ATOM     25  C   UNL     1       2.326   7.822  18.290  0.00  0.00    +0.000 C 
ENDBRANCH   9  24
BRANCH  19  26
ATOM     26  O   UNL     1      -6.707  15.497  21.817  0.00  0.00    +0.000 OA
ATOM     27  C   UNL     1      -7.916  14.920  22.288  0.00  0.00    +0.000 C 
ENDBRANCH  19  26
BRANCH  15  28
ATOM     28  C   UNL     1      -5.176  12.353  18.578  0.00  0.00    +0.000 C 
BRANCH  28  29
ATOM     29  C   UNL     1      -6.169  11.235  19.008  0.00  0.00    +0.000 C 
BRANCH  29  30
ATOM     30  N   UNL     1      -7.483  11.633  19.561  0.00  0.00    +0.000 NA
ATOM     31  C   UNL     1      -7.573  11.485  21.010  0.00  0.00    +0.000 C 
ATOM     32  C   UNL     1      -7.769  13.024  19.178  0.00  0.00    +0.000 C 
ENDBRANCH  29  30
ENDBRANCH  28  29
ENDBRANCH  15  28
TORSDOF 7
ENDMDL
MODEL 6
REMARK VINA RESULT:      -5.9      1.780      7.588
REMARK  Name = 
REMARK  13 active torsions:
REMARK  status: ('A' for Active; 'I' for Inactive)
REMARK    1  A    between atoms: C_1  and  O_2
REMARK    2  A    between atoms: O_2  and  C_3
REMARK    3  A    between atoms: C_10  and  O_11
REMARK    4  A    between atoms: O_11  and  C_12
REMARK    5  A    between atoms: C_13  and  O_14
REMARK    6  A    between atoms: O_14  and  C_15
REMARK    7  A    between atoms: N_21  and  C_22
REMARK    8  A    between atoms: C_22  and  C_23
REMARK    9  A    between atoms: C_23  and  N_24
REMARK   10  A    between atoms: N_24  and  C_25
REMARK   11  A    between atoms: N_24  and  C_26
REMARK   12  A    between atoms: C_30  and  O_31
REMARK   13  A    between atoms: O_31  and  C_32
REMARK                            x       y       z     vdW  Elec       q    Type
REMARK                         _______ _______ _______ _____ _____    ______ ____
ROOT
ATOM      1  C   UNL     1       1.305   8.049  21.037  0.00  0.00    +0.000 A 
ATOM      2  C   UNL     1       0.434   8.517  22.016  0.00  0.00    +0.000 A 
ATOM      3  C   UNL     1      -0.171   9.780  21.940  0.00  0.00    +0.000 A 
ATOM      4  C   UNL     1      -0.968  10.124  23.008  0.00  0.00    +0.000 A 
ATOM      5  C   UNL     1      -1.567  11.369  23.071  0.00  0.00    +0.000 A 
ATOM      6  C   UNL     1      -1.380  12.368  22.105  0.00  0.00    +0.000 A 
ATOM      7  C   UNL     1      -2.019  13.719  22.266  0.00  0.00    +0.000 A 
ATOM      8  C   UNL     1      -2.882  14.155  23.339  0.00  0.00    +0.000 A 
ATOM      9  C   UNL     1      -3.445  15.464  23.374  0.00  0.00    +0.000 A 
ATOM     10  C   UNL     1      -3.160  16.355  22.352  0.00  0.00    +0.000 A 
ATOM     11  C   UNL     1      -2.324  15.964  21.315  0.00  0.00    +0.000 A 
ATOM     12  C   UNL     1      -1.769  14.670  21.275  0.00  0.00    +0.000 A 
ATOM     13  C   UNL     1      -0.882  14.376  20.139  0.00  0.00    +0.000 A 
ATOM     14  O   UNL     1      -0.695  15.282  19.324  0.00  0.00    +0.000 OA
ATOM     15  N   UNL     1      -0.293  13.110  20.014  0.00  0.00    +0.000 N 
ATOM     16  C   UNL     1      -0.554  12.035  20.966  0.00  0.00    +0.000 A 
ATOM     17  C   UNL     1       0.019  10.673  20.854  0.00  0.00    +0.000 A 
ATOM     18  C   UNL     1       0.758  10.051  19.796  0.00  0.00    +0.000 A 
ATOM     19  C   UNL     1       1.399   8.790  19.865  0.00  0.00    +0.000 A 
ENDROOT
BRANCH   1  21
ATOM     20  C   UNL     1       1.469   5.724  20.610  0.00  0.00    +0.000 C 
ATOM     21  O   UNL     1       2.026   6.898  21.212  0.00  0.00    +0.000 OA
ENDBRANCH   1  21
BRANCH   8  22
ATOM     22  O   UNL     1      -3.029  13.326  24.433  0.00  0.00    +0.000 OA
ATOM     23  C   UNL     1      -4.255  12.609  24.571  0.00  0.00    +0.000 C 
ENDBRANCH   8  22
BRANCH   9  24
ATOM     24  O   UNL     1      -4.215  15.806  24.456  0.00  0.00    +0.000 OA
ATOM     25  C   UNL     1      -5.523  16.313  24.230  0.00  0.00    +0.000 C 
ENDBRANCH   9  24
BRANCH  19  26
ATOM     26  O   UNL     1       2.068   8.489  18.709  0.00  0.00    +0.000 OA
ATOM     27  C   UNL     1       2.007   9.385  17.608  0.00  0.00    +0.000 C 
ENDBRANCH  19  26
BRANCH  15  28
ATOM     28  C   UNL     1       0.591  13.019  18.841  0.00  0.00    +0.000 C 
BRANCH  28  29
ATOM     29  C   UNL     1       2.072  13.302  19.226  0.00  0.00    +0.000 C 
BRANCH  29  30
ATOM     30  N   UNL     1       2.641  14.632  18.911  0.00  0.00    +0.000 NA
ATOM     31  C   UNL     1       2.790  15.493  20.081  0.00  0.00    +0.000 C 
ATOM     32  C   UNL     1       3.941  14.458  18.246  0.00  0.00    +0.000 C 
ENDBRANCH  29  30
ENDBRANCH  28  29
ENDBRANCH  15  28
TORSDOF 7
ENDMDL
MODEL 7
REMARK VINA RESULT:      -5.8      5.494      9.046
REMARK  Name = 
REMARK  13 active torsions:
REMARK  status: ('A' for Active; 'I' for Inactive)
REMARK    1  A    between atoms: C_1  and  O_2
REMARK    2  A    between atoms: O_2  and  C_3
REMARK    3  A    between atoms: C_10  and  O_11
REMARK    4  A    between atoms: O_11  and  C_12
REMARK    5  A    between atoms: C_13  and  O_14
REMARK    6  A    between atoms: O_14  and  C_15
REMARK    7  A    between atoms: N_21  and  C_22
REMARK    8  A    between atoms: C_22  and  C_23
REMARK    9  A    between atoms: C_23  and  N_24
REMARK   10  A    between atoms: N_24  and  C_25
REMARK   11  A    between atoms: N_24  and  C_26
REMARK   12  A    between atoms: C_30  and  O_31
REMARK   13  A    between atoms: O_31  and  C_32
REMARK                            x       y       z     vdW  Elec       q    Type
REMARK                         _______ _______ _______ _____ _____    ______ ____
ROOT
ATOM      1  C   UNL     1      -3.225  11.449  17.250  0.00  0.00    +0.000 A 
ATOM      2  C   UNL     1      -2.129  11.883  17.990  0.00  0.00    +0.000 A 
ATOM      3  C   UNL     1      -2.260  12.424  19.276  0.00  0.00    +0.000 A 
ATOM      4  C   UNL     1      -1.092  12.856  19.863  0.00  0.00    +0.000 A 
ATOM      5  C   UNL     1      -1.107  13.463  21.106  0.00  0.00    +0.000 A 
ATOM      6  C   UNL     1      -2.281  13.721  21.827  0.00  0.00    +0.000 A 
ATOM      7  C   UNL     1      -2.227  14.434  23.149  0.00  0.00    +0.000 A 
ATOM      8  C   UNL     1      -1.049  14.901  23.842  0.00  0.00    +0.000 A 
ATOM      9  C   UNL     1      -1.124  15.553  25.108  0.00  0.00    +0.000 A 
ATOM     10  C   UNL     1      -2.361  15.754  25.698  0.00  0.00    +0.000 A 
ATOM     11  C   UNL     1      -3.509  15.324  25.047  0.00  0.00    +0.000 A 
ATOM     12  C   UNL     1      -3.439  14.676  23.799  0.00  0.00    +0.000 A 
ATOM     13  C   UNL     1      -4.722  14.285  23.194  0.00  0.00    +0.000 A 
ATOM     14  O   UNL     1      -5.746  14.560  23.823  0.00  0.00    +0.000 OA
ATOM     15  N   UNL     1      -4.746  13.625  21.957  0.00  0.00    +0.000 N 
ATOM     16  C   UNL     1      -3.525  13.272  21.242  0.00  0.00    +0.000 A 
ATOM     17  C   UNL     1      -3.502  12.545  19.950  0.00  0.00    +0.000 A 
ATOM     18  C   UNL     1      -4.552  11.899  19.221  0.00  0.00    +0.000 A 
ATOM     19  C   UNL     1      -4.445  11.372  17.910  0.00  0.00    +0.000 A 
ENDROOT
BRANCH   1  21
ATOM     20  C   UNL     1      -2.685   9.746  15.692  0.00  0.00    +0.000 C 
ATOM     21  O   UNL     1      -3.104  11.095  15.932  0.00  0.00    +0.000 OA
ENDBRANCH   1  21
BRANCH   8  22
ATOM     22  O   UNL     1       0.160  14.848  23.179  0.00  0.00    +0.000 OA
ATOM     23  C   UNL     1       0.639  16.043  22.563  0.00  0.00    +0.000 C 
ENDBRANCH   8  22
BRANCH   9  24
ATOM     24  O   UNL     1       0.042  16.004  25.670  0.00  0.00    +0.000 OA
ATOM     25  C   UNL     1       0.046  17.273  26.312  0.00  0.00    +0.000 C 
ENDBRANCH   9  24
BRANCH  19  26
ATOM     26  O   UNL     1      -5.634  10.861  17.462  0.00  0.00    +0.000 OA
ATOM     27  C   UNL     1      -6.825  11.107  18.197  0.00  0.00    +0.000 C 
ENDBRANCH  19  26
BRANCH  15  28
ATOM     28  C   UNL     1      -6.118  13.353  21.497  0.00  0.00    +0.000 C 
BRANCH  28  29
ATOM     29  C   UNL     1      -6.731  14.593  20.784  0.00  0.00    +0.000 C 
BRANCH  29  30
ATOM     30  N   UNL     1      -6.057  15.117  19.575  0.00  0.00    +0.000 NA
ATOM     31  C   UNL     1      -6.793  14.862  18.341  0.00  0.00    +0.000 C 
ATOM     32  C   UNL     1      -5.828  16.561  19.735  0.00  0.00    +0.000 C 
ENDBRANCH  29  30
ENDBRANCH  28  29
ENDBRANCH  15  28
TORSDOF 7
ENDMDL
MODEL 8
REMARK VINA RESULT:      -5.8      2.646      9.089
REMARK  Name = 
REMARK  13 active torsions:
REMARK  status: ('A' for Active; 'I' for Inactive)
REMARK    1  A    between atoms: C_1  and  O_2
REMARK    2  A    between atoms: O_2  and  C_3
REMARK    3  A    between atoms: C_10  and  O_11
REMARK    4  A    between atoms: O_11  and  C_12
REMARK    5  A    between atoms: C_13  and  O_14
REMARK    6  A    between atoms: O_14  and  C_15
REMARK    7  A    between atoms: N_21  and  C_22
REMARK    8  A    between atoms: C_22  and  C_23
REMARK    9  A    between atoms: C_23  and  N_24
REMARK   10  A    between atoms: N_24  and  C_25
REMARK   11  A    between atoms: N_24  and  C_26
REMARK   12  A    between atoms: C_30  and  O_31
REMARK   13  A    between atoms: O_31  and  C_32
REMARK                            x       y       z     vdW  Elec       q    Type
REMARK                         _______ _______ _______ _____ _____    ______ ____
ROOT
ATOM      1  C   UNL     1       5.071   4.447  16.839  0.00  0.00    +0.000 A 
ATOM      2  C   UNL     1       4.850   5.790  16.550  0.00  0.00    +0.000 A 
ATOM      3  C   UNL     1       4.052   6.610  17.360  0.00  0.00    +0.000 A 
ATOM      4  C   UNL     1       3.884   7.903  16.919  0.00  0.00    +0.000 A 
ATOM      5  C   UNL     1       3.068   8.784  17.604  0.00  0.00    +0.000 A 
ATOM      6  C   UNL     1       2.330   8.430  18.743  0.00  0.00    +0.000 A 
ATOM      7  C   UNL     1       1.420   9.426  19.406  0.00  0.00    +0.000 A 
ATOM      8  C   UNL     1       1.202  10.801  19.023  0.00  0.00    +0.000 A 
ATOM      9  C   UNL     1       0.320  11.657  19.745  0.00  0.00    +0.000 A 
ATOM     10  C   UNL     1      -0.357  11.164  20.848  0.00  0.00    +0.000 A 
ATOM     11  C   UNL     1      -0.173   9.842  21.230  0.00  0.00    +0.000 A 
ATOM     12  C   UNL     1       0.700   8.994  20.522  0.00  0.00    +0.000 A 
ATOM     13  C   UNL     1       0.798   7.608  21.006  0.00  0.00    +0.000 A 
ATOM     14  O   UNL     1       0.108   7.305  21.981  0.00  0.00    +0.000 OA
ATOM     15  N   UNL     1       1.651   6.697  20.367  0.00  0.00    +0.000 N 
ATOM     16  C   UNL     1       2.490   7.081  19.237  0.00  0.00    +0.000 A 
ATOM     17  C   UNL     1       3.430   6.161  18.554  0.00  0.00    +0.000 A 
ATOM     18  C   UNL     1       3.861   4.839  18.896  0.00  0.00    +0.000 A 
ATOM     19  C   UNL     1       4.644   3.986  18.078  0.00  0.00    +0.000 A 
ENDROOT
BRANCH   1  21
ATOM     20  C   UNL     1       6.449   4.273  14.919  0.00  0.00    +0.000 C 
ATOM     21  O   UNL     1       5.699   3.618  15.948  0.00  0.00    +0.000 OA
ENDBRANCH   1  21
BRANCH   8  22
ATOM     22  O   UNL     1       1.747  11.239  17.832  0.00  0.00    +0.000 OA
ATOM     23  C   UNL     1       2.700  12.300  17.881  0.00  0.00    +0.000 C 
ENDBRANCH   8  22
BRANCH   9  24
ATOM     24  O   UNL     1       0.140  12.935  19.281  0.00  0.00    +0.000 OA
ATOM     25  C   UNL     1      -0.985  13.675  19.736  0.00  0.00    +0.000 C 
ENDBRANCH   9  24
BRANCH  19  26
ATOM     26  O   UNL     1       4.851   2.764  18.659  0.00  0.00    +0.000 OA
ATOM     27  C   UNL     1       4.635   2.603  20.054  0.00  0.00    +0.000 C 
ENDBRANCH  19  26
BRANCH  15  28
ATOM     28  C   UNL     1       1.582   5.354  20.966  0.00  0.00    +0.000 C 
BRANCH  28  29
ATOM     29  C   UNL     1       0.679   4.406  20.127  0.00  0.00    +0.000 C 
BRANCH  29  30
ATOM     30  N   UNL     1       0.737   2.952  20.398  0.00  0.00    +0.000 NA
ATOM     31  C   UNL     1       1.271   2.173  19.285  0.00  0.00    +0.000 C 
ATOM     32  C   UNL     1       1.539   2.716  21.608  0.00  0.00    +0.000 C 
ENDBRANCH  29  30
ENDBRANCH  28  29
ENDBRANCH  15  28
TORSDOF 7
ENDMDL
MODEL 9
REMARK VINA RESULT:      -5.8      3.412      8.692
REMARK  Name = 
REMARK  13 active torsions:
REMARK  status: ('A' for Active; 'I' for Inactive)
REMARK    1  A    between atoms: C_1  and  O_2
REMARK    2  A    between atoms: O_2  and  C_3
REMARK    3  A    between atoms: C_10  and  O_11
REMARK    4  A    between atoms: O_11  and  C_12
REMARK    5  A    between atoms: C_13  and  O_14
REMARK    6  A    between atoms: O_14  and  C_15
REMARK    7  A    between atoms: N_21  and  C_22
REMARK    8  A    between atoms: C_22  and  C_23
REMARK    9  A    between atoms: C_23  and  N_24
REMARK   10  A    between atoms: N_24  and  C_25
REMARK   11  A    between atoms: N_24  and  C_26
REMARK   12  A    between atoms: C_30  and  O_31
REMARK   13  A    between atoms: O_31  and  C_32
REMARK                            x       y       z     vdW  Elec       q    Type
REMARK                         _______ _______ _______ _____ _____    ______ ____
ROOT
ATOM      1  C   UNL     1      -2.943  10.181  16.958  0.00  0.00    +0.000 A 
ATOM      2  C   UNL     1      -3.940  11.021  17.443  0.00  0.00    +0.000 A 
ATOM      3  C   UNL     1      -3.768  11.801  18.595  0.00  0.00    +0.000 A 
ATOM      4  C   UNL     1      -4.861  12.543  18.981  0.00  0.00    +0.000 A 
ATOM      5  C   UNL     1      -4.829  13.302  20.137  0.00  0.00    +0.000 A 
ATOM      6  C   UNL     1      -3.730  13.340  21.007  0.00  0.00    +0.000 A 
ATOM      7  C   UNL     1      -3.785  14.145  22.275  0.00  0.00    +0.000 A 
ATOM      8  C   UNL     1      -4.878  14.965  22.743  0.00  0.00    +0.000 A 
ATOM      9  C   UNL     1      -4.805  15.700  23.963  0.00  0.00    +0.000 A 
ATOM     10  C   UNL     1      -3.655  15.631  24.732  0.00  0.00    +0.000 A 
ATOM     11  C   UNL     1      -2.594  14.841  24.309  0.00  0.00    +0.000 A 
ATOM     12  C   UNL     1      -2.661  14.116  23.104  0.00  0.00    +0.000 A 
ATOM     13  C   UNL     1      -1.485  13.298  22.769  0.00  0.00    +0.000 A 
ATOM     14  O   UNL     1      -0.547  13.311  23.569  0.00  0.00    +0.000 OA
ATOM     15  N   UNL     1      -1.461  12.552  21.583  0.00  0.00    +0.000 N 
ATOM     16  C   UNL     1      -2.563  12.577  20.627  0.00  0.00    +0.000 A 
ATOM     17  C   UNL     1      -2.564  11.831  19.345  0.00  0.00    +0.000 A 
ATOM     18  C   UNL     1      -1.523  11.107  18.682  0.00  0.00    +0.000 A 
ATOM     19  C   UNL     1      -1.683  10.293  17.533  0.00  0.00    +0.000 A 
ENDROOT
BRANCH   1  21
ATOM     20  C   UNL     1      -3.458   9.879  14.664  0.00  0.00    +0.000 C 
ATOM     21  O   UNL     1      -3.185   9.294  15.942  0.00  0.00    +0.000 OA
ENDBRANCH   1  21
BRANCH   8  22
ATOM     22  O   UNL     1      -6.077  14.900  22.063  0.00  0.00    +0.000 OA
ATOM     23  C   UNL     1      -7.096  14.044  22.579  0.00  0.00    +0.000 C 
ENDBRANCH   8  22
BRANCH   9  24
ATOM     24  O   UNL     1      -5.909  16.414  24.351  0.00  0.00    +0.000 OA
ATOM     25  C   UNL     1      -5.872  17.833  24.262  0.00  0.00    +0.000 C 
ENDBRANCH   9  24
BRANCH  19  26
ATOM     26  O   UNL     1      -0.511   9.690  17.162  0.00  0.00    +0.000 OA
ATOM     27  C   UNL     1       0.595   9.697  18.053  0.00  0.00    +0.000 C 
ENDBRANCH  19  26
BRANCH  15  28
ATOM     28  C   UNL     1      -0.223  11.768  21.442  0.00  0.00    +0.000 C 
BRANCH  28  29
ATOM     29  C   UNL     1       0.950  12.651  20.925  0.00  0.00    +0.000 C 
BRANCH  29  30
ATOM     30  N   UNL     1       0.655  13.698  19.920  0.00  0.00    +0.000 NA
ATOM     31  C   UNL     1       1.026  15.041  20.353  0.00  0.00    +0.000 C 
ATOM     32  C   UNL     1       1.339  13.368  18.661  0.00  0.00    +0.000 C 
ENDBRANCH  29  30
ENDBRANCH  28  29
ENDBRANCH  15  28
TORSDOF 7
ENDMDL
