MODEL 1
REMARK VINA RESULT:      -8.3      0.000      0.000
REMARK  Name = 
REMARK  7 active torsions:
REMARK  status: ('A' for Active; 'I' for Inactive)
REMARK    1  A    between atoms: C_1  and  C_2
REMARK    2  A    between atoms: C_2  and  N_3
REMARK    3  A    between atoms: C_2  and  C_25
REMARK    4  A    between atoms: N_6  and  C_7
REMARK    5  A    between atoms: C_10  and  N_11
REMARK    6  A    between atoms: C_12  and  C_14
REMARK    7  A    between atoms: C_21  and  C_22
REMARK                            x       y       z     vdW  Elec       q    Type
REMARK                         _______ _______ _______ _____ _____    ______ ____
ROOT
ATOM      1  C   UNL     1       1.877   8.030  19.980  0.00  0.00    +0.000 A 
ATOM      2  C   UNL     1       1.808   8.718  18.776  0.00  0.00    +0.000 A 
ATOM      3  C   UNL     1       1.136   9.937  18.681  0.00  0.00    +0.000 A 
ATOM      4  C   UNL     1       0.516  10.526  19.784  0.00  0.00    +0.000 A 
ATOM      5  C   UNL     1       0.525   9.802  20.994  0.00  0.00    +0.000 A 
ATOM      6  C   UNL     1       1.187   8.552  21.078  0.00  0.00    +0.000 A 
ENDROOT
BRANCH   1  10
ATOM      7  N   UNL     1       3.550   4.816  19.547  0.00  0.00    +0.000 N 
ATOM      8  C   UNL     1       2.724   5.854  19.167  0.00  0.00    +0.000 C 
ATOM      9  O   UNL     1       2.189   5.869  18.068  0.00  0.00    +0.000 OA
ATOM     10  N   UNL     1       2.637   6.842  20.128  0.00  0.00    +0.000 N 
ATOM     11  H   UNL     1       3.650   4.630  20.531  0.00  0.00    +0.000 HD
ATOM     12  H   UNL     1       3.356   6.836  20.836  0.00  0.00    +0.000 HD
BRANCH   7  14
ATOM     13  C   UNL     1       3.969   2.382  19.359  0.00  0.00    +0.000 C 
ATOM     14  C   UNL     1       3.726   3.703  18.622  0.00  0.00    +0.000 C 
BRANCH  14  15
ATOM     15  C   UNL     1       4.806   3.989  17.596  0.00  0.00    +0.000 A 
ATOM     16  C   UNL     1       6.089   4.360  18.042  0.00  0.00    +0.000 A 
ATOM     17  C   UNL     1       7.089   4.708  17.135  0.00  0.00    +0.000 A 
ATOM     18  C   UNL     1       6.814   4.677  15.775  0.00  0.00    +0.000 A 
ATOM     19  F   UNL     1       7.765   5.031  14.901  0.00  0.00    +0.000 F 
ATOM     20  C   UNL     1       5.564   4.289  15.307  0.00  0.00    +0.000 A 
ATOM     21  C   UNL     1       4.560   3.941  16.214  0.00  0.00    +0.000 A 
ENDBRANCH  14  15
ENDBRANCH   7  14
ENDBRANCH   1  10
BRANCH   4  22
ATOM     22  N   UNL     1      -0.094  11.813  19.670  0.00  0.00    +0.000 N 
ATOM     23  C   UNL     1       0.553  13.021  19.925  0.00  0.00    +0.000 C 
ATOM     24  O   UNL     1       1.717  13.135  20.302  0.00  0.00    +0.000 OA
ATOM     25  H   UNL     1      -1.094  11.850  19.493  0.00  0.00    +0.000 HD
BRANCH  23  26
ATOM     26  C   UNL     1      -0.221  14.285  19.807  0.00  0.00    +0.000 A 
ATOM     27  C   UNL     1       0.151  15.190  18.792  0.00  0.00    +0.000 A 
ATOM     28  C   UNL     1      -0.465  16.437  18.683  0.00  0.00    +0.000 A 
ATOM     29  C   UNL     1      -1.467  16.792  19.580  0.00  0.00    +0.000 A 
ATOM     30  C   UNL     1      -1.867  15.891  20.569  0.00  0.00    +0.000 A 
ATOM     31  C   UNL     1      -1.249  14.645  20.674  0.00  0.00    +0.000 A 
ATOM     32  F   UNL     1      -1.654  13.809  21.642  0.00  0.00    +0.000 F 
ENDBRANCH  23  26
ENDBRANCH   4  22
BRANCH   5  33
ATOM     33  C   UNL     1      -0.049  10.325  22.203  0.00  0.00    +0.000 C 
ATOM     34  N   UNL     1      -0.507  10.716  23.192  0.00  0.00    +0.000 NA
ENDBRANCH   5  33
TORSDOF 6
ENDMDL
MODEL 2
REMARK VINA RESULT:      -8.2      0.881      1.506
REMARK  Name = 
REMARK  7 active torsions:
REMARK  status: ('A' for Active; 'I' for Inactive)
REMARK    1  A    between atoms: C_1  and  C_2
REMARK    2  A    between atoms: C_2  and  N_3
REMARK    3  A    between atoms: C_2  and  C_25
REMARK    4  A    between atoms: N_6  and  C_7
REMARK    5  A    between atoms: C_10  and  N_11
REMARK    6  A    between atoms: C_12  and  C_14
REMARK    7  A    between atoms: C_21  and  C_22
REMARK                            x       y       z     vdW  Elec       q    Type
REMARK                         _______ _______ _______ _____ _____    ______ ____
ROOT
ATOM      1  C   UNL     1       1.845   7.891  20.136  0.00  0.00    +0.000 A 
ATOM      2  C   UNL     1       1.835   8.603  18.944  0.00  0.00    +0.000 A 
ATOM      3  C   UNL     1       1.214   9.849  18.855  0.00  0.00    +0.000 A 
ATOM      4  C   UNL     1       0.588  10.442  19.952  0.00  0.00    +0.000 A 
ATOM      5  C   UNL     1       0.536   9.696  21.148  0.00  0.00    +0.000 A 
ATOM      6  C   UNL     1       1.147   8.420  21.226  0.00  0.00    +0.000 A 
ENDROOT
BRANCH   1  10
ATOM      7  N   UNL     1       3.476   4.661  19.660  0.00  0.00    +0.000 N 
ATOM      8  C   UNL     1       2.725   5.750  19.267  0.00  0.00    +0.000 C 
ATOM      9  O   UNL     1       2.319   5.859  18.119  0.00  0.00    +0.000 OA
ATOM     10  N   UNL     1       2.553   6.671  20.281  0.00  0.00    +0.000 N 
ATOM     11  H   UNL     1       3.459   4.405  20.633  0.00  0.00    +0.000 HD
ATOM     12  H   UNL     1       3.187   6.592  21.063  0.00  0.00    +0.000 HD
BRANCH   7  14
ATOM     13  C   UNL     1       4.031   2.267  19.354  0.00  0.00    +0.000 C 
ATOM     14  C   UNL     1       3.729   3.610  18.682  0.00  0.00    +0.000 C 
BRANCH  14  15
ATOM     15  C   UNL     1       4.809   4.008  17.694  0.00  0.00    +0.000 A 
ATOM     16  C   UNL     1       4.544   3.904  16.315  0.00  0.00    +0.000 A 
ATOM     17  C   UNL     1       5.533   4.184  15.373  0.00  0.00    +0.000 A 
ATOM     18  C   UNL     1       6.791   4.579  15.806  0.00  0.00    +0.000 A 
ATOM     19  F   UNL     1       7.750   4.828  14.904  0.00  0.00    +0.000 F 
ATOM     20  C   UNL     1       7.072   4.716  17.161  0.00  0.00    +0.000 A 
ATOM     21  C   UNL     1       6.082   4.435  18.105  0.00  0.00    +0.000 A 
ENDBRANCH  14  15
ENDBRANCH   7  14
ENDBRANCH   1  10
BRANCH   4  22
ATOM     22  N   UNL     1       0.032  11.754  19.846  0.00  0.00    +0.000 N 
ATOM     23  C   UNL     1       0.743  12.934  20.057  0.00  0.00    +0.000 C 
ATOM     24  O   UNL     1       1.927  12.999  20.382  0.00  0.00    +0.000 OA
ATOM     25  H   UNL     1      -0.972  11.834  19.712  0.00  0.00    +0.000 HD
BRANCH  23  26
ATOM     26  C   UNL     1       0.022  14.231  19.955  0.00  0.00    +0.000 A 
ATOM     27  C   UNL     1      -1.146  14.396  20.726  0.00  0.00    +0.000 A 
ATOM     28  C   UNL     1      -1.926  15.546  20.607  0.00  0.00    +0.000 A 
ATOM     29  C   UNL     1      -1.545  16.550  19.723  0.00  0.00    +0.000 A 
ATOM     30  C   UNL     1      -0.371  16.413  18.979  0.00  0.00    +0.000 A 
ATOM     31  C   UNL     1       0.407  15.261  19.101  0.00  0.00    +0.000 A 
ATOM     32  F   UNL     1       1.522  15.162  18.364  0.00  0.00    +0.000 F 
ENDBRANCH  23  26
ENDBRANCH   4  22
BRANCH   5  33
ATOM     33  C   UNL     1      -0.050  10.219  22.351  0.00  0.00    +0.000 C 
ATOM     34  N   UNL     1      -0.532  10.610  23.329  0.00  0.00    +0.000 NA
ENDBRANCH   5  33
TORSDOF 6
ENDMDL
MODEL 3
REMARK VINA RESULT:      -8.1      3.836      5.195
REMARK  Name = 
REMARK  7 active torsions:
REMARK  status: ('A' for Active; 'I' for Inactive)
REMARK    1  A    between atoms: C_1  and  C_2
REMARK    2  A    between atoms: C_2  and  N_3
REMARK    3  A    between atoms: C_2  and  C_25
REMARK    4  A    between atoms: N_6  and  C_7
REMARK    5  A    between atoms: C_10  and  N_11
REMARK    6  A    between atoms: C_12  and  C_14
REMARK    7  A    between atoms: C_21  and  C_22
REMARK                            x       y       z     vdW  Elec       q    Type
REMARK                         _______ _______ _______ _____ _____    ______ ____
ROOT
ATOM      1  C   UNL     1      -0.540  10.803  18.386  0.00  0.00    +0.000 A 
ATOM      2  C   UNL     1      -0.127  11.739  19.324  0.00  0.00    +0.000 A 
ATOM      3  C   UNL     1      -1.046  12.573  19.961  0.00  0.00    +0.000 A 
ATOM      4  C   UNL     1      -2.415  12.502  19.698  0.00  0.00    +0.000 A 
ATOM      5  C   UNL     1      -2.834  11.599  18.699  0.00  0.00    +0.000 A 
ATOM      6  C   UNL     1      -1.893  10.771  18.037  0.00  0.00    +0.000 A 
ENDROOT
BRANCH   1  10
ATOM      7  N   UNL     1       1.974   8.244  17.712  0.00  0.00    +0.000 N 
ATOM      8  C   UNL     1       1.227   9.079  18.519  0.00  0.00    +0.000 C 
ATOM      9  O   UNL     1       1.332   9.044  19.736  0.00  0.00    +0.000 OA
ATOM     10  N   UNL     1       0.358   9.875  17.799  0.00  0.00    +0.000 N 
ATOM     11  H   UNL     1       2.161   8.545  16.770  0.00  0.00    +0.000 HD
ATOM     12  H   UNL     1       0.172   9.583  16.852  0.00  0.00    +0.000 HD
BRANCH   7  14
ATOM     13  C   UNL     1       4.170   7.125  17.469  0.00  0.00    +0.000 C 
ATOM     14  C   UNL     1       2.936   7.352  18.348  0.00  0.00    +0.000 C 
BRANCH  14  15
ATOM     15  C   UNL     1       2.294   6.046  18.776  0.00  0.00    +0.000 A 
ATOM     16  C   UNL     1       2.058   5.820  20.146  0.00  0.00    +0.000 A 
ATOM     17  C   UNL     1       1.544   4.603  20.591  0.00  0.00    +0.000 A 
ATOM     18  C   UNL     1       1.253   3.609  19.668  0.00  0.00    +0.000 A 
ATOM     19  F   UNL     1       0.779   2.431  20.094  0.00  0.00    +0.000 F 
ATOM     20  C   UNL     1       1.452   3.816  18.308  0.00  0.00    +0.000 A 
ATOM     21  C   UNL     1       1.968   5.034  17.860  0.00  0.00    +0.000 A 
ENDBRANCH  14  15
ENDBRANCH   7  14
ENDBRANCH   1  10
BRANCH   4  22
ATOM     22  N   UNL     1      -3.336  13.315  20.426  0.00  0.00    +0.000 N 
ATOM     23  C   UNL     1      -3.754  13.062  21.732  0.00  0.00    +0.000 C 
ATOM     24  O   UNL     1      -3.406  12.101  22.413  0.00  0.00    +0.000 OA
ATOM     25  H   UNL     1      -3.800  14.069  19.927  0.00  0.00    +0.000 HD
BRANCH  23  26
ATOM     26  C   UNL     1      -4.753  13.974  22.351  0.00  0.00    +0.000 A 
ATOM     27  C   UNL     1      -4.313  15.247  22.764  0.00  0.00    +0.000 A 
ATOM     28  C   UNL     1      -5.170  16.117  23.440  0.00  0.00    +0.000 A 
ATOM     29  C   UNL     1      -6.479  15.729  23.703  0.00  0.00    +0.000 A 
ATOM     30  C   UNL     1      -6.937  14.482  23.269  0.00  0.00    +0.000 A 
ATOM     31  C   UNL     1      -6.077  13.617  22.593  0.00  0.00    +0.000 A 
ATOM     32  F   UNL     1      -6.550  12.425  22.199  0.00  0.00    +0.000 F 
ENDBRANCH  23  26
ENDBRANCH   4  22
BRANCH   5  33
ATOM     33  C   UNL     1      -4.220  11.412  18.369  0.00  0.00    +0.000 C 
ATOM     34  N   UNL     1      -5.328  11.241  18.078  0.00  0.00    +0.000 NA
ENDBRANCH   5  33
TORSDOF 6
ENDMDL
MODEL 4
REMARK VINA RESULT:      -8.0      3.063      4.189
REMARK  Name = 
REMARK  7 active torsions:
REMARK  status: ('A' for Active; 'I' for Inactive)
REMARK    1  A    between atoms: C_1  and  C_2
REMARK    2  A    between atoms: C_2  and  N_3
REMARK    3  A    between atoms: C_2  and  C_25
REMARK    4  A    between atoms: N_6  and  C_7
REMARK    5  A    between atoms: C_10  and  N_11
REMARK    6  A    between atoms: C_12  and  C_14
REMARK    7  A    between atoms: C_21  and  C_22
REMARK                            x       y       z     vdW  Elec       q    Type
REMARK                         _______ _______ _______ _____ _____    ______ ____
ROOT
ATOM      1  C   UNL     1       1.029   9.882  18.156  0.00  0.00    +0.000 A 
ATOM      2  C   UNL     1       1.392  11.081  18.755  0.00  0.00    +0.000 A 
ATOM      3  C   UNL     1       0.435  12.043  19.078  0.00  0.00    +0.000 A 
ATOM      4  C   UNL     1      -0.924  11.846  18.830  0.00  0.00    +0.000 A 
ATOM      5  C   UNL     1      -1.293  10.659  18.163  0.00  0.00    +0.000 A 
ATOM      6  C   UNL     1      -0.314   9.696  17.814  0.00  0.00    +0.000 A 
ENDROOT
BRANCH   1  10
ATOM      7  N   UNL     1       3.228   6.975  18.336  0.00  0.00    +0.000 N 
ATOM      8  C   UNL     1       2.315   7.883  18.835  0.00  0.00    +0.000 C 
ATOM      9  O   UNL     1       1.864   7.772  19.965  0.00  0.00    +0.000 OA
ATOM     10  N   UNL     1       1.966   8.847  17.910  0.00  0.00    +0.000 N 
ATOM     11  H   UNL     1       3.851   7.286  17.609  0.00  0.00    +0.000 HD
ATOM     12  H   UNL     1       2.184   8.637  16.947  0.00  0.00    +0.000 HD
BRANCH   7  14
ATOM     13  C   UNL     1       5.159   5.563  18.978  0.00  0.00    +0.000 C 
ATOM     14  C   UNL     1       3.684   5.905  19.215  0.00  0.00    +0.000 C 
BRANCH  14  15
ATOM     15  C   UNL     1       2.793   4.681  19.121  0.00  0.00    +0.000 A 
ATOM     16  C   UNL     1       2.841   3.891  17.957  0.00  0.00    +0.000 A 
ATOM     17  C   UNL     1       1.984   2.803  17.795  0.00  0.00    +0.000 A 
ATOM     18  C   UNL     1       1.081   2.494  18.803  0.00  0.00    +0.000 A 
ATOM     19  F   UNL     1       0.241   1.462  18.642  0.00  0.00    +0.000 F 
ATOM     20  C   UNL     1       1.032   3.241  19.974  0.00  0.00    +0.000 A 
ATOM     21  C   UNL     1       1.889   4.332  20.137  0.00  0.00    +0.000 A 
ENDBRANCH  14  15
ENDBRANCH   7  14
ENDBRANCH   1  10
BRANCH   4  22
ATOM     22  N   UNL     1      -1.885  12.817  19.247  0.00  0.00    +0.000 N 
ATOM     23  C   UNL     1      -2.403  12.914  20.537  0.00  0.00    +0.000 C 
ATOM     24  O   UNL     1      -2.120  12.168  21.472  0.00  0.00    +0.000 OA
ATOM     25  H   UNL     1      -2.300  13.411  18.534  0.00  0.00    +0.000 HD
BRANCH  23  26
ATOM     26  C   UNL     1      -3.432  13.951  20.818  0.00  0.00    +0.000 A 
ATOM     27  C   UNL     1      -3.002  15.286  20.945  0.00  0.00    +0.000 A 
ATOM     28  C   UNL     1      -3.895  16.296  21.304  0.00  0.00    +0.000 A 
ATOM     29  C   UNL     1      -5.231  15.986  21.531  0.00  0.00    +0.000 A 
ATOM     30  C   UNL     1      -5.677  14.672  21.375  0.00  0.00    +0.000 A 
ATOM     31  C   UNL     1      -4.780  13.665  21.015  0.00  0.00    +0.000 A 
ATOM     32  F   UNL     1      -5.244  12.414  20.883  0.00  0.00    +0.000 F 
ENDBRANCH  23  26
ENDBRANCH   4  22
BRANCH   5  33
ATOM     33  C   UNL     1      -2.665  10.331  17.888  0.00  0.00    +0.000 C 
ATOM     34  N   UNL     1      -3.780  10.097  17.677  0.00  0.00    +0.000 NA
ENDBRANCH   5  33
TORSDOF 6
ENDMDL
MODEL 5
REMARK VINA RESULT:      -7.9      1.165      1.214
REMARK  Name = 
REMARK  7 active torsions:
REMARK  status: ('A' for Active; 'I' for Inactive)
REMARK    1  A    between atoms: C_1  and  C_2
REMARK    2  A    between atoms: C_2  and  N_3
REMARK    3  A    between atoms: C_2  and  C_25
REMARK    4  A    between atoms: N_6  and  C_7
REMARK    5  A    between atoms: C_10  and  N_11
REMARK    6  A    between atoms: C_12  and  C_14
REMARK    7  A    between atoms: C_21  and  C_22
REMARK                            x       y       z     vdW  Elec       q    Type
REMARK                         _______ _______ _______ _____ _____    ______ ____
ROOT
ATOM      1  C   UNL     1       2.002   7.672  19.981  0.00  0.00    +0.000 A 
ATOM      2  C   UNL     1       1.942   8.556  18.912  0.00  0.00    +0.000 A 
ATOM      3  C   UNL     1       1.335   9.805  19.043  0.00  0.00    +0.000 A 
ATOM      4  C   UNL     1       0.773  10.230  20.248  0.00  0.00    +0.000 A 
ATOM      5  C   UNL     1       0.773   9.313  21.320  0.00  0.00    +0.000 A 
ATOM      6  C   UNL     1       1.368   8.035  21.172  0.00  0.00    +0.000 A 
ENDROOT
BRANCH   1  10
ATOM      7  N   UNL     1       3.504   4.508  18.957  0.00  0.00    +0.000 N 
ATOM      8  C   UNL     1       2.731   5.638  18.780  0.00  0.00    +0.000 C 
ATOM      9  O   UNL     1       2.192   5.876  17.709  0.00  0.00    +0.000 OA
ATOM     10  N   UNL     1       2.700   6.441  19.904  0.00  0.00    +0.000 N 
ATOM     11  H   UNL     1       3.599   4.144  19.891  0.00  0.00    +0.000 HD
ATOM     12  H   UNL     1       3.421   6.271  20.589  0.00  0.00    +0.000 HD
BRANCH   7  14
ATOM     13  C   UNL     1       3.696   2.119  18.330  0.00  0.00    +0.000 C 
ATOM     14  C   UNL     1       3.617   3.571  17.846  0.00  0.00    +0.000 C 
BRANCH  14  15
ATOM     15  C   UNL     1       4.769   3.927  16.925  0.00  0.00    +0.000 A 
ATOM     16  C   UNL     1       6.005   4.297  17.490  0.00  0.00    +0.000 A 
ATOM     17  C   UNL     1       7.065   4.708  16.683  0.00  0.00    +0.000 A 
ATOM     18  C   UNL     1       6.899   4.740  15.306  0.00  0.00    +0.000 A 
ATOM     19  F   UNL     1       7.909   5.154  14.529  0.00  0.00    +0.000 F 
ATOM     20  C   UNL     1       5.698   4.354  14.721  0.00  0.00    +0.000 A 
ATOM     21  C   UNL     1       4.634   3.944  15.527  0.00  0.00    +0.000 A 
ENDBRANCH  14  15
ENDBRANCH   7  14
ENDBRANCH   1  10
BRANCH   4  22
ATOM     22  N   UNL     1       0.232  11.546  20.370  0.00  0.00    +0.000 N 
ATOM     23  C   UNL     1      -1.024  11.932  19.905  0.00  0.00    +0.000 C 
ATOM     24  O   UNL     1      -1.815  11.201  19.313  0.00  0.00    +0.000 OA
ATOM     25  H   UNL     1       0.842  12.279  20.724  0.00  0.00    +0.000 HD
BRANCH  23  26
ATOM     26  C   UNL     1      -1.440  13.351  20.064  0.00  0.00    +0.000 A 
ATOM     27  C   UNL     1      -0.610  14.345  19.507  0.00  0.00    +0.000 A 
ATOM     28  C   UNL     1      -0.885  15.699  19.700  0.00  0.00    +0.000 A 
ATOM     29  C   UNL     1      -1.997  16.077  20.444  0.00  0.00    +0.000 A 
ATOM     30  C   UNL     1      -2.847  15.102  20.972  0.00  0.00    +0.000 A 
ATOM     31  C   UNL     1      -2.568  13.749  20.775  0.00  0.00    +0.000 A 
ATOM     32  F   UNL     1      -3.401  12.842  21.305  0.00  0.00    +0.000 F 
ENDBRANCH  23  26
ENDBRANCH   4  22
BRANCH   5  33
ATOM     33  C   UNL     1       0.256   9.652  22.616  0.00  0.00    +0.000 C 
ATOM     34  N   UNL     1      -0.129   9.930  23.673  0.00  0.00    +0.000 NA
ENDBRANCH   5  33
TORSDOF 6
ENDMDL
MODEL 6
REMARK VINA RESULT:      -7.9      3.664      5.027
REMARK  Name = 
REMARK  7 active torsions:
REMARK  status: ('A' for Active; 'I' for Inactive)
REMARK    1  A    between atoms: C_1  and  C_2
REMARK    2  A    between atoms: C_2  and  N_3
REMARK    3  A    between atoms: C_2  and  C_25
REMARK    4  A    between atoms: N_6  and  C_7
REMARK    5  A    between atoms: C_10  and  N_11
REMARK    6  A    between atoms: C_12  and  C_14
REMARK    7  A    between atoms: C_21  and  C_22
REMARK                            x       y       z     vdW  Elec       q    Type
REMARK                         _______ _______ _______ _____ _____    ______ ____
ROOT
ATOM      1  C   UNL     1      -0.343  10.743  18.272  0.00  0.00    +0.000 A 
ATOM      2  C   UNL     1       0.048  11.689  19.210  0.00  0.00    +0.000 A 
ATOM      3  C   UNL     1      -0.887  12.523  19.824  0.00  0.00    +0.000 A 
ATOM      4  C   UNL     1      -2.250  12.441  19.538  0.00  0.00    +0.000 A 
ATOM      5  C   UNL     1      -2.647  11.528  18.539  0.00  0.00    +0.000 A 
ATOM      6  C   UNL     1      -1.690  10.701  17.900  0.00  0.00    +0.000 A 
ENDROOT
BRANCH   1  10
ATOM      7  N   UNL     1       2.163   8.162  17.661  0.00  0.00    +0.000 N 
ATOM      8  C   UNL     1       1.389   8.988  18.450  0.00  0.00    +0.000 C 
ATOM      9  O   UNL     1       1.429   8.920  19.670  0.00  0.00    +0.000 OA
ATOM     10  N   UNL     1       0.570   9.816  17.708  0.00  0.00    +0.000 N 
ATOM     11  H   UNL     1       2.404   8.483  16.738  0.00  0.00    +0.000 HD
ATOM     12  H   UNL     1       0.429   9.552  16.745  0.00  0.00    +0.000 HD
BRANCH   7  14
ATOM     13  C   UNL     1       4.309   6.941  17.460  0.00  0.00    +0.000 C 
ATOM     14  C   UNL     1       3.077   7.238  18.322  0.00  0.00    +0.000 C 
BRANCH  14  15
ATOM     15  C   UNL     1       2.373   5.969  18.764  0.00  0.00    +0.000 A 
ATOM     16  C   UNL     1       2.175   5.744  20.140  0.00  0.00    +0.000 A 
ATOM     17  C   UNL     1       1.604   4.556  20.595  0.00  0.00    +0.000 A 
ATOM     18  C   UNL     1       1.218   3.591  19.675  0.00  0.00    +0.000 A 
ATOM     19  F   UNL     1       0.688   2.440  20.110  0.00  0.00    +0.000 F 
ATOM     20  C   UNL     1       1.378   3.800  18.310  0.00  0.00    +0.000 A 
ATOM     21  C   UNL     1       1.951   4.988  17.853  0.00  0.00    +0.000 A 
ENDBRANCH  14  15
ENDBRANCH   7  14
ENDBRANCH   1  10
BRANCH   4  22
ATOM     22  N   UNL     1      -3.188  13.255  20.244  0.00  0.00    +0.000 N 
ATOM     23  C   UNL     1      -3.541  13.078  21.581  0.00  0.00    +0.000 C 
ATOM     24  O   UNL     1      -3.112  12.190  22.315  0.00  0.00    +0.000 OA
ATOM     25  H   UNL     1      -3.714  13.943  19.712  0.00  0.00    +0.000 HD
BRANCH  23  26
ATOM     26  C   UNL     1      -4.567  13.976  22.175  0.00  0.00    +0.000 A 
ATOM     27  C   UNL     1      -5.734  14.226  21.425  0.00  0.00    +0.000 A 
ATOM     28  C   UNL     1      -6.693  15.134  21.875  0.00  0.00    +0.000 A 
ATOM     29  C   UNL     1      -6.503  15.797  23.082  0.00  0.00    +0.000 A 
ATOM     30  C   UNL     1      -5.366  15.532  23.851  0.00  0.00    +0.000 A 
ATOM     31  C   UNL     1      -4.410  14.623  23.397  0.00  0.00    +0.000 A 
ATOM     32  F   UNL     1      -3.328  14.402  24.158  0.00  0.00    +0.000 F 
ENDBRANCH  23  26
ENDBRANCH   4  22
BRANCH   5  33
ATOM     33  C   UNL     1      -4.026  11.332  18.187  0.00  0.00    +0.000 C 
ATOM     34  N   UNL     1      -5.138  11.203  17.887  0.00  0.00    +0.000 NA
ENDBRANCH   5  33
TORSDOF 6
ENDMDL
MODEL 7
REMARK VINA RESULT:      -7.9      3.572      5.014
REMARK  Name = 
REMARK  7 active torsions:
REMARK  status: ('A' for Active; 'I' for Inactive)
REMARK    1  A    between atoms: C_1  and  C_2
REMARK    2  A    between atoms: C_2  and  N_3
REMARK    3  A    between atoms: C_2  and  C_25
REMARK    4  A    between atoms: N_6  and  C_7
REMARK    5  A    between atoms: C_10  and  N_11
REMARK    6  A    between atoms: C_12  and  C_14
REMARK    7  A    between atoms: C_21  and  C_22
REMARK                            x       y       z     vdW  Elec       q    Type
REMARK                         _______ _______ _______ _____ _____    ______ ____
ROOT
ATOM      1  C   UNL     1      -0.111  10.752  18.549  0.00  0.00    +0.000 A 
ATOM      2  C   UNL     1       0.333  11.592  19.562  0.00  0.00    +0.000 A 
ATOM      3  C   UNL     1      -0.550  12.435  20.237  0.00  0.00    +0.000 A 
ATOM      4  C   UNL     1      -1.913  12.468  19.940  0.00  0.00    +0.000 A 
ATOM      5  C   UNL     1      -2.360  11.665  18.870  0.00  0.00    +0.000 A 
ATOM      6  C   UNL     1      -1.455  10.829  18.171  0.00  0.00    +0.000 A 
ENDROOT
BRANCH   1  10
ATOM      7  N   UNL     1       2.282   8.116  17.748  0.00  0.00    +0.000 N 
ATOM      8  C   UNL     1       1.574   8.944  18.596  0.00  0.00    +0.000 C 
ATOM      9  O   UNL     1       1.675   8.843  19.810  0.00  0.00    +0.000 OA
ATOM     10  N   UNL     1       0.744   9.814  17.917  0.00  0.00    +0.000 N 
ATOM     11  H   UNL     1       2.485   8.454  16.822  0.00  0.00    +0.000 HD
ATOM     12  H   UNL     1       0.546   9.579  16.956  0.00  0.00    +0.000 HD
BRANCH   7  14
ATOM     13  C   UNL     1       4.398   6.871  17.425  0.00  0.00    +0.000 C 
ATOM     14  C   UNL     1       3.200   7.150  18.338  0.00  0.00    +0.000 C 
BRANCH  14  15
ATOM     15  C   UNL     1       2.488   5.874  18.748  0.00  0.00    +0.000 A 
ATOM     16  C   UNL     1       2.114   4.952  17.752  0.00  0.00    +0.000 A 
ATOM     17  C   UNL     1       1.389   3.806  18.075  0.00  0.00    +0.000 A 
ATOM     18  C   UNL     1       1.044   3.570  19.398  0.00  0.00    +0.000 A 
ATOM     19  F   UNL     1       0.330   2.480  19.709  0.00  0.00    +0.000 F 
ATOM     20  C   UNL     1       1.424   4.450  20.404  0.00  0.00    +0.000 A 
ATOM     21  C   UNL     1       2.149   5.600  20.082  0.00  0.00    +0.000 A 
ENDBRANCH  14  15
ENDBRANCH   7  14
ENDBRANCH   1  10
BRANCH   4  22
ATOM     22  N   UNL     1      -2.801  13.283  20.706  0.00  0.00    +0.000 N 
ATOM     23  C   UNL     1      -3.179  13.023  22.022  0.00  0.00    +0.000 C 
ATOM     24  O   UNL     1      -2.818  12.052  22.683  0.00  0.00    +0.000 OA
ATOM     25  H   UNL     1      -3.274  14.047  20.229  0.00  0.00    +0.000 HD
BRANCH  23  26
ATOM     26  C   UNL     1      -4.148  13.939  22.681  0.00  0.00    +0.000 A 
ATOM     27  C   UNL     1      -5.476  13.491  22.833  0.00  0.00    +0.000 A 
ATOM     28  C   UNL     1      -6.460  14.331  23.354  0.00  0.00    +0.000 A 
ATOM     29  C   UNL     1      -6.129  15.626  23.737  0.00  0.00    +0.000 A 
ATOM     30  C   UNL     1      -4.810  16.071  23.623  0.00  0.00    +0.000 A 
ATOM     31  C   UNL     1      -3.828  15.226  23.103  0.00  0.00    +0.000 A 
ATOM     32  F   UNL     1      -2.575  15.691  23.000  0.00  0.00    +0.000 F 
ENDBRANCH  23  26
ENDBRANCH   4  22
BRANCH   5  33
ATOM     33  C   UNL     1      -3.746  11.589  18.498  0.00  0.00    +0.000 C 
ATOM     34  N   UNL     1      -4.865  11.562  18.201  0.00  0.00    +0.000 NA
ENDBRANCH   5  33
TORSDOF 6
ENDMDL
MODEL 8
REMARK VINA RESULT:      -7.8      3.015      4.153
REMARK  Name = 
REMARK  7 active torsions:
REMARK  status: ('A' for Active; 'I' for Inactive)
REMARK    1  A    between atoms: C_1  and  C_2
REMARK    2  A    between atoms: C_2  and  N_3
REMARK    3  A    between atoms: C_2  and  C_25
REMARK    4  A    between atoms: N_6  and  C_7
REMARK    5  A    between atoms: C_10  and  N_11
REMARK    6  A    between atoms: C_12  and  C_14
REMARK    7  A    between atoms: C_21  and  C_22
REMARK                            x       y       z     vdW  Elec       q    Type
REMARK                         _______ _______ _______ _____ _____    ______ ____
ROOT
ATOM      1  C   UNL     1       1.014   9.897  18.165  0.00  0.00    +0.000 A 
ATOM      2  C   UNL     1       1.378  11.090  18.775  0.00  0.00    +0.000 A 
ATOM      3  C   UNL     1       0.421  12.048  19.110  0.00  0.00    +0.000 A 
ATOM      4  C   UNL     1      -0.938  11.854  18.862  0.00  0.00    +0.000 A 
ATOM      5  C   UNL     1      -1.308  10.674  18.183  0.00  0.00    +0.000 A 
ATOM      6  C   UNL     1      -0.329   9.715  17.822  0.00  0.00    +0.000 A 
ENDROOT
BRANCH   1  10
ATOM      7  N   UNL     1       3.218   6.992  18.314  0.00  0.00    +0.000 N 
ATOM      8  C   UNL     1       2.308   7.896  18.824  0.00  0.00    +0.000 C 
ATOM      9  O   UNL     1       1.864   7.778  19.957  0.00  0.00    +0.000 OA
ATOM     10  N   UNL     1       1.950   8.864  17.906  0.00  0.00    +0.000 N 
ATOM     11  H   UNL     1       3.835   7.307  17.584  0.00  0.00    +0.000 HD
ATOM     12  H   UNL     1       2.162   8.659  16.941  0.00  0.00    +0.000 HD
BRANCH   7  14
ATOM     13  C   UNL     1       5.158   5.586  18.942  0.00  0.00    +0.000 C 
ATOM     14  C   UNL     1       3.682   5.918  19.184  0.00  0.00    +0.000 C 
BRANCH  14  15
ATOM     15  C   UNL     1       2.798   4.689  19.082  0.00  0.00    +0.000 A 
ATOM     16  C   UNL     1       2.949   3.831  17.975  0.00  0.00    +0.000 A 
ATOM     17  C   UNL     1       2.105   2.735  17.801  0.00  0.00    +0.000 A 
ATOM     18  C   UNL     1       1.113   2.484  18.738  0.00  0.00    +0.000 A 
ATOM     19  F   UNL     1       0.288   1.444  18.563  0.00  0.00    +0.000 F 
ATOM     20  C   UNL     1       0.960   3.300  19.854  0.00  0.00    +0.000 A 
ATOM     21  C   UNL     1       1.803   4.400  20.029  0.00  0.00    +0.000 A 
ENDBRANCH  14  15
ENDBRANCH   7  14
ENDBRANCH   1  10
BRANCH   4  22
ATOM     22  N   UNL     1      -1.898  12.820  19.290  0.00  0.00    +0.000 N 
ATOM     23  C   UNL     1      -2.328  12.980  20.607  0.00  0.00    +0.000 C 
ATOM     24  O   UNL     1      -1.955  12.300  21.560  0.00  0.00    +0.000 OA
ATOM     25  H   UNL     1      -2.382  13.358  18.575  0.00  0.00    +0.000 HD
BRANCH  23  26
ATOM     26  C   UNL     1      -3.367  14.002  20.900  0.00  0.00    +0.000 A 
ATOM     27  C   UNL     1      -4.669  13.774  20.410  0.00  0.00    +0.000 A 
ATOM     28  C   UNL     1      -5.670  14.733  20.563  0.00  0.00    +0.000 A 
ATOM     29  C   UNL     1      -5.386  15.929  21.215  0.00  0.00    +0.000 A 
ATOM     30  C   UNL     1      -4.109  16.152  21.735  0.00  0.00    +0.000 A 
ATOM     31  C   UNL     1      -3.111  15.189  21.580  0.00  0.00    +0.000 A 
ATOM     32  F   UNL     1      -1.895  15.443  22.085  0.00  0.00    +0.000 F 
ENDBRANCH  23  26
ENDBRANCH   4  22
BRANCH   5  33
ATOM     33  C   UNL     1      -2.680  10.349  17.906  0.00  0.00    +0.000 C 
ATOM     34  N   UNL     1      -3.794  10.091  17.716  0.00  0.00    +0.000 NA
ENDBRANCH   5  33
TORSDOF 6
ENDMDL
MODEL 9
REMARK VINA RESULT:      -7.8      0.910      1.191
REMARK  Name = 
REMARK  7 active torsions:
REMARK  status: ('A' for Active; 'I' for Inactive)
REMARK    1  A    between atoms: C_1  and  C_2
REMARK    2  A    between atoms: C_2  and  N_3
REMARK    3  A    between atoms: C_2  and  C_25
REMARK    4  A    between atoms: N_6  and  C_7
REMARK    5  A    between atoms: C_10  and  N_11
REMARK    6  A    between atoms: C_12  and  C_14
REMARK    7  A    between atoms: C_21  and  C_22
REMARK                            x       y       z     vdW  Elec       q    Type
REMARK                         _______ _______ _______ _____ _____    ______ ____
ROOT
ATOM      1  C   UNL     1       1.829   7.848  20.169  0.00  0.00    +0.000 A 
ATOM      2  C   UNL     1       1.880   8.691  19.067  0.00  0.00    +0.000 A 
ATOM      3  C   UNL     1       1.276   9.948  19.094  0.00  0.00    +0.000 A 
ATOM      4  C   UNL     1       0.607  10.422  20.224  0.00  0.00    +0.000 A 
ATOM      5  C   UNL     1       0.496   9.546  21.324  0.00  0.00    +0.000 A 
ATOM      6  C   UNL     1       1.089   8.260  21.281  0.00  0.00    +0.000 A 
ENDROOT
BRANCH   1  10
ATOM      7  N   UNL     1       3.353   4.617  19.422  0.00  0.00    +0.000 N 
ATOM      8  C   UNL     1       2.601   5.739  19.136  0.00  0.00    +0.000 C 
ATOM      9  O   UNL     1       2.120   5.913  18.026  0.00  0.00    +0.000 OA
ATOM     10  N   UNL     1       2.519   6.610  20.205  0.00  0.00    +0.000 N 
ATOM     11  H   UNL     1       3.396   4.311  20.380  0.00  0.00    +0.000 HD
ATOM     12  H   UNL     1       3.202   6.479  20.936  0.00  0.00    +0.000 HD
BRANCH   7  14
ATOM     13  C   UNL     1       3.632   2.200  18.958  0.00  0.00    +0.000 C 
ATOM     14  C   UNL     1       3.515   3.613  18.377  0.00  0.00    +0.000 C 
BRANCH  14  15
ATOM     15  C   UNL     1       4.670   3.944  17.452  0.00  0.00    +0.000 A 
ATOM     16  C   UNL     1       5.918   4.281  18.012  0.00  0.00    +0.000 A 
ATOM     17  C   UNL     1       6.984   4.668  17.202  0.00  0.00    +0.000 A 
ATOM     18  C   UNL     1       6.812   4.712  15.826  0.00  0.00    +0.000 A 
ATOM     19  F   UNL     1       7.827   5.105  15.046  0.00  0.00    +0.000 F 
ATOM     20  C   UNL     1       5.598   4.360  15.245  0.00  0.00    +0.000 A 
ATOM     21  C   UNL     1       4.529   3.972  16.055  0.00  0.00    +0.000 A 
ENDBRANCH  14  15
ENDBRANCH   7  14
ENDBRANCH   1  10
BRANCH   4  22
ATOM     22  N   UNL     1       0.070  11.745  20.245  0.00  0.00    +0.000 N 
ATOM     23  C   UNL     1       0.755  12.871  20.698  0.00  0.00    +0.000 C 
ATOM     24  O   UNL     1       1.896  12.868  21.157  0.00  0.00    +0.000 OA
ATOM     25  H   UNL     1      -0.913  11.862  20.014  0.00  0.00    +0.000 HD
BRANCH  23  26
ATOM     26  C   UNL     1       0.054  14.182  20.702  0.00  0.00    +0.000 A 
ATOM     27  C   UNL     1      -0.102  14.840  21.939  0.00  0.00    +0.000 A 
ATOM     28  C   UNL     1      -0.833  16.024  22.033  0.00  0.00    +0.000 A 
ATOM     29  C   UNL     1      -1.412  16.570  20.892  0.00  0.00    +0.000 A 
ATOM     30  C   UNL     1      -1.236  15.946  19.655  0.00  0.00    +0.000 A 
ATOM     31  C   UNL     1      -0.503  14.762  19.566  0.00  0.00    +0.000 A 
ATOM     32  F   UNL     1      -0.364  14.186  18.362  0.00  0.00    +0.000 F 
ENDBRANCH  23  26
ENDBRANCH   4  22
BRANCH   5  33
ATOM     33  C   UNL     1      -0.138   9.938  22.552  0.00  0.00    +0.000 C 
ATOM     34  N   UNL     1      -0.632  10.283  23.542  0.00  0.00    +0.000 NA
ENDBRANCH   5  33
TORSDOF 6
ENDMDL
