MODEL 1
REMARK VINA RESULT:      -7.0      0.000      0.000
REMARK  Name = 
REMARK  5 active torsions:
REMARK  status: ('A' for Active; 'I' for Inactive)
REMARK    1  A    between atoms: C_1  and  O_2
REMARK    2  A    between atoms: O_2  and  C_3
REMARK    3  A    between atoms: C_9  and  O_10
REMARK    4  A    between atoms: C_14  and  O_15
REMARK    5  A    between atoms: C_16  and  O_17
REMARK                            x       y       z     vdW  Elec       q    Type
REMARK                         _______ _______ _______ _____ _____    ______ ____
ROOT
ATOM      1  C   UNL     1       5.920   6.093  17.513  0.00  0.00    +0.000 A 
ATOM      2  C   UNL     1       4.710   6.724  17.810  0.00  0.00    +0.000 A 
ATOM      3  C   UNL     1       3.726   6.100  18.592  0.00  0.00    +0.000 A 
ATOM      4  C   UNL     1       2.488   6.855  18.806  0.00  0.00    +0.000 A 
ATOM      5  C   UNL     1       2.100   6.871  20.090  0.00  0.00    +0.000 A 
ATOM      6  C   UNL     1       1.169   5.820  20.424  0.00  0.00    +0.000 A 
ATOM      7  C   UNL     1       1.542   4.528  20.369  0.00  0.00    +0.000 A 
ATOM      8  C   UNL     1       2.922   4.028  19.944  0.00  0.00    +0.000 A 
ATOM      9  O   UNL     1       3.259   2.895  20.313  0.00  0.00    +0.000 OA
ATOM     10  C   UNL     1       3.923   4.796  19.108  0.00  0.00    +0.000 A 
ATOM     11  C   UNL     1       5.154   4.178  18.803  0.00  0.00    +0.000 A 
ATOM     12  C   UNL     1       6.133   4.814  18.020  0.00  0.00    +0.000 A 
ENDROOT
BRANCH   1  14
ATOM     13  C   UNL     1       7.626   7.753  17.484  0.00  0.00    +0.000 C 
ATOM     14  O   UNL     1       6.766   6.872  16.777  0.00  0.00    +0.000 OA
ENDBRANCH   1  14
BRANCH   7  15
ATOM     15  O   UNL     1       0.659   3.545  20.801  0.00  0.00    +0.000 OA
ATOM     16  H   UNL     1       0.950   2.684  20.461  0.00  0.00    +0.000 HD
ENDBRANCH   7  15
BRANCH  11  17
ATOM     17  O   UNL     1       5.509   2.918  19.251  0.00  0.00    +0.000 OA
ATOM     18  H   UNL     1       5.004   2.747  20.084  0.00  0.00    +0.000 HD
ENDBRANCH  11  17
BRANCH  12  19
ATOM     19  O   UNL     1       7.302   4.129  17.799  0.00  0.00    +0.000 OA
ATOM     20  H   UNL     1       8.004   4.735  18.116  0.00  0.00    +0.000 HD
ENDBRANCH  12  19
TORSDOF 4
ENDMDL
MODEL 2
REMARK VINA RESULT:      -6.9      1.336      1.363
REMARK  Name = 
REMARK  5 active torsions:
REMARK  status: ('A' for Active; 'I' for Inactive)
REMARK    1  A    between atoms: C_1  and  O_2
REMARK    2  A    between atoms: O_2  and  C_3
REMARK    3  A    between atoms: C_9  and  O_10
REMARK    4  A    between atoms: C_14  and  O_15
REMARK    5  A    between atoms: C_16  and  O_17
REMARK                            x       y       z     vdW  Elec       q    Type
REMARK                         _______ _______ _______ _____ _____    ______ ____
ROOT
ATOM      1  C   UNL     1       5.376   5.719  17.019  0.00  0.00    +0.000 A 
ATOM      2  C   UNL     1       4.374   6.298  17.800  0.00  0.00    +0.000 A 
ATOM      3  C   UNL     1       3.376   5.524  18.410  0.00  0.00    +0.000 A 
ATOM      4  C   UNL     1       2.362   6.253  19.177  0.00  0.00    +0.000 A 
ATOM      5  C   UNL     1       2.137   5.720  20.388  0.00  0.00    +0.000 A 
ATOM      6  C   UNL     1       1.046   4.775  20.407  0.00  0.00    +0.000 A 
ATOM      7  C   UNL     1       1.124   3.621  19.718  0.00  0.00    +0.000 A 
ATOM      8  C   UNL     1       2.305   3.194  18.849  0.00  0.00    +0.000 A 
ATOM      9  O   UNL     1       2.430   1.985  18.607  0.00  0.00    +0.000 OA
ATOM     10  C   UNL     1       3.345   4.117  18.251  0.00  0.00    +0.000 A 
ATOM     11  C   UNL     1       4.370   3.550  17.465  0.00  0.00    +0.000 A 
ATOM     12  C   UNL     1       5.367   4.337  16.860  0.00  0.00    +0.000 A 
ENDROOT
BRANCH   1  14
ATOM     13  C   UNL     1       7.312   7.045  17.427  0.00  0.00    +0.000 C 
ATOM     14  O   UNL     1       6.280   6.627  16.546  0.00  0.00    +0.000 OA
ENDBRANCH   1  14
BRANCH   7  15
ATOM     15  O   UNL     1       0.105   2.683  19.844  0.00  0.00    +0.000 OA
ATOM     16  H   UNL     1      -0.731   3.081  19.555  0.00  0.00    +0.000 HD
ENDBRANCH   7  15
BRANCH  11  17
ATOM     17  O   UNL     1       4.494   2.192  17.234  0.00  0.00    +0.000 OA
ATOM     18  H   UNL     1       3.767   1.739  17.728  0.00  0.00    +0.000 HD
ENDBRANCH  11  17
BRANCH  12  19
ATOM     19  O   UNL     1       6.326   3.680  16.131  0.00  0.00    +0.000 OA
ATOM     20  H   UNL     1       6.502   2.861  16.639  0.00  0.00    +0.000 HD
ENDBRANCH  12  19
TORSDOF 4
ENDMDL
MODEL 3
REMARK VINA RESULT:      -6.9      1.692      1.824
REMARK  Name = 
REMARK  5 active torsions:
REMARK  status: ('A' for Active; 'I' for Inactive)
REMARK    1  A    between atoms: C_1  and  O_2
REMARK    2  A    between atoms: O_2  and  C_3
REMARK    3  A    between atoms: C_9  and  O_10
REMARK    4  A    between atoms: C_14  and  O_15
REMARK    5  A    between atoms: C_16  and  O_17
REMARK                            x       y       z     vdW  Elec       q    Type
REMARK                         _______ _______ _______ _____ _____    ______ ____
ROOT
ATOM      1  C   UNL     1       6.086   6.538  16.860  0.00  0.00    +0.000 A 
ATOM      2  C   UNL     1       4.934   6.864  17.579  0.00  0.00    +0.000 A 
ATOM      3  C   UNL     1       3.961   5.902  17.887  0.00  0.00    +0.000 A 
ATOM      4  C   UNL     1       2.783   6.376  18.619  0.00  0.00    +0.000 A 
ATOM      5  C   UNL     1       2.468   5.600  19.666  0.00  0.00    +0.000 A 
ATOM      6  C   UNL     1       1.498   4.578  19.356  0.00  0.00    +0.000 A 
ATOM      7  C   UNL     1       1.791   3.592  18.487  0.00  0.00    +0.000 A 
ATOM      8  C   UNL     1       3.113   3.447  17.736  0.00  0.00    +0.000 A 
ATOM      9  O   UNL     1       3.404   2.324  17.299  0.00  0.00    +0.000 OA
ATOM     10  C   UNL     1       4.109   4.556  17.472  0.00  0.00    +0.000 A 
ATOM     11  C   UNL     1       5.283   4.245  16.754  0.00  0.00    +0.000 A 
ATOM     12  C   UNL     1       6.252   5.218  16.453  0.00  0.00    +0.000 A 
ENDROOT
BRANCH   1  14
ATOM     13  C   UNL     1       7.808   7.908  17.770  0.00  0.00    +0.000 C 
ATOM     14  O   UNL     1       6.934   7.596  16.696  0.00  0.00    +0.000 OA
ENDBRANCH   1  14
BRANCH   7  15
ATOM     15  O   UNL     1       0.878   2.562  18.291  0.00  0.00    +0.000 OA
ATOM     16  H   UNL     1       0.611   2.205  19.153  0.00  0.00    +0.000 HD
ENDBRANCH   7  15
BRANCH  11  17
ATOM     17  O   UNL     1       5.588   2.974  16.301  0.00  0.00    +0.000 OA
ATOM     18  H   UNL     1       6.531   2.981  16.008  0.00  0.00    +0.000 HD
ENDBRANCH  11  17
BRANCH  12  19
ATOM     19  O   UNL     1       7.365   4.803  15.764  0.00  0.00    +0.000 OA
ATOM     20  H   UNL     1       8.027   4.613  16.461  0.00  0.00    +0.000 HD
ENDBRANCH  12  19
TORSDOF 4
ENDMDL
MODEL 4
REMARK VINA RESULT:      -6.8      2.130      4.822
REMARK  Name = 
REMARK  5 active torsions:
REMARK  status: ('A' for Active; 'I' for Inactive)
REMARK    1  A    between atoms: C_1  and  O_2
REMARK    2  A    between atoms: O_2  and  C_3
REMARK    3  A    between atoms: C_9  and  O_10
REMARK    4  A    between atoms: C_14  and  O_15
REMARK    5  A    between atoms: C_16  and  O_17
REMARK                            x       y       z     vdW  Elec       q    Type
REMARK                         _______ _______ _______ _____ _____    ______ ____
ROOT
ATOM      1  C   UNL     1       2.500   7.524  18.431  0.00  0.00    +0.000 A 
ATOM      2  C   UNL     1       3.358   7.534  17.330  0.00  0.00    +0.000 A 
ATOM      3  C   UNL     1       4.457   6.666  17.244  0.00  0.00    +0.000 A 
ATOM      4  C   UNL     1       5.300   6.797  16.052  0.00  0.00    +0.000 A 
ATOM      5  C   UNL     1       5.576   5.619  15.473  0.00  0.00    +0.000 A 
ATOM      6  C   UNL     1       6.815   5.031  15.923  0.00  0.00    +0.000 A 
ATOM      7  C   UNL     1       6.965   4.639  17.202  0.00  0.00    +0.000 A 
ATOM      8  C   UNL     1       5.908   4.780  18.295  0.00  0.00    +0.000 A 
ATOM      9  O   UNL     1       6.006   4.041  19.286  0.00  0.00    +0.000 OA
ATOM     10  C   UNL     1       4.742   5.744  18.281  0.00  0.00    +0.000 A 
ATOM     11  C   UNL     1       3.859   5.743  19.382  0.00  0.00    +0.000 A 
ATOM     12  C   UNL     1       2.760   6.617  19.455  0.00  0.00    +0.000 A 
ENDROOT
BRANCH   1  14
ATOM     13  C   UNL     1       1.781   9.735  17.918  0.00  0.00    +0.000 C 
ATOM     14  O   UNL     1       1.467   8.408  18.315  0.00  0.00    +0.000 OA
ENDBRANCH   1  14
BRANCH   7  15
ATOM     15  O   UNL     1       8.129   3.978  17.580  0.00  0.00    +0.000 OA
ATOM     16  H   UNL     1       7.949   3.442  18.368  0.00  0.00    +0.000 HD
ENDBRANCH   7  15
BRANCH  11  17
ATOM     17  O   UNL     1       3.985   4.888  20.462  0.00  0.00    +0.000 OA
ATOM     18  H   UNL     1       3.806   5.415  21.279  0.00  0.00    +0.000 HD
ENDBRANCH  11  17
BRANCH  12  19
ATOM     19  O   UNL     1       1.955   6.520  20.564  0.00  0.00    +0.000 OA
ATOM     20  H   UNL     1       2.085   5.602  20.880  0.00  0.00    +0.000 HD
ENDBRANCH  12  19
TORSDOF 4
ENDMDL
MODEL 5
REMARK VINA RESULT:      -6.6      2.316      3.373
REMARK  Name = 
REMARK  5 active torsions:
REMARK  status: ('A' for Active; 'I' for Inactive)
REMARK    1  A    between atoms: C_1  and  O_2
REMARK    2  A    between atoms: O_2  and  C_3
REMARK    3  A    between atoms: C_9  and  O_10
REMARK    4  A    between atoms: C_14  and  O_15
REMARK    5  A    between atoms: C_16  and  O_17
REMARK                            x       y       z     vdW  Elec       q    Type
REMARK                         _______ _______ _______ _____ _____    ______ ____
ROOT
ATOM      1  C   UNL     1       5.727   4.615  15.961  0.00  0.00    +0.000 A 
ATOM      2  C   UNL     1       5.092   3.489  16.489  0.00  0.00    +0.000 A 
ATOM      3  C   UNL     1       4.042   3.599  17.412  0.00  0.00    +0.000 A 
ATOM      4  C   UNL     1       3.481   2.343  17.916  0.00  0.00    +0.000 A 
ATOM      5  C   UNL     1       2.140   2.316  17.882  0.00  0.00    +0.000 A 
ATOM      6  C   UNL     1       1.524   2.742  19.116  0.00  0.00    +0.000 A 
ATOM      7  C   UNL     1       1.664   4.008  19.553  0.00  0.00    +0.000 A 
ATOM      8  C   UNL     1       2.473   5.096  18.850  0.00  0.00    +0.000 A 
ATOM      9  O   UNL     1       2.202   6.275  19.119  0.00  0.00    +0.000 OA
ATOM     10  C   UNL     1       3.584   4.867  17.848  0.00  0.00    +0.000 A 
ATOM     11  C   UNL     1       4.232   5.993  17.297  0.00  0.00    +0.000 A 
ATOM     12  C   UNL     1       5.284   5.869  16.372  0.00  0.00    +0.000 A 
ENDROOT
BRANCH   1  14
ATOM     13  C   UNL     1       6.274   3.944  13.743  0.00  0.00    +0.000 C 
ATOM     14  O   UNL     1       6.695   4.309  15.050  0.00  0.00    +0.000 OA
ENDBRANCH   1  14
BRANCH   7  15
ATOM     15  O   UNL     1       0.970   4.418  20.686  0.00  0.00    +0.000 OA
ATOM     16  H   UNL     1       1.403   4.053  21.474  0.00  0.00    +0.000 HD
ENDBRANCH   7  15
BRANCH  11  17
ATOM     17  O   UNL     1       3.887   7.298  17.602  0.00  0.00    +0.000 OA
ATOM     18  H   UNL     1       3.832   7.368  18.586  0.00  0.00    +0.000 HD
ENDBRANCH  11  17
BRANCH  12  19
ATOM     19  O   UNL     1       5.831   7.031  15.887  0.00  0.00    +0.000 OA
ATOM     20  H   UNL     1       5.907   6.880  14.921  0.00  0.00    +0.000 HD
ENDBRANCH  12  19
TORSDOF 4
ENDMDL
MODEL 6
REMARK VINA RESULT:      -6.5      1.650      1.862
REMARK  Name = 
REMARK  5 active torsions:
REMARK  status: ('A' for Active; 'I' for Inactive)
REMARK    1  A    between atoms: C_1  and  O_2
REMARK    2  A    between atoms: O_2  and  C_3
REMARK    3  A    between atoms: C_9  and  O_10
REMARK    4  A    between atoms: C_14  and  O_15
REMARK    5  A    between atoms: C_16  and  O_17
REMARK                            x       y       z     vdW  Elec       q    Type
REMARK                         _______ _______ _______ _____ _____    ______ ____
ROOT
ATOM      1  C   UNL     1       6.019   5.556  18.389  0.00  0.00    +0.000 A 
ATOM      2  C   UNL     1       4.927   5.837  19.213  0.00  0.00    +0.000 A 
ATOM      3  C   UNL     1       3.780   5.030  19.218  0.00  0.00    +0.000 A 
ATOM      4  C   UNL     1       2.691   5.450  20.104  0.00  0.00    +0.000 A 
ATOM      5  C   UNL     1       2.202   4.445  20.846  0.00  0.00    +0.000 A 
ATOM      6  C   UNL     1       1.065   3.787  20.248  0.00  0.00    +0.000 A 
ATOM      7  C   UNL     1       1.194   3.107  19.093  0.00  0.00    +0.000 A 
ATOM      8  C   UNL     1       2.487   2.971  18.292  0.00  0.00    +0.000 A 
ATOM      9  O   UNL     1       2.573   2.022  17.500  0.00  0.00    +0.000 OA
ATOM     10  C   UNL     1       3.683   3.895  18.377  0.00  0.00    +0.000 A 
ATOM     11  C   UNL     1       4.799   3.622  17.557  0.00  0.00    +0.000 A 
ATOM     12  C   UNL     1       5.945   4.438  17.563  0.00  0.00    +0.000 A 
ENDROOT
BRANCH   1  14
ATOM     13  C   UNL     1       7.262   7.401  17.542  0.00  0.00    +0.000 C 
ATOM     14  O   UNL     1       7.056   6.427  18.555  0.00  0.00    +0.000 OA
ENDBRANCH   1  14
BRANCH   7  15
ATOM     15  O   UNL     1       0.108   2.392  18.599  0.00  0.00    +0.000 OA
ATOM     16  H   UNL     1      -0.387   2.954  17.981  0.00  0.00    +0.000 HD
ENDBRANCH   7  15
BRANCH  11  17
ATOM     17  O   UNL     1       4.871   2.539  16.700  0.00  0.00    +0.000 OA
ATOM     18  H   UNL     1       4.478   2.817  15.837  0.00  0.00    +0.000 HD
ENDBRANCH  11  17
BRANCH  12  19
ATOM     19  O   UNL     1       6.979   4.071  16.738  0.00  0.00    +0.000 OA
ATOM     20  H   UNL     1       6.545   3.593  16.001  0.00  0.00    +0.000 HD
ENDBRANCH  12  19
TORSDOF 4
ENDMDL
MODEL 7
REMARK VINA RESULT:      -6.4      1.690      5.088
REMARK  Name = 
REMARK  5 active torsions:
REMARK  status: ('A' for Active; 'I' for Inactive)
REMARK    1  A    between atoms: C_1  and  O_2
REMARK    2  A    between atoms: O_2  and  C_3
REMARK    3  A    between atoms: C_9  and  O_10
REMARK    4  A    between atoms: C_14  and  O_15
REMARK    5  A    between atoms: C_16  and  O_17
REMARK                            x       y       z     vdW  Elec       q    Type
REMARK                         _______ _______ _______ _____ _____    ______ ____
ROOT
ATOM      1  C   UNL     1       2.093   3.465  19.434  0.00  0.00    +0.000 A 
ATOM      2  C   UNL     1       2.497   4.794  19.289  0.00  0.00    +0.000 A 
ATOM      3  C   UNL     1       3.547   5.155  18.433  0.00  0.00    +0.000 A 
ATOM      4  C   UNL     1       3.897   6.578  18.394  0.00  0.00    +0.000 A 
ATOM      5  C   UNL     1       4.025   7.053  17.146  0.00  0.00    +0.000 A 
ATOM      6  C   UNL     1       5.380   7.010  16.649  0.00  0.00    +0.000 A 
ATOM      7  C   UNL     1       6.003   5.833  16.455  0.00  0.00    +0.000 A 
ATOM      8  C   UNL     1       5.401   4.459  16.745  0.00  0.00    +0.000 A 
ATOM      9  O   UNL     1       5.896   3.483  16.165  0.00  0.00    +0.000 OA
ATOM     10  C   UNL     1       4.245   4.179  17.681  0.00  0.00    +0.000 A 
ATOM     11  C   UNL     1       3.817   2.843  17.834  0.00  0.00    +0.000 A 
ATOM     12  C   UNL     1       2.761   2.493  18.695  0.00  0.00    +0.000 A 
ENDROOT
BRANCH   1  14
ATOM     13  C   UNL     1       1.292   2.812  21.579  0.00  0.00    +0.000 C 
ATOM     14  O   UNL     1       1.030   3.315  20.277  0.00  0.00    +0.000 OA
ENDBRANCH   1  14
BRANCH   7  15
ATOM     15  O   UNL     1       7.266   5.819  15.874  0.00  0.00    +0.000 OA
ATOM     16  H   UNL     1       7.210   6.196  14.981  0.00  0.00    +0.000 HD
ENDBRANCH   7  15
BRANCH  11  17
ATOM     17  O   UNL     1       4.377   1.778  17.153  0.00  0.00    +0.000 OA
ATOM     18  H   UNL     1       5.168   2.119  16.668  0.00  0.00    +0.000 HD
ENDBRANCH  11  17
BRANCH  12  19
ATOM     19  O   UNL     1       2.415   1.166  18.755  0.00  0.00    +0.000 OA
ATOM     20  H   UNL     1       3.171   0.698  18.343  0.00  0.00    +0.000 HD
ENDBRANCH  12  19
TORSDOF 4
ENDMDL
MODEL 8
REMARK VINA RESULT:      -6.3      2.153      3.237
REMARK  Name = 
REMARK  5 active torsions:
REMARK  status: ('A' for Active; 'I' for Inactive)
REMARK    1  A    between atoms: C_1  and  O_2
REMARK    2  A    between atoms: O_2  and  C_3
REMARK    3  A    between atoms: C_9  and  O_10
REMARK    4  A    between atoms: C_14  and  O_15
REMARK    5  A    between atoms: C_16  and  O_17
REMARK                            x       y       z     vdW  Elec       q    Type
REMARK                         _______ _______ _______ _____ _____    ______ ____
ROOT
ATOM      1  C   UNL     1       4.832   5.726  16.622  0.00  0.00    +0.000 A 
ATOM      2  C   UNL     1       4.568   4.365  16.787  0.00  0.00    +0.000 A 
ATOM      3  C   UNL     1       3.657   3.902  17.748  0.00  0.00    +0.000 A 
ATOM      4  C   UNL     1       3.492   2.449  17.844  0.00  0.00    +0.000 A 
ATOM      5  C   UNL     1       2.206   2.067  17.872  0.00  0.00    +0.000 A 
ATOM      6  C   UNL     1       1.678   1.918  19.207  0.00  0.00    +0.000 A 
ATOM      7  C   UNL     1       1.565   2.982  20.023  0.00  0.00    +0.000 A 
ATOM      8  C   UNL     1       1.982   4.409  19.672  0.00  0.00    +0.000 A 
ATOM      9  O   UNL     1       1.471   5.332  20.323  0.00  0.00    +0.000 OA
ATOM     10  C   UNL     1       2.969   4.804  18.595  0.00  0.00    +0.000 A 
ATOM     11  C   UNL     1       3.242   6.176  18.408  0.00  0.00    +0.000 A 
ATOM     12  C   UNL     1       4.157   6.627  17.440  0.00  0.00    +0.000 A 
ENDROOT
BRANCH   1  14
ATOM     13  C   UNL     1       6.621   4.952  15.256  0.00  0.00    +0.000 C 
ATOM     14  O   UNL     1       5.713   5.984  15.612  0.00  0.00    +0.000 OA
ENDBRANCH   1  14
BRANCH   7  15
ATOM     15  O   UNL     1       0.952   2.828  21.262  0.00  0.00    +0.000 OA
ATOM     16  H   UNL     1       0.340   2.076  21.223  0.00  0.00    +0.000 HD
ENDBRANCH   7  15
BRANCH  11  17
ATOM     17  O   UNL     1       2.635   7.182  19.137  0.00  0.00    +0.000 OA
ATOM     18  H   UNL     1       1.664   7.130  18.963  0.00  0.00    +0.000 HD
ENDBRANCH  11  17
BRANCH  12  19
ATOM     19  O   UNL     1       4.335   7.984  17.331  0.00  0.00    +0.000 OA
ATOM     20  H   UNL     1       3.812   8.359  18.071  0.00  0.00    +0.000 HD
ENDBRANCH  12  19
TORSDOF 4
ENDMDL
MODEL 9
REMARK VINA RESULT:      -6.2      2.094      2.615
REMARK  Name = 
REMARK  5 active torsions:
REMARK  status: ('A' for Active; 'I' for Inactive)
REMARK    1  A    between atoms: C_1  and  O_2
REMARK    2  A    between atoms: O_2  and  C_3
REMARK    3  A    between atoms: C_9  and  O_10
REMARK    4  A    between atoms: C_14  and  O_15
REMARK    5  A    between atoms: C_16  and  O_17
REMARK                            x       y       z     vdW  Elec       q    Type
REMARK                         _______ _______ _______ _____ _____    ______ ____
ROOT
ATOM      1  C   UNL     1       6.159   4.288  16.199  0.00  0.00    +0.000 A 
ATOM      2  C   UNL     1       4.831   3.878  16.064  0.00  0.00    +0.000 A 
ATOM      3  C   UNL     1       3.961   3.824  17.163  0.00  0.00    +0.000 A 
ATOM      4  C   UNL     1       2.601   3.347  16.896  0.00  0.00    +0.000 A 
ATOM      5  C   UNL     1       1.656   4.129  17.438  0.00  0.00    +0.000 A 
ATOM      6  C   UNL     1       1.232   3.698  18.749  0.00  0.00    +0.000 A 
ATOM      7  C   UNL     1       2.089   3.713  19.787  0.00  0.00    +0.000 A 
ATOM      8  C   UNL     1       3.553   4.141  19.713  0.00  0.00    +0.000 A 
ATOM      9  O   UNL     1       4.102   4.488  20.768  0.00  0.00    +0.000 OA
ATOM     10  C   UNL     1       4.402   4.181  18.461  0.00  0.00    +0.000 A 
ATOM     11  C   UNL     1       5.745   4.600  18.576  0.00  0.00    +0.000 A 
ATOM     12  C   UNL     1       6.607   4.651  17.466  0.00  0.00    +0.000 A 
ENDROOT
BRANCH   1  14
ATOM     13  C   UNL     1       6.131   3.915  13.848  0.00  0.00    +0.000 C 
ATOM     14  O   UNL     1       6.836   4.316  15.014  0.00  0.00    +0.000 OA
ENDBRANCH   1  14
BRANCH   7  15
ATOM     15  O   UNL     1       1.623   3.396  21.059  0.00  0.00    +0.000 OA
ATOM     16  H   UNL     1       1.507   4.214  21.568  0.00  0.00    +0.000 HD
ENDBRANCH   7  15
BRANCH  11  17
ATOM     17  O   UNL     1       6.320   5.003  19.767  0.00  0.00    +0.000 OA
ATOM     18  H   UNL     1       6.426   4.200  20.333  0.00  0.00    +0.000 HD
ENDBRANCH  11  17
BRANCH  12  19
ATOM     19  O   UNL     1       7.888   5.090  17.688  0.00  0.00    +0.000 OA
ATOM     20  H   UNL     1       8.279   4.413  18.279  0.00  0.00    +0.000 HD
ENDBRANCH  12  19
TORSDOF 4
ENDMDL
