MODEL 1
REMARK VINA RESULT:      -6.0      0.000      0.000
REMARK  Name = 
REMARK  13 active torsions:
REMARK  status: ('A' for Active; 'I' for Inactive)
REMARK    1  A    between atoms: N_4  and  C_5
REMARK    2  A    between atoms: C_5  and  C_6
REMARK    3  A    between atoms: C_6  and  C_7
REMARK    4  A    between atoms: C_7  and  C_8
REMARK    5  A    between atoms: C_8  and  C_9
REMARK    6  A    between atoms: C_9  and  C_10
REMARK    7  A    between atoms: C_10  and  C_11
REMARK    8  A    between atoms: C_11  and  C_12
REMARK    9  A    between atoms: C_12  and  C_13
REMARK   10  A    between atoms: C_13  and  C_14
REMARK   11  A    between atoms: C_14  and  C_15
REMARK   12  A    between atoms: C_15  and  C_16
REMARK   13  A    between atoms: C_16  and  N_17
REMARK                            x       y       z     vdW  Elec       q    Type
REMARK                         _______ _______ _______ _____ _____    ______ ____
ROOT
ATOM      1  C   UNL     1       2.942   5.896  19.453  0.00  0.00    +0.000 C 
ENDROOT
BRANCH   1   2
ATOM      2  C   UNL     1       2.284   6.536  18.232  0.00  0.00    +0.000 C 
BRANCH   2   3
ATOM      3  C   UNL     1       3.003   7.796  17.760  0.00  0.00    +0.000 C 
BRANCH   3   4
ATOM      4  C   UNL     1       4.492   7.532  17.504  0.00  0.00    +0.000 C 
BRANCH   4   5
ATOM      5  C   UNL     1       4.786   6.659  16.279  0.00  0.00    +0.000 C 
BRANCH   5   6
ATOM      6  C   UNL     1       5.950   5.697  16.516  0.00  0.00    +0.000 C 
BRANCH   6  10
ATOM      7  N   UNL     1       8.042   5.921  19.489  0.00  0.00    +0.000 NA
ATOM      8  C   UNL     1       7.574   5.394  18.418  0.00  0.00    +0.000 C 
ATOM      9  N   UNL     1       7.947   4.183  17.969  0.00  0.00    +0.000 N 
ATOM     10  N   UNL     1       6.652   6.063  17.716  0.00  0.00    +0.000 N 
ATOM     11  H   UNL     1       8.703   5.272  19.924  0.00  0.00    +0.000 HD
ATOM     12  H   UNL     1       8.813   3.820  18.345  0.00  0.00    +0.000 HD
ATOM     13  H   UNL     1       7.881   4.048  16.972  0.00  0.00    +0.000 HD
ATOM     14  H   UNL     1       6.402   6.952  18.136  0.00  0.00    +0.000 HD
ENDBRANCH   6  10
ENDBRANCH   5   6
ENDBRANCH   4   5
ENDBRANCH   3   4
ENDBRANCH   2   3
ENDBRANCH   1   2
BRANCH   1  15
ATOM     15  C   UNL     1       1.915   5.570  20.541  0.00  0.00    +0.000 C 
BRANCH  15  16
ATOM     16  C   UNL     1       2.308   4.339  21.355  0.00  0.00    +0.000 C 
BRANCH  16  17
ATOM     17  C   UNL     1       1.447   3.127  21.024  0.00  0.00    +0.000 C 
BRANCH  17  18
ATOM     18  C   UNL     1       0.744   3.348  19.687  0.00  0.00    +0.000 C 
BRANCH  18  19
ATOM     19  C   UNL     1       1.029   2.222  18.698  0.00  0.00    +0.000 C 
BRANCH  19  20
ATOM     20  C   UNL     1       2.404   2.419  18.066  0.00  0.00    +0.000 C 
BRANCH  20  21
ATOM     21  N   UNL     1       3.377   1.523  18.650  0.00  0.00    +0.000 N 
ATOM     22  C   UNL     1       4.502   1.938  19.269  0.00  0.00    +0.000 C 
ATOM     23  N   UNL     1       5.007   3.117  19.257  0.00  0.00    +0.000 NA
ATOM     24  N   UNL     1       5.121   0.962  19.956  0.00  0.00    +0.000 N 
ATOM     25  H   UNL     1       3.026   0.617  18.937  0.00  0.00    +0.000 HD
ATOM     26  H   UNL     1       4.413   3.734  18.704  0.00  0.00    +0.000 HD
ATOM     27  H   UNL     1       5.066   0.036  19.562  0.00  0.00    +0.000 HD
ATOM     28  H   UNL     1       6.076   1.236  20.164  0.00  0.00    +0.000 HD
ENDBRANCH  20  21
ENDBRANCH  19  20
ENDBRANCH  18  19
ENDBRANCH  17  18
ENDBRANCH  16  17
ENDBRANCH  15  16
ENDBRANCH   1  15
TORSDOF 13
ENDMDL
MODEL 2
REMARK VINA RESULT:      -5.8      1.949      3.004
REMARK  Name = 
REMARK  13 active torsions:
REMARK  status: ('A' for Active; 'I' for Inactive)
REMARK    1  A    between atoms: N_4  and  C_5
REMARK    2  A    between atoms: C_5  and  C_6
REMARK    3  A    between atoms: C_6  and  C_7
REMARK    4  A    between atoms: C_7  and  C_8
REMARK    5  A    between atoms: C_8  and  C_9
REMARK    6  A    between atoms: C_9  and  C_10
REMARK    7  A    between atoms: C_10  and  C_11
REMARK    8  A    between atoms: C_11  and  C_12
REMARK    9  A    between atoms: C_12  and  C_13
REMARK   10  A    between atoms: C_13  and  C_14
REMARK   11  A    between atoms: C_14  and  C_15
REMARK   12  A    between atoms: C_15  and  C_16
REMARK   13  A    between atoms: C_16  and  N_17
REMARK                            x       y       z     vdW  Elec       q    Type
REMARK                         _______ _______ _______ _____ _____    ______ ____
ROOT
ATOM      1  C   UNL     1       4.211   6.054  18.756  0.00  0.00    +0.000 C 
ENDROOT
BRANCH   1   2
ATOM      2  C   UNL     1       3.799   5.568  17.368  0.00  0.00    +0.000 C 
BRANCH   2   3
ATOM      3  C   UNL     1       4.790   5.967  16.278  0.00  0.00    +0.000 C 
BRANCH   3   4
ATOM      4  C   UNL     1       5.160   4.773  15.389  0.00  0.00    +0.000 C 
BRANCH   4   5
ATOM      5  C   UNL     1       6.426   4.023  15.819  0.00  0.00    +0.000 C 
BRANCH   5   6
ATOM      6  C   UNL     1       7.538   4.970  16.270  0.00  0.00    +0.000 C 
BRANCH   6  10
ATOM      7  N   UNL     1       8.129   5.370  19.841  0.00  0.00    +0.000 NA
ATOM      8  C   UNL     1       7.899   5.749  18.638  0.00  0.00    +0.000 C 
ATOM      9  N   UNL     1       7.810   7.041  18.276  0.00  0.00    +0.000 N 
ATOM     10  N   UNL     1       7.764   4.823  17.682  0.00  0.00    +0.000 N 
ATOM     11  H   UNL     1       8.243   6.193  20.439  0.00  0.00    +0.000 HD
ATOM     12  H   UNL     1       7.647   7.699  19.026  0.00  0.00    +0.000 HD
ATOM     13  H   UNL     1       7.229   7.230  17.474  0.00  0.00    +0.000 HD
ATOM     14  H   UNL     1       7.876   3.876  18.029  0.00  0.00    +0.000 HD
ENDBRANCH   6  10
ENDBRANCH   5   6
ENDBRANCH   4   5
ENDBRANCH   3   4
ENDBRANCH   2   3
ENDBRANCH   1   2
BRANCH   1  15
ATOM     15  C   UNL     1       4.570   4.886  19.679  0.00  0.00    +0.000 C 
BRANCH  15  16
ATOM     16  C   UNL     1       4.775   3.584  18.907  0.00  0.00    +0.000 C 
BRANCH  16  17
ATOM     17  C   UNL     1       4.274   2.369  19.677  0.00  0.00    +0.000 C 
BRANCH  17  18
ATOM     18  C   UNL     1       3.497   1.451  18.738  0.00  0.00    +0.000 C 
BRANCH  18  19
ATOM     19  C   UNL     1       2.598   2.234  17.787  0.00  0.00    +0.000 C 
BRANCH  19  20
ATOM     20  C   UNL     1       1.213   2.411  18.404  0.00  0.00    +0.000 C 
BRANCH  20  21
ATOM     21  N   UNL     1       1.092   3.701  19.047  0.00  0.00    +0.000 N 
ATOM     22  C   UNL     1       1.104   3.877  20.385  0.00  0.00    +0.000 C 
ATOM     23  N   UNL     1       0.999   2.972  21.288  0.00  0.00    +0.000 NA
ATOM     24  N   UNL     1       1.239   5.163  20.750  0.00  0.00    +0.000 N 
ATOM     25  H   UNL     1       1.390   4.497  18.496  0.00  0.00    +0.000 HD
ATOM     26  H   UNL     1       0.915   2.058  20.845  0.00  0.00    +0.000 HD
ATOM     27  H   UNL     1       0.805   5.845  20.148  0.00  0.00    +0.000 HD
ATOM     28  H   UNL     1       0.968   5.278  21.722  0.00  0.00    +0.000 HD
ENDBRANCH  20  21
ENDBRANCH  19  20
ENDBRANCH  18  19
ENDBRANCH  17  18
ENDBRANCH  16  17
ENDBRANCH  15  16
ENDBRANCH   1  15
TORSDOF 13
ENDMDL
MODEL 3
REMARK VINA RESULT:      -5.8      3.311      4.426
REMARK  Name = 
REMARK  13 active torsions:
REMARK  status: ('A' for Active; 'I' for Inactive)
REMARK    1  A    between atoms: N_4  and  C_5
REMARK    2  A    between atoms: C_5  and  C_6
REMARK    3  A    between atoms: C_6  and  C_7
REMARK    4  A    between atoms: C_7  and  C_8
REMARK    5  A    between atoms: C_8  and  C_9
REMARK    6  A    between atoms: C_9  and  C_10
REMARK    7  A    between atoms: C_10  and  C_11
REMARK    8  A    between atoms: C_11  and  C_12
REMARK    9  A    between atoms: C_12  and  C_13
REMARK   10  A    between atoms: C_13  and  C_14
REMARK   11  A    between atoms: C_14  and  C_15
REMARK   12  A    between atoms: C_15  and  C_16
REMARK   13  A    between atoms: C_16  and  N_17
REMARK                            x       y       z     vdW  Elec       q    Type
REMARK                         _______ _______ _______ _____ _____    ______ ____
ROOT
ATOM      1  C   UNL     1       6.321   5.491  19.020  0.00  0.00    +0.000 C 
ENDROOT
BRANCH   1   2
ATOM      2  C   UNL     1       6.705   4.697  17.773  0.00  0.00    +0.000 C 
BRANCH   2   3
ATOM      3  C   UNL     1       7.199   5.582  16.632  0.00  0.00    +0.000 C 
BRANCH   3   4
ATOM      4  C   UNL     1       6.236   5.551  15.438  0.00  0.00    +0.000 C 
BRANCH   4   5
ATOM      5  C   UNL     1       5.806   4.148  14.998  0.00  0.00    +0.000 C 
BRANCH   5   6
ATOM      6  C   UNL     1       6.324   3.790  13.605  0.00  0.00    +0.000 C 
BRANCH   6  10
ATOM      7  N   UNL     1       3.913   3.065  10.973  0.00  0.00    +0.000 NA
ATOM      8  C   UNL     1       4.941   2.866  11.713  0.00  0.00    +0.000 C 
ATOM      9  N   UNL     1       5.764   1.812  11.564  0.00  0.00    +0.000 N 
ATOM     10  N   UNL     1       5.232   3.755  12.670  0.00  0.00    +0.000 N 
ATOM     11  H   UNL     1       3.852   2.321  10.273  0.00  0.00    +0.000 HD
ATOM     12  H   UNL     1       5.393   1.034  11.037  0.00  0.00    +0.000 HD
ATOM     13  H   UNL     1       6.242   1.512  12.399  0.00  0.00    +0.000 HD
ATOM     14  H   UNL     1       4.584   4.534  12.698  0.00  0.00    +0.000 HD
ENDBRANCH   6  10
ENDBRANCH   5   6
ENDBRANCH   4   5
ENDBRANCH   3   4
ENDBRANCH   2   3
ENDBRANCH   1   2
BRANCH   1  15
ATOM     15  C   UNL     1       4.825   5.370  19.327  0.00  0.00    +0.000 C 
BRANCH  15  16
ATOM     16  C   UNL     1       3.994   5.140  18.066  0.00  0.00    +0.000 C 
BRANCH  16  17
ATOM     17  C   UNL     1       2.543   5.565  18.244  0.00  0.00    +0.000 C 
BRANCH  17  18
ATOM     18  C   UNL     1       1.659   4.327  18.377  0.00  0.00    +0.000 C 
BRANCH  18  19
ATOM     19  C   UNL     1       1.280   4.048  19.828  0.00  0.00    +0.000 C 
BRANCH  19  20
ATOM     20  C   UNL     1       2.007   2.803  20.326  0.00  0.00    +0.000 C 
BRANCH  20  21
ATOM     21  N   UNL     1       2.567   2.052  19.223  0.00  0.00    +0.000 N 
ATOM     22  C   UNL     1       3.854   1.650  19.166  0.00  0.00    +0.000 C 
ATOM     23  N   UNL     1       4.821   2.030  19.917  0.00  0.00    +0.000 NA
ATOM     24  N   UNL     1       4.087   0.756  18.190  0.00  0.00    +0.000 N 
ATOM     25  H   UNL     1       1.908   1.497  18.689  0.00  0.00    +0.000 HD
ATOM     26  H   UNL     1       4.474   2.697  20.606  0.00  0.00    +0.000 HD
ATOM     27  H   UNL     1       3.548   0.867  17.346  0.00  0.00    +0.000 HD
ATOM     28  H   UNL     1       5.084   0.697  18.005  0.00  0.00    +0.000 HD
ENDBRANCH  20  21
ENDBRANCH  19  20
ENDBRANCH  18  19
ENDBRANCH  17  18
ENDBRANCH  16  17
ENDBRANCH  15  16
ENDBRANCH   1  15
TORSDOF 13
ENDMDL
MODEL 4
REMARK VINA RESULT:      -5.8      1.173      2.195
REMARK  Name = 
REMARK  13 active torsions:
REMARK  status: ('A' for Active; 'I' for Inactive)
REMARK    1  A    between atoms: N_4  and  C_5
REMARK    2  A    between atoms: C_5  and  C_6
REMARK    3  A    between atoms: C_6  and  C_7
REMARK    4  A    between atoms: C_7  and  C_8
REMARK    5  A    between atoms: C_8  and  C_9
REMARK    6  A    between atoms: C_9  and  C_10
REMARK    7  A    between atoms: C_10  and  C_11
REMARK    8  A    between atoms: C_11  and  C_12
REMARK    9  A    between atoms: C_12  and  C_13
REMARK   10  A    between atoms: C_13  and  C_14
REMARK   11  A    between atoms: C_14  and  C_15
REMARK   12  A    between atoms: C_15  and  C_16
REMARK   13  A    between atoms: C_16  and  N_17
REMARK                            x       y       z     vdW  Elec       q    Type
REMARK                         _______ _______ _______ _____ _____    ______ ____
ROOT
ATOM      1  C   UNL     1       3.379   7.777  17.435  0.00  0.00    +0.000 C 
ENDROOT
BRANCH   1   2
ATOM      2  C   UNL     1       4.652   6.981  17.719  0.00  0.00    +0.000 C 
BRANCH   2   3
ATOM      3  C   UNL     1       5.393   6.570  16.450  0.00  0.00    +0.000 C 
BRANCH   3   4
ATOM      4  C   UNL     1       5.103   5.111  16.077  0.00  0.00    +0.000 C 
BRANCH   4   5
ATOM      5  C   UNL     1       6.065   4.089  16.695  0.00  0.00    +0.000 C 
BRANCH   5   6
ATOM      6  C   UNL     1       7.416   4.706  17.056  0.00  0.00    +0.000 C 
BRANCH   6  10
ATOM      7  N   UNL     1       8.095   5.406  20.565  0.00  0.00    +0.000 NA
ATOM      8  C   UNL     1       7.975   5.669  19.316  0.00  0.00    +0.000 C 
ATOM      9  N   UNL     1       8.234   6.879  18.788  0.00  0.00    +0.000 N 
ATOM     10  N   UNL     1       7.595   4.693  18.482  0.00  0.00    +0.000 N 
ATOM     11  H   UNL     1       8.425   6.241  21.055  0.00  0.00    +0.000 HD
ATOM     12  H   UNL     1       8.254   7.650  19.441  0.00  0.00    +0.000 HD
ATOM     13  H   UNL     1       7.724   7.106  17.948  0.00  0.00    +0.000 HD
ATOM     14  H   UNL     1       7.450   3.805  18.951  0.00  0.00    +0.000 HD
ENDBRANCH   6  10
ENDBRANCH   5   6
ENDBRANCH   4   5
ENDBRANCH   3   4
ENDBRANCH   2   3
ENDBRANCH   1   2
BRANCH   1  15
ATOM     15  C   UNL     1       2.185   7.231  18.223  0.00  0.00    +0.000 C 
BRANCH  15  16
ATOM     16  C   UNL     1       2.621   6.332  19.380  0.00  0.00    +0.000 C 
BRANCH  16  17
ATOM     17  C   UNL     1       1.760   5.081  19.495  0.00  0.00    +0.000 C 
BRANCH  17  18
ATOM     18  C   UNL     1       1.398   4.577  18.101  0.00  0.00    +0.000 C 
BRANCH  18  19
ATOM     19  C   UNL     1       1.884   3.150  17.864  0.00  0.00    +0.000 C 
BRANCH  19  20
ATOM     20  C   UNL     1       1.646   2.304  19.111  0.00  0.00    +0.000 C 
BRANCH  20  21
ATOM     21  N   UNL     1       2.880   2.088  19.835  0.00  0.00    +0.000 N 
ATOM     22  C   UNL     1       4.025   1.672  19.256  0.00  0.00    +0.000 C 
ATOM     23  N   UNL     1       4.171   1.197  18.074  0.00  0.00    +0.000 NA
ATOM     24  N   UNL     1       5.097   1.788  20.058  0.00  0.00    +0.000 N 
ATOM     25  H   UNL     1       2.986   2.618  20.691  0.00  0.00    +0.000 HD
ATOM     26  H   UNL     1       3.269   1.186  17.598  0.00  0.00    +0.000 HD
ATOM     27  H   UNL     1       4.936   1.636  21.041  0.00  0.00    +0.000 HD
ATOM     28  H   UNL     1       5.861   1.222  19.701  0.00  0.00    +0.000 HD
ENDBRANCH  20  21
ENDBRANCH  19  20
ENDBRANCH  18  19
ENDBRANCH  17  18
ENDBRANCH  16  17
ENDBRANCH  15  16
ENDBRANCH   1  15
TORSDOF 13
ENDMDL
MODEL 5
REMARK VINA RESULT:      -5.8      3.296      5.149
REMARK  Name = 
REMARK  13 active torsions:
REMARK  status: ('A' for Active; 'I' for Inactive)
REMARK    1  A    between atoms: N_4  and  C_5
REMARK    2  A    between atoms: C_5  and  C_6
REMARK    3  A    between atoms: C_6  and  C_7
REMARK    4  A    between atoms: C_7  and  C_8
REMARK    5  A    between atoms: C_8  and  C_9
REMARK    6  A    between atoms: C_9  and  C_10
REMARK    7  A    between atoms: C_10  and  C_11
REMARK    8  A    between atoms: C_11  and  C_12
REMARK    9  A    between atoms: C_12  and  C_13
REMARK   10  A    between atoms: C_13  and  C_14
REMARK   11  A    between atoms: C_14  and  C_15
REMARK   12  A    between atoms: C_15  and  C_16
REMARK   13  A    between atoms: C_16  and  N_17
REMARK                            x       y       z     vdW  Elec       q    Type
REMARK                         _______ _______ _______ _____ _____    ______ ____
ROOT
ATOM      1  C   UNL     1       1.188   4.376  20.436  0.00  0.00    +0.000 C 
ENDROOT
BRANCH   1   2
ATOM      2  C   UNL     1       2.417   5.280  20.374  0.00  0.00    +0.000 C 
BRANCH   2   3
ATOM      3  C   UNL     1       2.115   6.660  19.796  0.00  0.00    +0.000 C 
BRANCH   3   4
ATOM      4  C   UNL     1       2.662   6.806  18.371  0.00  0.00    +0.000 C 
BRANCH   4   5
ATOM      5  C   UNL     1       2.809   8.253  17.887  0.00  0.00    +0.000 C 
BRANCH   5   6
ATOM      6  C   UNL     1       1.526   9.061  18.071  0.00  0.00    +0.000 C 
BRANCH   6  10
ATOM      7  N   UNL     1       1.863  12.686  17.967  0.00  0.00    +0.000 NA
ATOM      8  C   UNL     1       1.609  11.544  18.491  0.00  0.00    +0.000 C 
ATOM      9  N   UNL     1       1.168  11.393  19.753  0.00  0.00    +0.000 N 
ATOM     10  N   UNL     1       1.765  10.442  17.749  0.00  0.00    +0.000 N 
ATOM     11  H   UNL     1       1.659  13.423  18.649  0.00  0.00    +0.000 HD
ATOM     12  H   UNL     1       1.311  12.182  20.368  0.00  0.00    +0.000 HD
ATOM     13  H   UNL     1       1.406  10.519  20.196  0.00  0.00    +0.000 HD
ATOM     14  H   UNL     1       2.070  10.641  16.802  0.00  0.00    +0.000 HD
ENDBRANCH   6  10
ENDBRANCH   5   6
ENDBRANCH   4   5
ENDBRANCH   3   4
ENDBRANCH   2   3
ENDBRANCH   1   2
BRANCH   1  15
ATOM     15  C   UNL     1       1.562   2.941  20.814  0.00  0.00    +0.000 C 
BRANCH  15  16
ATOM     16  C   UNL     1       1.853   2.078  19.587  0.00  0.00    +0.000 C 
BRANCH  16  17
ATOM     17  C   UNL     1       3.335   2.051  19.238  0.00  0.00    +0.000 C 
BRANCH  17  18
ATOM     18  C   UNL     1       3.511   2.247  17.734  0.00  0.00    +0.000 C 
BRANCH  18  19
ATOM     19  C   UNL     1       4.006   3.650  17.394  0.00  0.00    +0.000 C 
BRANCH  19  20
ATOM     20  C   UNL     1       5.206   4.005  18.268  0.00  0.00    +0.000 C 
BRANCH  20  21
ATOM     21  N   UNL     1       5.875   5.189  17.773  0.00  0.00    +0.000 N 
ATOM     22  C   UNL     1       7.095   5.175  17.198  0.00  0.00    +0.000 C 
ATOM     23  N   UNL     1       7.940   4.209  17.188  0.00  0.00    +0.000 NA
ATOM     24  N   UNL     1       7.407   6.330  16.586  0.00  0.00    +0.000 N 
ATOM     25  H   UNL     1       5.271   5.957  17.506  0.00  0.00    +0.000 HD
ATOM     26  H   UNL     1       7.546   3.410  17.684  0.00  0.00    +0.000 HD
ATOM     27  H   UNL     1       7.053   7.171  17.014  0.00  0.00    +0.000 HD
ATOM     28  H   UNL     1       8.407   6.375  16.417  0.00  0.00    +0.000 HD
ENDBRANCH  20  21
ENDBRANCH  19  20
ENDBRANCH  18  19
ENDBRANCH  17  18
ENDBRANCH  16  17
ENDBRANCH  15  16
ENDBRANCH   1  15
TORSDOF 13
ENDMDL
MODEL 6
REMARK VINA RESULT:      -5.7      2.932      4.395
REMARK  Name = 
REMARK  13 active torsions:
REMARK  status: ('A' for Active; 'I' for Inactive)
REMARK    1  A    between atoms: N_4  and  C_5
REMARK    2  A    between atoms: C_5  and  C_6
REMARK    3  A    between atoms: C_6  and  C_7
REMARK    4  A    between atoms: C_7  and  C_8
REMARK    5  A    between atoms: C_8  and  C_9
REMARK    6  A    between atoms: C_9  and  C_10
REMARK    7  A    between atoms: C_10  and  C_11
REMARK    8  A    between atoms: C_11  and  C_12
REMARK    9  A    between atoms: C_12  and  C_13
REMARK   10  A    between atoms: C_13  and  C_14
REMARK   11  A    between atoms: C_14  and  C_15
REMARK   12  A    between atoms: C_15  and  C_16
REMARK   13  A    between atoms: C_16  and  N_17
REMARK                            x       y       z     vdW  Elec       q    Type
REMARK                         _______ _______ _______ _____ _____    ______ ____
ROOT
ATOM      1  C   UNL     1       3.342   2.639  17.986  0.00  0.00    +0.000 C 
ENDROOT
BRANCH   1   2
ATOM      2  C   UNL     1       2.987   4.013  17.422  0.00  0.00    +0.000 C 
BRANCH   2   3
ATOM      3  C   UNL     1       4.214   4.848  17.070  0.00  0.00    +0.000 C 
BRANCH   3   4
ATOM      4  C   UNL     1       5.029   4.203  15.942  0.00  0.00    +0.000 C 
BRANCH   4   5
ATOM      5  C   UNL     1       6.549   4.273  16.130  0.00  0.00    +0.000 C 
BRANCH   5   6
ATOM      6  C   UNL     1       6.985   5.529  16.885  0.00  0.00    +0.000 C 
BRANCH   6  10
ATOM      7  N   UNL     1       8.068   5.387  20.359  0.00  0.00    +0.000 NA
ATOM      8  C   UNL     1       7.900   5.910  19.201  0.00  0.00    +0.000 C 
ATOM      9  N   UNL     1       8.344   7.137  18.874  0.00  0.00    +0.000 N 
ATOM     10  N   UNL     1       7.274   5.201  18.255  0.00  0.00    +0.000 N 
ATOM     11  H   UNL     1       8.593   6.038  20.950  0.00  0.00    +0.000 HD
ATOM     12  H   UNL     1       8.566   7.747  19.649  0.00  0.00    +0.000 HD
ATOM     13  H   UNL     1       7.822   7.612  18.154  0.00  0.00    +0.000 HD
ATOM     14  H   UNL     1       6.998   4.277  18.569  0.00  0.00    +0.000 HD
ENDBRANCH   6  10
ENDBRANCH   5   6
ENDBRANCH   4   5
ENDBRANCH   3   4
ENDBRANCH   2   3
ENDBRANCH   1   2
BRANCH   1  15
ATOM     15  C   UNL     1       2.097   1.884  18.459  0.00  0.00    +0.000 C 
BRANCH  15  16
ATOM     16  C   UNL     1       1.081   2.809  19.128  0.00  0.00    +0.000 C 
BRANCH  16  17
ATOM     17  C   UNL     1       1.278   2.888  20.636  0.00  0.00    +0.000 C 
BRANCH  17  18
ATOM     18  C   UNL     1       1.961   4.205  20.996  0.00  0.00    +0.000 C 
BRANCH  18  19
ATOM     19  C   UNL     1       1.220   5.409  20.422  0.00  0.00    +0.000 C 
BRANCH  19  20
ATOM     20  C   UNL     1       2.195   6.557  20.185  0.00  0.00    +0.000 C 
BRANCH  20  21
ATOM     21  N   UNL     1       1.880   7.689  21.029  0.00  0.00    +0.000 N 
ATOM     22  C   UNL     1       1.329   8.834  20.573  0.00  0.00    +0.000 C 
ATOM     23  N   UNL     1       1.203   9.203  19.351  0.00  0.00    +0.000 NA
ATOM     24  N   UNL     1       0.887   9.638  21.555  0.00  0.00    +0.000 N 
ATOM     25  H   UNL     1       1.709   7.477  22.005  0.00  0.00    +0.000 HD
ATOM     26  H   UNL     1       1.577   8.480  18.738  0.00  0.00    +0.000 HD
ATOM     27  H   UNL     1       1.420   9.632  22.410  0.00  0.00    +0.000 HD
ATOM     28  H   UNL     1       0.744  10.577  21.197  0.00  0.00    +0.000 HD
ENDBRANCH  20  21
ENDBRANCH  19  20
ENDBRANCH  18  19
ENDBRANCH  17  18
ENDBRANCH  16  17
ENDBRANCH  15  16
ENDBRANCH   1  15
TORSDOF 13
ENDMDL
MODEL 7
REMARK VINA RESULT:      -5.7      3.367      4.332
REMARK  Name = 
REMARK  13 active torsions:
REMARK  status: ('A' for Active; 'I' for Inactive)
REMARK    1  A    between atoms: N_4  and  C_5
REMARK    2  A    between atoms: C_5  and  C_6
REMARK    3  A    between atoms: C_6  and  C_7
REMARK    4  A    between atoms: C_7  and  C_8
REMARK    5  A    between atoms: C_8  and  C_9
REMARK    6  A    between atoms: C_9  and  C_10
REMARK    7  A    between atoms: C_10  and  C_11
REMARK    8  A    between atoms: C_11  and  C_12
REMARK    9  A    between atoms: C_12  and  C_13
REMARK   10  A    between atoms: C_13  and  C_14
REMARK   11  A    between atoms: C_14  and  C_15
REMARK   12  A    between atoms: C_15  and  C_16
REMARK   13  A    between atoms: C_16  and  N_17
REMARK                            x       y       z     vdW  Elec       q    Type
REMARK                         _______ _______ _______ _____ _____    ______ ____
ROOT
ATOM      1  C   UNL     1       5.551   5.234  19.292  0.00  0.00    +0.000 C 
ENDROOT
BRANCH   1   2
ATOM      2  C   UNL     1       6.075   4.663  17.976  0.00  0.00    +0.000 C 
BRANCH   2   3
ATOM      3  C   UNL     1       5.571   5.424  16.753  0.00  0.00    +0.000 C 
BRANCH   3   4
ATOM      4  C   UNL     1       6.487   5.213  15.541  0.00  0.00    +0.000 C 
BRANCH   4   5
ATOM      5  C   UNL     1       6.232   3.917  14.763  0.00  0.00    +0.000 C 
BRANCH   5   6
ATOM      6  C   UNL     1       6.282   4.127  13.250  0.00  0.00    +0.000 C 
BRANCH   6  10
ATOM      7  N   UNL     1       6.011   1.092  11.255  0.00  0.00    +0.000 NA
ATOM      8  C   UNL     1       5.665   2.247  11.691  0.00  0.00    +0.000 C 
ATOM      9  N   UNL     1       4.535   2.870  11.312  0.00  0.00    +0.000 N 
ATOM     10  N   UNL     1       6.447   2.863  12.585  0.00  0.00    +0.000 N 
ATOM     11  H   UNL     1       5.293   0.744  10.613  0.00  0.00    +0.000 HD
ATOM     12  H   UNL     1       4.107   2.529  10.462  0.00  0.00    +0.000 HD
ATOM     13  H   UNL     1       4.560   3.877  11.346  0.00  0.00    +0.000 HD
ATOM     14  H   UNL     1       7.262   2.316  12.843  0.00  0.00    +0.000 HD
ENDBRANCH   6  10
ENDBRANCH   5   6
ENDBRANCH   4   5
ENDBRANCH   3   4
ENDBRANCH   2   3
ENDBRANCH   1   2
BRANCH   1  15
ATOM     15  C   UNL     1       4.063   5.583  19.202  0.00  0.00    +0.000 C 
BRANCH  15  16
ATOM     16  C   UNL     1       3.249   4.935  20.321  0.00  0.00    +0.000 C 
BRANCH  16  17
ATOM     17  C   UNL     1       1.853   5.531  20.440  0.00  0.00    +0.000 C 
BRANCH  17  18
ATOM     18  C   UNL     1       0.817   4.411  20.461  0.00  0.00    +0.000 C 
BRANCH  18  19
ATOM     19  C   UNL     1       1.457   3.045  20.690  0.00  0.00    +0.000 C 
BRANCH  19  20
ATOM     20  C   UNL     1       1.151   2.122  19.514  0.00  0.00    +0.000 C 
BRANCH  20  21
ATOM     21  N   UNL     1       2.370   1.656  18.889  0.00  0.00    +0.000 N 
ATOM     22  C   UNL     1       2.932   2.243  17.811  0.00  0.00    +0.000 C 
ATOM     23  N   UNL     1       2.406   3.127  17.044  0.00  0.00    +0.000 NA
ATOM     24  N   UNL     1       4.179   1.811  17.562  0.00  0.00    +0.000 N 
ATOM     25  H   UNL     1       3.002   1.139  19.488  0.00  0.00    +0.000 HD
ATOM     26  H   UNL     1       1.468   3.350  17.377  0.00  0.00    +0.000 HD
ATOM     27  H   UNL     1       4.366   0.843  17.772  0.00  0.00    +0.000 HD
ATOM     28  H   UNL     1       4.450   2.057  16.614  0.00  0.00    +0.000 HD
ENDBRANCH  20  21
ENDBRANCH  19  20
ENDBRANCH  18  19
ENDBRANCH  17  18
ENDBRANCH  16  17
ENDBRANCH  15  16
ENDBRANCH   1  15
TORSDOF 13
ENDMDL
MODEL 8
REMARK VINA RESULT:      -5.7      3.546      5.497
REMARK  Name = 
REMARK  13 active torsions:
REMARK  status: ('A' for Active; 'I' for Inactive)
REMARK    1  A    between atoms: N_4  and  C_5
REMARK    2  A    between atoms: C_5  and  C_6
REMARK    3  A    between atoms: C_6  and  C_7
REMARK    4  A    between atoms: C_7  and  C_8
REMARK    5  A    between atoms: C_8  and  C_9
REMARK    6  A    between atoms: C_9  and  C_10
REMARK    7  A    between atoms: C_10  and  C_11
REMARK    8  A    between atoms: C_11  and  C_12
REMARK    9  A    between atoms: C_12  and  C_13
REMARK   10  A    between atoms: C_13  and  C_14
REMARK   11  A    between atoms: C_14  and  C_15
REMARK   12  A    between atoms: C_15  and  C_16
REMARK   13  A    between atoms: C_16  and  N_17
REMARK                            x       y       z     vdW  Elec       q    Type
REMARK                         _______ _______ _______ _____ _____    ______ ____
ROOT
ATOM      1  C   UNL     1       1.914   3.811  20.813  0.00  0.00    +0.000 C 
ENDROOT
BRANCH   1   2
ATOM      2  C   UNL     1       1.790   5.333  20.813  0.00  0.00    +0.000 C 
BRANCH   2   3
ATOM      3  C   UNL     1       2.704   6.005  19.793  0.00  0.00    +0.000 C 
BRANCH   3   4
ATOM      4  C   UNL     1       2.255   7.441  19.494  0.00  0.00    +0.000 C 
BRANCH   4   5
ATOM      5  C   UNL     1       2.550   7.921  18.068  0.00  0.00    +0.000 C 
BRANCH   5   6
ATOM      6  C   UNL     1       1.994   9.318  17.797  0.00  0.00    +0.000 C 
BRANCH   6  10
ATOM      7  N   UNL     1      -0.776  10.471  19.862  0.00  0.00    +0.000 NA
ATOM      8  C   UNL     1      -0.164  10.174  18.775  0.00  0.00    +0.000 C 
ATOM      9  N   UNL     1      -0.705  10.342  17.555  0.00  0.00    +0.000 N 
ATOM     10  N   UNL     1       1.083   9.695  18.843  0.00  0.00    +0.000 N 
ATOM     11  H   UNL     1      -1.697  10.856  19.636  0.00  0.00    +0.000 HD
ATOM     12  H   UNL     1      -1.711  10.443  17.528  0.00  0.00    +0.000 HD
ATOM     13  H   UNL     1      -0.368   9.717  16.839  0.00  0.00    +0.000 HD
ATOM     14  H   UNL     1       1.430   9.628  19.795  0.00  0.00    +0.000 HD
ENDBRANCH   6  10
ENDBRANCH   5   6
ENDBRANCH   4   5
ENDBRANCH   3   4
ENDBRANCH   2   3
ENDBRANCH   1   2
BRANCH   1  15
ATOM     15  C   UNL     1       0.841   3.158  19.937  0.00  0.00    +0.000 C 
BRANCH  15  16
ATOM     16  C   UNL     1       1.266   3.073  18.472  0.00  0.00    +0.000 C 
BRANCH  16  17
ATOM     17  C   UNL     1       2.352   2.028  18.245  0.00  0.00    +0.000 C 
BRANCH  17  18
ATOM     18  C   UNL     1       3.704   2.720  18.091  0.00  0.00    +0.000 C 
BRANCH  18  19
ATOM     19  C   UNL     1       3.685   3.774  16.989  0.00  0.00    +0.000 C 
BRANCH  19  20
ATOM     20  C   UNL     1       4.894   4.694  17.127  0.00  0.00    +0.000 C 
BRANCH  20  21
ATOM     21  N   UNL     1       5.615   4.794  15.876  0.00  0.00    +0.000 N 
ATOM     22  C   UNL     1       6.794   5.438  15.740  0.00  0.00    +0.000 C 
ATOM     23  N   UNL     1       7.350   6.229  16.582  0.00  0.00    +0.000 NA
ATOM     24  N   UNL     1       7.403   5.185  14.569  0.00  0.00    +0.000 N 
ATOM     25  H   UNL     1       5.435   4.058  15.204  0.00  0.00    +0.000 HD
ATOM     26  H   UNL     1       6.766   6.303  17.415  0.00  0.00    +0.000 HD
ATOM     27  H   UNL     1       6.800   5.048  13.773  0.00  0.00    +0.000 HD
ATOM     28  H   UNL     1       8.120   5.883  14.393  0.00  0.00    +0.000 HD
ENDBRANCH  20  21
ENDBRANCH  19  20
ENDBRANCH  18  19
ENDBRANCH  17  18
ENDBRANCH  16  17
ENDBRANCH  15  16
ENDBRANCH   1  15
TORSDOF 13
ENDMDL
MODEL 9
REMARK VINA RESULT:      -5.7      4.775      8.894
REMARK  Name = 
REMARK  13 active torsions:
REMARK  status: ('A' for Active; 'I' for Inactive)
REMARK    1  A    between atoms: N_4  and  C_5
REMARK    2  A    between atoms: C_5  and  C_6
REMARK    3  A    between atoms: C_6  and  C_7
REMARK    4  A    between atoms: C_7  and  C_8
REMARK    5  A    between atoms: C_8  and  C_9
REMARK    6  A    between atoms: C_9  and  C_10
REMARK    7  A    between atoms: C_10  and  C_11
REMARK    8  A    between atoms: C_11  and  C_12
REMARK    9  A    between atoms: C_12  and  C_13
REMARK   10  A    between atoms: C_13  and  C_14
REMARK   11  A    between atoms: C_14  and  C_15
REMARK   12  A    between atoms: C_15  and  C_16
REMARK   13  A    between atoms: C_16  and  N_17
REMARK                            x       y       z     vdW  Elec       q    Type
REMARK                         _______ _______ _______ _____ _____    ______ ____
ROOT
ATOM      1  C   UNL     1       6.241   5.576  18.448  0.00  0.00    +0.000 C 
ENDROOT
BRANCH   1   2
ATOM      2  C   UNL     1       5.265   6.075  17.385  0.00  0.00    +0.000 C 
BRANCH   2   3
ATOM      3  C   UNL     1       4.622   4.944  16.588  0.00  0.00    +0.000 C 
BRANCH   3   4
ATOM      4  C   UNL     1       4.161   3.803  17.503  0.00  0.00    +0.000 C 
BRANCH   4   5
ATOM      5  C   UNL     1       2.640   3.676  17.651  0.00  0.00    +0.000 C 
BRANCH   5   6
ATOM      6  C   UNL     1       2.229   2.371  18.333  0.00  0.00    +0.000 C 
BRANCH   6  10
ATOM      7  N   UNL     1       2.534   2.681  21.949  0.00  0.00    +0.000 NA
ATOM      8  C   UNL     1       1.941   2.711  20.813  0.00  0.00    +0.000 C 
ATOM      9  N   UNL     1       0.655   3.073  20.661  0.00  0.00    +0.000 N 
ATOM     10  N   UNL     1       2.633   2.390  19.712  0.00  0.00    +0.000 N 
ATOM     11  H   UNL     1       1.884   2.987  22.677  0.00  0.00    +0.000 HD
ATOM     12  H   UNL     1       0.089   3.049  21.498  0.00  0.00    +0.000 HD
ATOM     13  H   UNL     1       0.179   2.668  19.870  0.00  0.00    +0.000 HD
ATOM     14  H   UNL     1       3.601   2.160  19.906  0.00  0.00    +0.000 HD
ENDBRANCH   6  10
ENDBRANCH   5   6
ENDBRANCH   4   5
ENDBRANCH   3   4
ENDBRANCH   2   3
ENDBRANCH   1   2
BRANCH   1  15
ATOM     15  C   UNL     1       7.659   6.101  18.204  0.00  0.00    +0.000 C 
BRANCH  15  16
ATOM     16  C   UNL     1       7.658   7.517  17.629  0.00  0.00    +0.000 C 
BRANCH  16  17
ATOM     17  C   UNL     1       8.448   8.492  18.493  0.00  0.00    +0.000 C 
BRANCH  17  18
ATOM     18  C   UNL     1       8.415   9.880  17.860  0.00  0.00    +0.000 C 
BRANCH  18  19
ATOM     19  C   UNL     1       9.484  10.800  18.442  0.00  0.00    +0.000 C 
BRANCH  19  20
ATOM     20  C   UNL     1       9.011  12.249  18.389  0.00  0.00    +0.000 C 
BRANCH  20  21
ATOM     21  N   UNL     1       9.597  12.946  17.265  0.00  0.00    +0.000 N 
ATOM     22  C   UNL     1      10.678  13.748  17.360  0.00  0.00    +0.000 C 
ATOM     23  N   UNL     1      11.218  14.200  18.432  0.00  0.00    +0.000 NA
ATOM     24  N   UNL     1      11.200  14.078  16.167  0.00  0.00    +0.000 N 
ATOM     25  H   UNL     1       9.438  12.527  16.356  0.00  0.00    +0.000 HD
ATOM     26  H   UNL     1      10.710  13.849  19.243  0.00  0.00    +0.000 HD
ATOM     27  H   UNL     1      10.545  14.191  15.410  0.00  0.00    +0.000 HD
ATOM     28  H   UNL     1      11.815  14.880  16.268  0.00  0.00    +0.000 HD
ENDBRANCH  20  21
ENDBRANCH  19  20
ENDBRANCH  18  19
ENDBRANCH  17  18
ENDBRANCH  16  17
ENDBRANCH  15  16
ENDBRANCH   1  15
TORSDOF 13
ENDMDL
