MODEL 1
REMARK VINA RESULT:      -7.4      0.000      0.000
REMARK  Name = 
REMARK  8 active torsions:
REMARK  status: ('A' for Active; 'I' for Inactive)
REMARK    1  A    between atoms: C_1  and  O_2
REMARK    2  A    between atoms: O_2  and  C_3
REMARK    3  A    between atoms: C_8  and  O_9
REMARK    4  A    between atoms: O_9  and  C_10
REMARK    5  A    between atoms: C_13  and  C_14
REMARK    6  A    between atoms: C_14  and  C_15
REMARK    7  A    between atoms: C_19  and  C_20
REMARK    8  A    between atoms: C_20  and  N_21
REMARK                            x       y       z     vdW  Elec       q    Type
REMARK                         _______ _______ _______ _____ _____    ______ ____
ROOT
ATOM      1  C   UNL     1       0.428  11.939  21.217  0.00  0.00    +0.000 A 
ATOM      2  C   UNL     1       0.409  10.555  21.444  0.00  0.00    +0.000 A 
ATOM      3  C   UNL     1       0.857   9.719  20.445  0.00  0.00    +0.000 A 
ATOM      4  C   UNL     1       1.271  10.232  19.239  0.00  0.00    +0.000 A 
ATOM      5  C   UNL     1       1.317  11.588  18.965  0.00  0.00    +0.000 A 
ATOM      6  C   UNL     1       0.902  12.460  19.979  0.00  0.00    +0.000 A 
ATOM      7  C   UNL     1       1.605   9.086  18.432  0.00  0.00    +0.000 C 
ATOM      8  O   UNL     1       1.972   9.143  17.272  0.00  0.00    +0.000 OA
ATOM      9  C   UNL     1       1.428   7.852  19.300  0.00  0.00    +0.000 C 
ATOM     10  O   UNL     1       0.926   8.358  20.569  0.00  0.00    +0.000 OA
ENDROOT
BRANCH   1  12
ATOM     11  C   UNL     1      -1.181  12.519  22.874  0.00  0.00    +0.000 C 
ATOM     12  O   UNL     1      -0.016  12.863  22.134  0.00  0.00    +0.000 OA
ENDBRANCH   1  12
BRANCH   6  13
ATOM     13  O   UNL     1       0.910  13.832  19.877  0.00  0.00    +0.000 OA
ATOM     14  C   UNL     1       0.065  14.427  18.902  0.00  0.00    +0.000 C 
ENDBRANCH   6  13
BRANCH   9  15
ATOM     15  C   UNL     1       2.779   7.144  19.466  0.00  0.00    +0.000 C 
BRANCH  15  16
ATOM     16  C   UNL     1       3.174   6.067  18.476  0.00  0.00    +0.000 A 
ATOM     17  C   UNL     1       2.632   4.780  18.452  0.00  0.00    +0.000 A 
ATOM     18  C   UNL     1       3.120   3.820  17.559  0.00  0.00    +0.000 A 
ATOM     19  C   UNL     1       4.166   4.129  16.690  0.00  0.00    +0.000 A 
ATOM     20  C   UNL     1       4.724   5.412  16.680  0.00  0.00    +0.000 A 
ATOM     21  C   UNL     1       4.181   6.380  17.542  0.00  0.00    +0.000 A 
BRANCH  20  22
ATOM     22  C   UNL     1       5.903   5.738  15.784  0.00  0.00    +0.000 C 
BRANCH  22  23
ATOM     23  N   UNL     1       7.225   5.835  16.418  0.00  0.00    +0.000 NA
ATOM     24  C   UNL     1       7.577   4.747  17.328  0.00  0.00    +0.000 C 
ATOM     25  C   UNL     1       7.476   5.333  18.722  0.00  0.00    +0.000 C 
ATOM     26  C   UNL     1       7.899   6.775  18.527  0.00  0.00    +0.000 C 
ATOM     27  C   UNL     1       7.513   7.104  17.090  0.00  0.00    +0.000 C 
ENDBRANCH  22  23
ENDBRANCH  20  22
ENDBRANCH  15  16
ENDBRANCH   9  15
TORSDOF 6
ENDMDL
MODEL 2
REMARK VINA RESULT:      -7.3      1.227      2.608
REMARK  Name = 
REMARK  8 active torsions:
REMARK  status: ('A' for Active; 'I' for Inactive)
REMARK    1  A    between atoms: C_1  and  O_2
REMARK    2  A    between atoms: O_2  and  C_3
REMARK    3  A    between atoms: C_8  and  O_9
REMARK    4  A    between atoms: O_9  and  C_10
REMARK    5  A    between atoms: C_13  and  C_14
REMARK    6  A    between atoms: C_14  and  C_15
REMARK    7  A    between atoms: C_19  and  C_20
REMARK    8  A    between atoms: C_20  and  N_21
REMARK                            x       y       z     vdW  Elec       q    Type
REMARK                         _______ _______ _______ _____ _____    ______ ____
ROOT
ATOM      1  C   UNL     1      -0.177  11.831  19.710  0.00  0.00    +0.000 A 
ATOM      2  C   UNL     1       0.632  11.235  18.731  0.00  0.00    +0.000 A 
ATOM      3  C   UNL     1       1.145   9.981  18.977  0.00  0.00    +0.000 A 
ATOM      4  C   UNL     1       0.904   9.350  20.173  0.00  0.00    +0.000 A 
ATOM      5  C   UNL     1       0.108   9.888  21.169  0.00  0.00    +0.000 A 
ATOM      6  C   UNL     1      -0.456  11.146  20.928  0.00  0.00    +0.000 A 
ATOM      7  C   UNL     1       1.634   8.109  20.104  0.00  0.00    +0.000 C 
ATOM      8  O   UNL     1       1.697   7.295  21.007  0.00  0.00    +0.000 OA
ATOM      9  C   UNL     1       2.262   8.029  18.723  0.00  0.00    +0.000 C 
ATOM     10  O   UNL     1       1.909   9.285  18.079  0.00  0.00    +0.000 OA
ENDROOT
BRANCH   1  12
ATOM     11  C   UNL     1       0.089  14.075  18.960  0.00  0.00    +0.000 C 
ATOM     12  O   UNL     1      -0.724  13.086  19.580  0.00  0.00    +0.000 OA
ENDBRANCH   1  12
BRANCH   6  13
ATOM     13  O   UNL     1      -1.290  11.806  21.801  0.00  0.00    +0.000 OA
ATOM     14  C   UNL     1      -1.426  11.276  23.112  0.00  0.00    +0.000 C 
ENDBRANCH   6  13
BRANCH   9  15
ATOM     15  C   UNL     1       1.687   6.823  17.968  0.00  0.00    +0.000 C 
BRANCH  15  16
ATOM     16  C   UNL     1       2.452   5.514  17.977  0.00  0.00    +0.000 A 
ATOM     17  C   UNL     1       1.913   4.284  17.593  0.00  0.00    +0.000 A 
ATOM     18  C   UNL     1       2.665   3.111  17.718  0.00  0.00    +0.000 A 
ATOM     19  C   UNL     1       3.957   3.150  18.242  0.00  0.00    +0.000 A 
ATOM     20  C   UNL     1       4.530   4.367  18.625  0.00  0.00    +0.000 A 
ATOM     21  C   UNL     1       3.782   5.542  18.436  0.00  0.00    +0.000 A 
BRANCH  20  22
ATOM     22  C   UNL     1       5.909   4.411  19.254  0.00  0.00    +0.000 C 
BRANCH  22  23
ATOM     23  N   UNL     1       7.036   4.762  18.380  0.00  0.00    +0.000 NA
ATOM     24  C   UNL     1       7.646   6.069  18.621  0.00  0.00    +0.000 C 
ATOM     25  C   UNL     1       7.197   6.946  17.470  0.00  0.00    +0.000 C 
ATOM     26  C   UNL     1       7.107   5.979  16.307  0.00  0.00    +0.000 C 
ATOM     27  C   UNL     1       6.789   4.632  16.943  0.00  0.00    +0.000 C 
ENDBRANCH  22  23
ENDBRANCH  20  22
ENDBRANCH  15  16
ENDBRANCH   9  15
TORSDOF 6
ENDMDL
MODEL 3
REMARK VINA RESULT:      -7.3      2.590      3.196
REMARK  Name = 
REMARK  8 active torsions:
REMARK  status: ('A' for Active; 'I' for Inactive)
REMARK    1  A    between atoms: C_1  and  O_2
REMARK    2  A    between atoms: O_2  and  C_3
REMARK    3  A    between atoms: C_8  and  O_9
REMARK    4  A    between atoms: O_9  and  C_10
REMARK    5  A    between atoms: C_13  and  C_14
REMARK    6  A    between atoms: C_14  and  C_15
REMARK    7  A    between atoms: C_19  and  C_20
REMARK    8  A    between atoms: C_20  and  N_21
REMARK                            x       y       z     vdW  Elec       q    Type
REMARK                         _______ _______ _______ _____ _____    ______ ____
ROOT
ATOM      1  C   UNL     1      -2.506  10.615  17.464  0.00  0.00    +0.000 A 
ATOM      2  C   UNL     1      -1.371   9.901  17.050  0.00  0.00    +0.000 A 
ATOM      3  C   UNL     1      -0.297   9.822  17.908  0.00  0.00    +0.000 A 
ATOM      4  C   UNL     1      -0.323  10.464  19.122  0.00  0.00    +0.000 A 
ATOM      5  C   UNL     1      -1.418  11.173  19.583  0.00  0.00    +0.000 A 
ATOM      6  C   UNL     1      -2.538  11.238  18.744  0.00  0.00    +0.000 A 
ATOM      7  C   UNL     1       0.968  10.217  19.712  0.00  0.00    +0.000 C 
ATOM      8  O   UNL     1       1.335  10.670  20.781  0.00  0.00    +0.000 OA
ATOM      9  C   UNL     1       1.730   9.301  18.770  0.00  0.00    +0.000 C 
ATOM     10  O   UNL     1       0.844   9.118  17.630  0.00  0.00    +0.000 OA
ENDROOT
BRANCH   1  12
ATOM     11  C   UNL     1      -3.426  10.772  15.273  0.00  0.00    +0.000 C 
ATOM     12  O   UNL     1      -3.626  10.776  16.681  0.00  0.00    +0.000 OA
ENDBRANCH   1  12
BRANCH   6  13
ATOM     13  O   UNL     1      -3.713  11.879  19.062  0.00  0.00    +0.000 OA
ATOM     14  C   UNL     1      -3.663  12.897  20.053  0.00  0.00    +0.000 C 
ENDBRANCH   6  13
BRANCH   9  15
ATOM     15  C   UNL     1       2.027   7.972  19.477  0.00  0.00    +0.000 C 
BRANCH  15  16
ATOM     16  C   UNL     1       2.621   6.828  18.679  0.00  0.00    +0.000 A 
ATOM     17  C   UNL     1       2.305   5.482  18.873  0.00  0.00    +0.000 A 
ATOM     18  C   UNL     1       2.969   4.485  18.151  0.00  0.00    +0.000 A 
ATOM     19  C   UNL     1       3.967   4.820  17.236  0.00  0.00    +0.000 A 
ATOM     20  C   UNL     1       4.300   6.159  17.009  0.00  0.00    +0.000 A 
ATOM     21  C   UNL     1       3.581   7.149  17.700  0.00  0.00    +0.000 A 
BRANCH  20  22
ATOM     22  C   UNL     1       5.427   6.528  16.063  0.00  0.00    +0.000 C 
BRANCH  22  23
ATOM     23  N   UNL     1       6.800   6.289  16.526  0.00  0.00    +0.000 NA
ATOM     24  C   UNL     1       7.088   4.934  16.995  0.00  0.00    +0.000 C 
ATOM     25  C   UNL     1       7.185   5.038  18.504  0.00  0.00    +0.000 C 
ATOM     26  C   UNL     1       7.771   6.418  18.722  0.00  0.00    +0.000 C 
ATOM     27  C   UNL     1       7.307   7.234  17.522  0.00  0.00    +0.000 C 
ENDBRANCH  22  23
ENDBRANCH  20  22
ENDBRANCH  15  16
ENDBRANCH   9  15
TORSDOF 6
ENDMDL
MODEL 4
REMARK VINA RESULT:      -7.3      1.967      3.466
REMARK  Name = 
REMARK  8 active torsions:
REMARK  status: ('A' for Active; 'I' for Inactive)
REMARK    1  A    between atoms: C_1  and  O_2
REMARK    2  A    between atoms: O_2  and  C_3
REMARK    3  A    between atoms: C_8  and  O_9
REMARK    4  A    between atoms: O_9  and  C_10
REMARK    5  A    between atoms: C_13  and  C_14
REMARK    6  A    between atoms: C_14  and  C_15
REMARK    7  A    between atoms: C_19  and  C_20
REMARK    8  A    between atoms: C_20  and  N_21
REMARK                            x       y       z     vdW  Elec       q    Type
REMARK                         _______ _______ _______ _____ _____    ______ ____
ROOT
ATOM      1  C   UNL     1       0.378  10.518  21.906  0.00  0.00    +0.000 A 
ATOM      2  C   UNL     1       0.750   9.203  21.585  0.00  0.00    +0.000 A 
ATOM      3  C   UNL     1       1.234   8.947  20.322  0.00  0.00    +0.000 A 
ATOM      4  C   UNL     1       1.308   9.950  19.386  0.00  0.00    +0.000 A 
ATOM      5  C   UNL     1       0.962  11.264  19.650  0.00  0.00    +0.000 A 
ATOM      6  C   UNL     1       0.502  11.557  20.940  0.00  0.00    +0.000 A 
ATOM      7  C   UNL     1       1.793   9.317  18.185  0.00  0.00    +0.000 C 
ATOM      8  O   UNL     1       1.946   9.885  17.120  0.00  0.00    +0.000 OA
ATOM      9  C   UNL     1       2.076   7.863  18.522  0.00  0.00    +0.000 C 
ATOM     10  O   UNL     1       1.668   7.716  19.912  0.00  0.00    +0.000 OA
ENDROOT
BRANCH   1  12
ATOM     11  C   UNL     1      -1.555  10.927  23.236  0.00  0.00    +0.000 C 
ATOM     12  O   UNL     1      -0.137  10.882  23.128  0.00  0.00    +0.000 OA
ENDBRANCH   1  12
BRANCH   6  13
ATOM     13  O   UNL     1       0.144  12.813  21.372  0.00  0.00    +0.000 OA
ATOM     14  C   UNL     1       0.744  13.929  20.729  0.00  0.00    +0.000 C 
ENDBRANCH   6  13
BRANCH   9  15
ATOM     15  C   UNL     1       3.573   7.577  18.338  0.00  0.00    +0.000 C 
BRANCH  15  16
ATOM     16  C   UNL     1       4.005   6.221  17.814  0.00  0.00    +0.000 A 
ATOM     17  C   UNL     1       5.192   5.988  17.116  0.00  0.00    +0.000 A 
ATOM     18  C   UNL     1       5.469   4.721  16.591  0.00  0.00    +0.000 A 
ATOM     19  C   UNL     1       4.557   3.676  16.743  0.00  0.00    +0.000 A 
ATOM     20  C   UNL     1       3.365   3.874  17.447  0.00  0.00    +0.000 A 
ATOM     21  C   UNL     1       3.132   5.136  18.019  0.00  0.00    +0.000 A 
BRANCH  20  22
ATOM     22  C   UNL     1       2.340   2.762  17.563  0.00  0.00    +0.000 C 
BRANCH  22  23
ATOM     23  N   UNL     1       2.081   2.222  18.904  0.00  0.00    +0.000 NA
ATOM     24  C   UNL     1       0.809   2.607  19.513  0.00  0.00    +0.000 C 
ATOM     25  C   UNL     1       1.162   3.615  20.588  0.00  0.00    +0.000 C 
ATOM     26  C   UNL     1       2.511   3.139  21.085  0.00  0.00    +0.000 C 
ATOM     27  C   UNL     1       3.143   2.438  19.889  0.00  0.00    +0.000 C 
ENDBRANCH  22  23
ENDBRANCH  20  22
ENDBRANCH  15  16
ENDBRANCH   9  15
TORSDOF 6
ENDMDL
MODEL 5
REMARK VINA RESULT:      -7.2      2.082      3.140
REMARK  Name = 
REMARK  8 active torsions:
REMARK  status: ('A' for Active; 'I' for Inactive)
REMARK    1  A    between atoms: C_1  and  O_2
REMARK    2  A    between atoms: O_2  and  C_3
REMARK    3  A    between atoms: C_8  and  O_9
REMARK    4  A    between atoms: O_9  and  C_10
REMARK    5  A    between atoms: C_13  and  C_14
REMARK    6  A    between atoms: C_14  and  C_15
REMARK    7  A    between atoms: C_19  and  C_20
REMARK    8  A    between atoms: C_20  and  N_21
REMARK                            x       y       z     vdW  Elec       q    Type
REMARK                         _______ _______ _______ _____ _____    ______ ____
ROOT
ATOM      1  C   UNL     1      -1.104  11.294  18.631  0.00  0.00    +0.000 A 
ATOM      2  C   UNL     1      -0.287  10.188  18.353  0.00  0.00    +0.000 A 
ATOM      3  C   UNL     1       0.397   9.598  19.392  0.00  0.00    +0.000 A 
ATOM      4  C   UNL     1       0.312  10.111  20.664  0.00  0.00    +0.000 A 
ATOM      5  C   UNL     1      -0.483  11.194  20.995  0.00  0.00    +0.000 A 
ATOM      6  C   UNL     1      -1.218  11.788  19.962  0.00  0.00    +0.000 A 
ATOM      7  C   UNL     1       1.189   9.294  21.464  0.00  0.00    +0.000 C 
ATOM      8  O   UNL     1       1.411   9.476  22.647  0.00  0.00    +0.000 OA
ATOM      9  C   UNL     1       1.737   8.200  20.564  0.00  0.00    +0.000 C 
ATOM     10  O   UNL     1       1.187   8.489  19.248  0.00  0.00    +0.000 OA
ENDROOT
BRANCH   1  12
ATOM     11  C   UNL     1      -2.515  11.181  16.716  0.00  0.00    +0.000 C 
ATOM     12  O   UNL     1      -1.814  11.973  17.668  0.00  0.00    +0.000 OA
ENDBRANCH   1  12
BRANCH   6  13
ATOM     13  O   UNL     1      -2.073  12.853  20.128  0.00  0.00    +0.000 OA
ATOM     14  C   UNL     1      -2.352  13.276  21.455  0.00  0.00    +0.000 C 
ENDBRANCH   6  13
BRANCH   9  15
ATOM     15  C   UNL     1       1.275   6.831  21.083  0.00  0.00    +0.000 C 
BRANCH  15  16
ATOM     16  C   UNL     1       1.796   5.575  20.413  0.00  0.00    +0.000 A 
ATOM     17  C   UNL     1       1.049   4.408  20.236  0.00  0.00    +0.000 A 
ATOM     18  C   UNL     1       1.639   3.264  19.687  0.00  0.00    +0.000 A 
ATOM     19  C   UNL     1       2.986   3.267  19.324  0.00  0.00    +0.000 A 
ATOM     20  C   UNL     1       3.759   4.423  19.477  0.00  0.00    +0.000 A 
ATOM     21  C   UNL     1       3.134   5.579  19.974  0.00  0.00    +0.000 A 
BRANCH  20  22
ATOM     22  C   UNL     1       5.238   4.416  19.144  0.00  0.00    +0.000 C 
BRANCH  22  23
ATOM     23  N   UNL     1       5.608   4.468  17.723  0.00  0.00    +0.000 NA
ATOM     24  C   UNL     1       6.968   4.920  17.435  0.00  0.00    +0.000 C 
ATOM     25  C   UNL     1       6.821   6.322  16.879  0.00  0.00    +0.000 C 
ATOM     26  C   UNL     1       5.506   6.266  16.130  0.00  0.00    +0.000 C 
ATOM     27  C   UNL     1       4.688   5.205  16.856  0.00  0.00    +0.000 C 
ENDBRANCH  22  23
ENDBRANCH  20  22
ENDBRANCH  15  16
ENDBRANCH   9  15
TORSDOF 6
ENDMDL
MODEL 6
REMARK VINA RESULT:      -7.1      1.176      2.295
REMARK  Name = 
REMARK  8 active torsions:
REMARK  status: ('A' for Active; 'I' for Inactive)
REMARK    1  A    between atoms: C_1  and  O_2
REMARK    2  A    between atoms: O_2  and  C_3
REMARK    3  A    between atoms: C_8  and  O_9
REMARK    4  A    between atoms: O_9  and  C_10
REMARK    5  A    between atoms: C_13  and  C_14
REMARK    6  A    between atoms: C_14  and  C_15
REMARK    7  A    between atoms: C_19  and  C_20
REMARK    8  A    between atoms: C_20  and  N_21
REMARK                            x       y       z     vdW  Elec       q    Type
REMARK                         _______ _______ _______ _____ _____    ______ ____
ROOT
ATOM      1  C   UNL     1      -0.346  11.774  19.432  0.00  0.00    +0.000 A 
ATOM      2  C   UNL     1       0.632  11.229  18.587  0.00  0.00    +0.000 A 
ATOM      3  C   UNL     1       1.174  10.006  18.914  0.00  0.00    +0.000 A 
ATOM      4  C   UNL     1       0.794   9.358  20.065  0.00  0.00    +0.000 A 
ATOM      5  C   UNL     1      -0.171   9.847  20.928  0.00  0.00    +0.000 A 
ATOM      6  C   UNL     1      -0.764  11.071  20.599  0.00  0.00    +0.000 A 
ATOM      7  C   UNL     1       1.596   8.161  20.111  0.00  0.00    +0.000 C 
ATOM      8  O   UNL     1       1.570   7.350  21.019  0.00  0.00    +0.000 OA
ATOM      9  C   UNL     1       2.426   8.121  18.840  0.00  0.00    +0.000 C 
ATOM     10  O   UNL     1       2.101   9.357  18.143  0.00  0.00    +0.000 OA
ENDROOT
BRANCH   1  12
ATOM     11  C   UNL     1      -0.092  14.043  18.753  0.00  0.00    +0.000 C 
ATOM     12  O   UNL     1      -0.938  12.996  19.215  0.00  0.00    +0.000 OA
ENDBRANCH   1  12
BRANCH   6  13
ATOM     13  O   UNL     1      -1.754  11.680  21.334  0.00  0.00    +0.000 OA
ATOM     14  C   UNL     1      -1.370  12.365  22.519  0.00  0.00    +0.000 C 
ENDBRANCH   6  13
BRANCH   9  15
ATOM     15  C   UNL     1       2.039   6.887  18.014  0.00  0.00    +0.000 C 
BRANCH  15  16
ATOM     16  C   UNL     1       2.873   5.627  18.136  0.00  0.00    +0.000 A 
ATOM     17  C   UNL     1       2.714   4.670  19.140  0.00  0.00    +0.000 A 
ATOM     18  C   UNL     1       3.588   3.581  19.228  0.00  0.00    +0.000 A 
ATOM     19  C   UNL     1       4.641   3.444  18.323  0.00  0.00    +0.000 A 
ATOM     20  C   UNL     1       4.821   4.379  17.299  0.00  0.00    +0.000 A 
ATOM     21  C   UNL     1       3.898   5.432  17.190  0.00  0.00    +0.000 A 
BRANCH  20  22
ATOM     22  C   UNL     1       5.999   4.271  16.350  0.00  0.00    +0.000 C 
BRANCH  22  23
ATOM     23  N   UNL     1       7.227   4.991  16.716  0.00  0.00    +0.000 NA
ATOM     24  C   UNL     1       7.875   4.558  17.953  0.00  0.00    +0.000 C 
ATOM     25  C   UNL     1       7.590   5.650  18.965  0.00  0.00    +0.000 C 
ATOM     26  C   UNL     1       7.570   6.910  18.124  0.00  0.00    +0.000 C 
ATOM     27  C   UNL     1       7.120   6.451  16.743  0.00  0.00    +0.000 C 
ENDBRANCH  22  23
ENDBRANCH  20  22
ENDBRANCH  15  16
ENDBRANCH   9  15
TORSDOF 6
ENDMDL
MODEL 7
REMARK VINA RESULT:      -7.1      3.651      8.741
REMARK  Name = 
REMARK  8 active torsions:
REMARK  status: ('A' for Active; 'I' for Inactive)
REMARK    1  A    between atoms: C_1  and  O_2
REMARK    2  A    between atoms: O_2  and  C_3
REMARK    3  A    between atoms: C_8  and  O_9
REMARK    4  A    between atoms: O_9  and  C_10
REMARK    5  A    between atoms: C_13  and  C_14
REMARK    6  A    between atoms: C_14  and  C_15
REMARK    7  A    between atoms: C_19  and  C_20
REMARK    8  A    between atoms: C_20  and  N_21
REMARK                            x       y       z     vdW  Elec       q    Type
REMARK                         _______ _______ _______ _____ _____    ______ ____
ROOT
ATOM      1  C   UNL     1       1.636   3.762  19.999  0.00  0.00    +0.000 A 
ATOM      2  C   UNL     1       1.533   5.131  20.292  0.00  0.00    +0.000 A 
ATOM      3  C   UNL     1       2.161   6.030  19.459  0.00  0.00    +0.000 A 
ATOM      4  C   UNL     1       2.906   5.590  18.392  0.00  0.00    +0.000 A 
ATOM      5  C   UNL     1       3.034   4.255  18.053  0.00  0.00    +0.000 A 
ATOM      6  C   UNL     1       2.374   3.323  18.863  0.00  0.00    +0.000 A 
ATOM      7  C   UNL     1       3.455   6.781  17.793  0.00  0.00    +0.000 C 
ATOM      8  O   UNL     1       4.213   6.787  16.840  0.00  0.00    +0.000 OA
ATOM      9  C   UNL     1       2.899   7.970  18.557  0.00  0.00    +0.000 C 
ATOM     10  O   UNL     1       2.094   7.387  19.620  0.00  0.00    +0.000 OA
ENDROOT
BRANCH   1  12
ATOM     11  C   UNL     1       1.693   2.508  22.022  0.00  0.00    +0.000 C 
ATOM     12  O   UNL     1       1.067   2.778  20.773  0.00  0.00    +0.000 OA
ENDBRANCH   1  12
BRANCH   6  13
ATOM     13  O   UNL     1       2.378   1.964  18.649  0.00  0.00    +0.000 OA
ATOM     14  C   UNL     1       3.632   1.335  18.423  0.00  0.00    +0.000 C 
ENDBRANCH   6  13
BRANCH   9  15
ATOM     15  C   UNL     1       2.052   8.834  17.614  0.00  0.00    +0.000 C 
BRANCH  15  16
ATOM     16  C   UNL     1       1.624  10.217  18.065  0.00  0.00    +0.000 A 
ATOM     17  C   UNL     1       2.425  11.358  17.979  0.00  0.00    +0.000 A 
ATOM     18  C   UNL     1       1.981  12.577  18.502  0.00  0.00    +0.000 A 
ATOM     19  C   UNL     1       0.739  12.668  19.130  0.00  0.00    +0.000 A 
ATOM     20  C   UNL     1      -0.092  11.547  19.222  0.00  0.00    +0.000 A 
ATOM     21  C   UNL     1       0.344  10.346  18.638  0.00  0.00    +0.000 A 
BRANCH  20  22
ATOM     22  C   UNL     1      -1.416  11.623  19.958  0.00  0.00    +0.000 C 
BRANCH  22  23
ATOM     23  N   UNL     1      -1.460  12.429  21.185  0.00  0.00    +0.000 NA
ATOM     24  C   UNL     1      -0.777  11.861  22.346  0.00  0.00    +0.000 C 
ATOM     25  C   UNL     1      -1.878  11.390  23.275  0.00  0.00    +0.000 C 
ATOM     26  C   UNL     1      -2.986  12.396  23.043  0.00  0.00    +0.000 C 
ATOM     27  C   UNL     1      -2.791  12.868  21.608  0.00  0.00    +0.000 C 
ENDBRANCH  22  23
ENDBRANCH  20  22
ENDBRANCH  15  16
ENDBRANCH   9  15
TORSDOF 6
ENDMDL
MODEL 8
REMARK VINA RESULT:      -7.0      2.430      3.360
REMARK  Name = 
REMARK  8 active torsions:
REMARK  status: ('A' for Active; 'I' for Inactive)
REMARK    1  A    between atoms: C_1  and  O_2
REMARK    2  A    between atoms: O_2  and  C_3
REMARK    3  A    between atoms: C_8  and  O_9
REMARK    4  A    between atoms: O_9  and  C_10
REMARK    5  A    between atoms: C_13  and  C_14
REMARK    6  A    between atoms: C_14  and  C_15
REMARK    7  A    between atoms: C_19  and  C_20
REMARK    8  A    between atoms: C_20  and  N_21
REMARK                            x       y       z     vdW  Elec       q    Type
REMARK                         _______ _______ _______ _____ _____    ______ ____
ROOT
ATOM      1  C   UNL     1      -1.970  11.070  18.113  0.00  0.00    +0.000 A 
ATOM      2  C   UNL     1      -0.914  10.161  17.950  0.00  0.00    +0.000 A 
ATOM      3  C   UNL     1      -0.102   9.896  19.030  0.00  0.00    +0.000 A 
ATOM      4  C   UNL     1      -0.298  10.544  20.226  0.00  0.00    +0.000 A 
ATOM      5  C   UNL     1      -1.327  11.443  20.444  0.00  0.00    +0.000 A 
ATOM      6  C   UNL     1      -2.189  11.700  19.371  0.00  0.00    +0.000 A 
ATOM      7  C   UNL     1       0.754  10.073  21.091  0.00  0.00    +0.000 C 
ATOM      8  O   UNL     1       0.935  10.462  22.231  0.00  0.00    +0.000 OA
ATOM      9  C   UNL     1       1.541   9.026  20.321  0.00  0.00    +0.000 C 
ATOM     10  O   UNL     1       0.929   8.996  19.001  0.00  0.00    +0.000 OA
ENDROOT
BRANCH   1  12
ATOM     11  C   UNL     1      -2.777  10.636  15.915  0.00  0.00    +0.000 C 
ATOM     12  O   UNL     1      -2.828  11.424  17.098  0.00  0.00    +0.000 OA
ENDBRANCH   1  12
BRANCH   6  13
ATOM     13  O   UNL     1      -3.273  12.545  19.429  0.00  0.00    +0.000 OA
ATOM     14  C   UNL     1      -3.630  13.076  20.698  0.00  0.00    +0.000 C 
ENDBRANCH   6  13
BRANCH   9  15
ATOM     15  C   UNL     1       1.423   7.672  21.032  0.00  0.00    +0.000 C 
BRANCH  15  16
ATOM     16  C   UNL     1       1.703   6.402  20.251  0.00  0.00    +0.000 A 
ATOM     17  C   UNL     1       1.189   5.146  20.579  0.00  0.00    +0.000 A 
ATOM     18  C   UNL     1       1.571   4.011  19.855  0.00  0.00    +0.000 A 
ATOM     19  C   UNL     1       2.483   4.116  18.805  0.00  0.00    +0.000 A 
ATOM     20  C   UNL     1       3.008   5.362  18.443  0.00  0.00    +0.000 A 
ATOM     21  C   UNL     1       2.566   6.497  19.143  0.00  0.00    +0.000 A 
BRANCH  20  22
ATOM     22  C   UNL     1       4.046   5.476  17.344  0.00  0.00    +0.000 C 
BRANCH  22  23
ATOM     23  N   UNL     1       5.407   5.861  17.742  0.00  0.00    +0.000 NA
ATOM     24  C   UNL     1       6.243   6.429  16.685  0.00  0.00    +0.000 C 
ATOM     25  C   UNL     1       7.245   5.348  16.333  0.00  0.00    +0.000 C 
ATOM     26  C   UNL     1       7.480   4.645  17.654  0.00  0.00    +0.000 C 
ATOM     27  C   UNL     1       6.182   4.827  18.430  0.00  0.00    +0.000 C 
ENDBRANCH  22  23
ENDBRANCH  20  22
ENDBRANCH  15  16
ENDBRANCH   9  15
TORSDOF 6
ENDMDL
MODEL 9
REMARK VINA RESULT:      -7.0      2.013      2.970
REMARK  Name = 
REMARK  8 active torsions:
REMARK  status: ('A' for Active; 'I' for Inactive)
REMARK    1  A    between atoms: C_1  and  O_2
REMARK    2  A    between atoms: O_2  and  C_3
REMARK    3  A    between atoms: C_8  and  O_9
REMARK    4  A    between atoms: O_9  and  C_10
REMARK    5  A    between atoms: C_13  and  C_14
REMARK    6  A    between atoms: C_14  and  C_15
REMARK    7  A    between atoms: C_19  and  C_20
REMARK    8  A    between atoms: C_20  and  N_21
REMARK                            x       y       z     vdW  Elec       q    Type
REMARK                         _______ _______ _______ _____ _____    ______ ____
ROOT
ATOM      1  C   UNL     1      -1.544  11.409  19.447  0.00  0.00    +0.000 A 
ATOM      2  C   UNL     1      -0.746  10.362  18.961  0.00  0.00    +0.000 A 
ATOM      3  C   UNL     1       0.120   9.738  19.831  0.00  0.00    +0.000 A 
ATOM      4  C   UNL     1       0.228  10.163  21.133  0.00  0.00    +0.000 A 
ATOM      5  C   UNL     1      -0.539  11.184  21.666  0.00  0.00    +0.000 A 
ATOM      6  C   UNL     1      -1.454  11.809  20.811  0.00  0.00    +0.000 A 
ATOM      7  C   UNL     1       1.253   9.337  21.720  0.00  0.00    +0.000 C 
ATOM      8  O   UNL     1       1.661   9.451  22.861  0.00  0.00    +0.000 OA
ATOM      9  C   UNL     1       1.683   8.330  20.666  0.00  0.00    +0.000 C 
ATOM     10  O   UNL     1       0.913   8.679  19.481  0.00  0.00    +0.000 OA
ENDROOT
BRANCH   1  12
ATOM     11  C   UNL     1      -2.896  11.466  17.487  0.00  0.00    +0.000 C 
ATOM     12  O   UNL     1      -2.427  12.115  18.663  0.00  0.00    +0.000 OA
ENDBRANCH   1  12
BRANCH   6  13
ATOM     13  O   UNL     1      -2.308  12.820  21.189  0.00  0.00    +0.000 OA
ATOM     14  C   UNL     1      -2.325  13.192  22.560  0.00  0.00    +0.000 C 
ENDBRANCH   6  13
BRANCH   9  15
ATOM     15  C   UNL     1       1.361   6.911  21.153  0.00  0.00    +0.000 C 
BRANCH  15  16
ATOM     16  C   UNL     1       1.621   5.738  20.229  0.00  0.00    +0.000 A 
ATOM     17  C   UNL     1       1.059   4.469  20.388  0.00  0.00    +0.000 A 
ATOM     18  C   UNL     1       1.424   3.419  19.538  0.00  0.00    +0.000 A 
ATOM     19  C   UNL     1       2.367   3.620  18.530  0.00  0.00    +0.000 A 
ATOM     20  C   UNL     1       2.940   4.881  18.336  0.00  0.00    +0.000 A 
ATOM     21  C   UNL     1       2.516   5.937  19.160  0.00  0.00    +0.000 A 
BRANCH  20  22
ATOM     22  C   UNL     1       4.010   5.093  17.283  0.00  0.00    +0.000 C 
BRANCH  22  23
ATOM     23  N   UNL     1       5.347   4.551  17.563  0.00  0.00    +0.000 NA
ATOM     24  C   UNL     1       5.718   4.470  18.975  0.00  0.00    +0.000 C 
ATOM     25  C   UNL     1       6.726   5.580  19.196  0.00  0.00    +0.000 C 
ATOM     26  C   UNL     1       7.462   5.651  17.874  0.00  0.00    +0.000 C 
ATOM     27  C   UNL     1       6.450   5.181  16.837  0.00  0.00    +0.000 C 
ENDBRANCH  22  23
ENDBRANCH  20  22
ENDBRANCH  15  16
ENDBRANCH   9  15
TORSDOF 6
ENDMDL
