MODEL 1
REMARK VINA RESULT:      -8.2      0.000      0.000
REMARK  Name = 
REMARK  6 active torsions:
REMARK  status: ('A' for Active; 'I' for Inactive)
REMARK    1  A    between atoms: C_2  and  C_21
REMARK    2  A    between atoms: N_3  and  C_4
REMARK    3  A    between atoms: C_4  and  C_5
REMARK    4  A    between atoms: N_7  and  C_8
REMARK    5  A    between atoms: C_8  and  C_9
REMARK    6  A    between atoms: C_12  and  C_13
REMARK                            x       y       z     vdW  Elec       q    Type
REMARK                         _______ _______ _______ _____ _____    ______ ____
ROOT
ATOM      1  C   UNL     1       7.757   7.301  18.120  0.00  0.00    +0.000 A 
ATOM      2  C   UNL     1       7.408   5.967  18.135  0.00  0.00    +0.000 A 
ATOM      3  N   UNL     1       6.587   5.828  17.056  0.00  0.00    +0.000 N 
ATOM      4  N   UNL     1       6.439   6.996  16.402  0.00  0.00    +0.000 NA
ATOM      5  N   UNL     1       7.163   7.906  17.041  0.00  0.00    +0.000 NA
ENDROOT
BRANCH   1   6
ATOM      6  C   UNL     1       8.596   8.068  19.073  0.00  0.00    +0.000 C 
BRANCH   6   9
ATOM      7  O   UNL     1       9.357  10.385  20.461  0.00  0.00    +0.000 OA
ATOM      8  C   UNL     1       9.361  10.400  19.234  0.00  0.00    +0.000 C 
ATOM      9  N   UNL     1       8.982   9.321  18.469  0.00  0.00    +0.000 N 
ATOM     10  H   UNL     1       9.009   9.357  17.461  0.00  0.00    +0.000 HD
BRANCH   8  11
ATOM     11  C   UNL     1       9.750  11.639  18.505  0.00  0.00    +0.000 A 
ATOM     12  C   UNL     1      10.907  11.725  17.720  0.00  0.00    +0.000 A 
ATOM     13  C   UNL     1      11.209  12.915  17.050  0.00  0.00    +0.000 A 
ATOM     14  C   UNL     1      10.366  14.021  17.168  0.00  0.00    +0.000 A 
ATOM     15  C   UNL     1       9.223  13.946  17.961  0.00  0.00    +0.000 A 
ATOM     16  C   UNL     1       8.917  12.760  18.631  0.00  0.00    +0.000 A 
ENDBRANCH   8  11
ENDBRANCH   6   9
ENDBRANCH   1   6
BRANCH   3  17
ATOM     17  C   UNL     1       5.770   4.681  16.711  0.00  0.00    +0.000 C 
BRANCH  17  18
ATOM     18  C   UNL     1       4.627   4.471  17.671  0.00  0.00    +0.000 A 
ATOM     19  C   UNL     1       3.432   5.190  17.531  0.00  0.00    +0.000 A 
ATOM     20  C   UNL     1       2.347   4.936  18.374  0.00  0.00    +0.000 A 
ATOM     21  C   UNL     1       2.437   3.962  19.379  0.00  0.00    +0.000 A 
ATOM     22  C   UNL     1       3.647   3.273  19.545  0.00  0.00    +0.000 A 
ATOM     23  C   UNL     1       4.733   3.528  18.704  0.00  0.00    +0.000 A 
BRANCH  21  24
ATOM     24  C   UNL     1       1.255   3.637  20.260  0.00  0.00    +0.000 C 
ATOM     25  F   UNL     1       0.342   2.817  19.669  0.00  0.00    +0.000 F 
ATOM     26  F   UNL     1       1.627   3.007  21.411  0.00  0.00    +0.000 F 
ATOM     27  F   UNL     1       0.567   4.746  20.648  0.00  0.00    +0.000 F 
ENDBRANCH  21  24
ENDBRANCH  17  18
ENDBRANCH   3  17
TORSDOF 6
ENDMDL
MODEL 2
REMARK VINA RESULT:      -8.1      6.211      8.265
REMARK  Name = 
REMARK  6 active torsions:
REMARK  status: ('A' for Active; 'I' for Inactive)
REMARK    1  A    between atoms: C_2  and  C_21
REMARK    2  A    between atoms: N_3  and  C_4
REMARK    3  A    between atoms: C_4  and  C_5
REMARK    4  A    between atoms: N_7  and  C_8
REMARK    5  A    between atoms: C_8  and  C_9
REMARK    6  A    between atoms: C_12  and  C_13
REMARK                            x       y       z     vdW  Elec       q    Type
REMARK                         _______ _______ _______ _____ _____    ______ ____
ROOT
ATOM      1  C   UNL     1       3.018   7.414  18.092  0.00  0.00    +0.000 A 
ATOM      2  C   UNL     1       4.118   7.016  17.362  0.00  0.00    +0.000 A 
ATOM      3  N   UNL     1       4.591   5.932  18.039  0.00  0.00    +0.000 N 
ATOM      4  N   UNL     1       3.831   5.663  19.118  0.00  0.00    +0.000 NA
ATOM      5  N   UNL     1       2.855   6.560  19.154  0.00  0.00    +0.000 NA
ENDROOT
BRANCH   1   6
ATOM      6  C   UNL     1       2.113   8.569  17.880  0.00  0.00    +0.000 C 
BRANCH   6   9
ATOM      7  O   UNL     1      -0.156  10.186  18.214  0.00  0.00    +0.000 OA
ATOM      8  C   UNL     1       0.412   9.749  19.209  0.00  0.00    +0.000 C 
ATOM      9  N   UNL     1       1.544   8.969  19.145  0.00  0.00    +0.000 N 
ATOM     10  H   UNL     1       1.982   8.610  19.980  0.00  0.00    +0.000 HD
BRANCH   8  11
ATOM     11  C   UNL     1      -0.094  10.091  20.568  0.00  0.00    +0.000 A 
ATOM     12  C   UNL     1      -0.605  11.355  20.890  0.00  0.00    +0.000 A 
ATOM     13  C   UNL     1      -1.077  11.609  22.182  0.00  0.00    +0.000 A 
ATOM     14  C   UNL     1      -1.035  10.608  23.153  0.00  0.00    +0.000 A 
ATOM     15  C   UNL     1      -0.513   9.354  22.842  0.00  0.00    +0.000 A 
ATOM     16  C   UNL     1      -0.041   9.097  21.555  0.00  0.00    +0.000 A 
ENDBRANCH   8  11
ENDBRANCH   6   9
ENDBRANCH   1   6
BRANCH   3  17
ATOM     17  C   UNL     1       5.848   5.241  17.831  0.00  0.00    +0.000 C 
BRANCH  17  18
ATOM     18  C   UNL     1       6.029   4.776  16.408  0.00  0.00    +0.000 A 
ATOM     19  C   UNL     1       5.057   3.981  15.785  0.00  0.00    +0.000 A 
ATOM     20  C   UNL     1       5.190   3.618  14.443  0.00  0.00    +0.000 A 
ATOM     21  C   UNL     1       6.302   4.036  13.697  0.00  0.00    +0.000 A 
ATOM     22  C   UNL     1       7.294   4.796  14.334  0.00  0.00    +0.000 A 
ATOM     23  C   UNL     1       7.162   5.159  15.676  0.00  0.00    +0.000 A 
BRANCH  21  24
ATOM     24  C   UNL     1       6.432   3.700  12.232  0.00  0.00    +0.000 C 
ATOM     25  F   UNL     1       7.163   4.607  11.525  0.00  0.00    +0.000 F 
ATOM     26  F   UNL     1       7.041   2.496  12.031  0.00  0.00    +0.000 F 
ATOM     27  F   UNL     1       5.228   3.618  11.602  0.00  0.00    +0.000 F 
ENDBRANCH  21  24
ENDBRANCH  17  18
ENDBRANCH   3  17
TORSDOF 6
ENDMDL
MODEL 3
REMARK VINA RESULT:      -8.0      5.513      7.029
REMARK  Name = 
REMARK  6 active torsions:
REMARK  status: ('A' for Active; 'I' for Inactive)
REMARK    1  A    between atoms: C_2  and  C_21
REMARK    2  A    between atoms: N_3  and  C_4
REMARK    3  A    between atoms: C_4  and  C_5
REMARK    4  A    between atoms: N_7  and  C_8
REMARK    5  A    between atoms: C_8  and  C_9
REMARK    6  A    between atoms: C_12  and  C_13
REMARK                            x       y       z     vdW  Elec       q    Type
REMARK                         _______ _______ _______ _____ _____    ______ ____
ROOT
ATOM      1  C   UNL     1       5.567   4.470  18.942  0.00  0.00    +0.000 A 
ATOM      2  C   UNL     1       4.616   5.416  19.261  0.00  0.00    +0.000 A 
ATOM      3  N   UNL     1       3.589   4.689  19.784  0.00  0.00    +0.000 N 
ATOM      4  N   UNL     1       3.881   3.374  19.801  0.00  0.00    +0.000 NA
ATOM      5  N   UNL     1       5.098   3.229  19.296  0.00  0.00    +0.000 NA
ENDROOT
BRANCH   1   6
ATOM      6  C   UNL     1       6.889   4.642  18.294  0.00  0.00    +0.000 C 
BRANCH   6   9
ATOM      7  O   UNL     1       7.411   6.391  16.162  0.00  0.00    +0.000 OA
ATOM      8  C   UNL     1       7.079   5.237  15.914  0.00  0.00    +0.000 C 
ATOM      9  N   UNL     1       6.781   4.315  16.891  0.00  0.00    +0.000 N 
ATOM     10  H   UNL     1       6.525   3.367  16.659  0.00  0.00    +0.000 HD
BRANCH   8  11
ATOM     11  C   UNL     1       6.944   4.787  14.500  0.00  0.00    +0.000 A 
ATOM     12  C   UNL     1       7.765   5.265  13.471  0.00  0.00    +0.000 A 
ATOM     13  C   UNL     1       7.595   4.792  12.166  0.00  0.00    +0.000 A 
ATOM     14  C   UNL     1       6.604   3.851  11.884  0.00  0.00    +0.000 A 
ATOM     15  C   UNL     1       5.773   3.385  12.901  0.00  0.00    +0.000 A 
ATOM     16  C   UNL     1       5.940   3.854  14.205  0.00  0.00    +0.000 A 
ENDBRANCH   8  11
ENDBRANCH   6   9
ENDBRANCH   1   6
BRANCH   3  17
ATOM     17  C   UNL     1       2.252   5.152  20.099  0.00  0.00    +0.000 C 
BRANCH  17  18
ATOM     18  C   UNL     1       2.048   6.610  19.775  0.00  0.00    +0.000 A 
ATOM     19  C   UNL     1       2.318   7.103  18.491  0.00  0.00    +0.000 A 
ATOM     20  C   UNL     1       2.054   8.437  18.172  0.00  0.00    +0.000 A 
ATOM     21  C   UNL     1       1.522   9.309  19.133  0.00  0.00    +0.000 A 
ATOM     22  C   UNL     1       1.292   8.825  20.430  0.00  0.00    +0.000 A 
ATOM     23  C   UNL     1       1.557   7.491  20.749  0.00  0.00    +0.000 A 
BRANCH  21  24
ATOM     24  C   UNL     1       1.179  10.737  18.788  0.00  0.00    +0.000 C 
ATOM     25  F   UNL     1       2.059  11.318  17.926  0.00  0.00    +0.000 F 
ATOM     26  F   UNL     1      -0.045  10.846  18.197  0.00  0.00    +0.000 F 
ATOM     27  F   UNL     1       1.137  11.547  19.882  0.00  0.00    +0.000 F 
ENDBRANCH  21  24
ENDBRANCH  17  18
ENDBRANCH   3  17
TORSDOF 6
ENDMDL
MODEL 4
REMARK VINA RESULT:      -7.8      6.295      8.218
REMARK  Name = 
REMARK  6 active torsions:
REMARK  status: ('A' for Active; 'I' for Inactive)
REMARK    1  A    between atoms: C_2  and  C_21
REMARK    2  A    between atoms: N_3  and  C_4
REMARK    3  A    between atoms: C_4  and  C_5
REMARK    4  A    between atoms: N_7  and  C_8
REMARK    5  A    between atoms: C_8  and  C_9
REMARK    6  A    between atoms: C_12  and  C_13
REMARK                            x       y       z     vdW  Elec       q    Type
REMARK                         _______ _______ _______ _____ _____    ______ ____
ROOT
ATOM      1  C   UNL     1       3.141   7.163  18.283  0.00  0.00    +0.000 A 
ATOM      2  C   UNL     1       4.060   6.592  17.428  0.00  0.00    +0.000 A 
ATOM      3  N   UNL     1       4.656   5.626  18.180  0.00  0.00    +0.000 N 
ATOM      4  N   UNL     1       4.140   5.587  19.423  0.00  0.00    +0.000 NA
ATOM      5  N   UNL     1       3.200   6.521  19.494  0.00  0.00    +0.000 NA
ENDROOT
BRANCH   1   6
ATOM      6  C   UNL     1       2.220   8.303  18.055  0.00  0.00    +0.000 C 
BRANCH   6   9
ATOM      7  O   UNL     1       0.265  10.289  18.384  0.00  0.00    +0.000 OA
ATOM      8  C   UNL     1       0.637   9.655  19.366  0.00  0.00    +0.000 C 
ATOM      9  N   UNL     1       1.606   8.680  19.306  0.00  0.00    +0.000 N 
ATOM     10  H   UNL     1       1.883   8.164  20.128  0.00  0.00    +0.000 HD
BRANCH   8  11
ATOM     11  C   UNL     1       0.065   9.955  20.708  0.00  0.00    +0.000 A 
ATOM     12  C   UNL     1       0.162   9.070  21.789  0.00  0.00    +0.000 A 
ATOM     13  C   UNL     1      -0.386   9.418  23.027  0.00  0.00    +0.000 A 
ATOM     14  C   UNL     1      -1.036  10.642  23.188  0.00  0.00    +0.000 A 
ATOM     15  C   UNL     1      -1.150  11.519  22.112  0.00  0.00    +0.000 A 
ATOM     16  C   UNL     1      -0.604  11.176  20.874  0.00  0.00    +0.000 A 
ENDBRANCH   8  11
ENDBRANCH   6   9
ENDBRANCH   1   6
BRANCH   3  17
ATOM     17  C   UNL     1       5.836   4.852  17.848  0.00  0.00    +0.000 C 
BRANCH  17  18
ATOM     18  C   UNL     1       5.976   4.610  16.366  0.00  0.00    +0.000 A 
ATOM     19  C   UNL     1       7.061   5.139  15.653  0.00  0.00    +0.000 A 
ATOM     20  C   UNL     1       7.229   4.848  14.297  0.00  0.00    +0.000 A 
ATOM     21  C   UNL     1       6.312   4.028  13.624  0.00  0.00    +0.000 A 
ATOM     22  C   UNL     1       5.204   3.534  14.329  0.00  0.00    +0.000 A 
ATOM     23  C   UNL     1       5.035   3.826  15.684  0.00  0.00    +0.000 A 
BRANCH  21  24
ATOM     24  C   UNL     1       6.512   3.658  12.174  0.00  0.00    +0.000 C 
ATOM     25  F   UNL     1       7.395   4.464  11.522  0.00  0.00    +0.000 F 
ATOM     26  F   UNL     1       6.988   2.390  12.025  0.00  0.00    +0.000 F 
ATOM     27  F   UNL     1       5.357   3.710  11.455  0.00  0.00    +0.000 F 
ENDBRANCH  21  24
ENDBRANCH  17  18
ENDBRANCH   3  17
TORSDOF 6
ENDMDL
MODEL 5
REMARK VINA RESULT:      -7.8      5.533      7.076
REMARK  Name = 
REMARK  6 active torsions:
REMARK  status: ('A' for Active; 'I' for Inactive)
REMARK    1  A    between atoms: C_2  and  C_21
REMARK    2  A    between atoms: N_3  and  C_4
REMARK    3  A    between atoms: C_4  and  C_5
REMARK    4  A    between atoms: N_7  and  C_8
REMARK    5  A    between atoms: C_8  and  C_9
REMARK    6  A    between atoms: C_12  and  C_13
REMARK                            x       y       z     vdW  Elec       q    Type
REMARK                         _______ _______ _______ _____ _____    ______ ____
ROOT
ATOM      1  C   UNL     1       5.392   4.453  18.929  0.00  0.00    +0.000 A 
ATOM      2  C   UNL     1       4.588   5.372  19.569  0.00  0.00    +0.000 A 
ATOM      3  N   UNL     1       3.479   4.658  19.913  0.00  0.00    +0.000 N 
ATOM      4  N   UNL     1       3.586   3.374  19.522  0.00  0.00    +0.000 NA
ATOM      5  N   UNL     1       4.763   3.234  18.926  0.00  0.00    +0.000 NA
ENDROOT
BRANCH   1   6
ATOM      6  C   UNL     1       6.714   4.644  18.284  0.00  0.00    +0.000 C 
BRANCH   6   9
ATOM      7  O   UNL     1       7.500   6.307  16.164  0.00  0.00    +0.000 OA
ATOM      8  C   UNL     1       7.045   5.196  15.910  0.00  0.00    +0.000 C 
ATOM      9  N   UNL     1       6.613   4.322  16.880  0.00  0.00    +0.000 N 
ATOM     10  H   UNL     1       6.257   3.408  16.643  0.00  0.00    +0.000 HD
BRANCH   8  11
ATOM     11  C   UNL     1       6.903   4.756  14.494  0.00  0.00    +0.000 A 
ATOM     12  C   UNL     1       7.728   5.229  13.466  0.00  0.00    +0.000 A 
ATOM     13  C   UNL     1       7.551   4.766  12.159  0.00  0.00    +0.000 A 
ATOM     14  C   UNL     1       6.549   3.837  11.873  0.00  0.00    +0.000 A 
ATOM     15  C   UNL     1       5.715   3.375  12.889  0.00  0.00    +0.000 A 
ATOM     16  C   UNL     1       5.889   3.835  14.195  0.00  0.00    +0.000 A 
ENDBRANCH   8  11
ENDBRANCH   6   9
ENDBRANCH   1   6
BRANCH   3  17
ATOM     17  C   UNL     1       2.225   5.170  20.428  0.00  0.00    +0.000 C 
BRANCH  17  18
ATOM     18  C   UNL     1       1.934   6.574  19.964  0.00  0.00    +0.000 A 
ATOM     19  C   UNL     1       1.391   7.522  20.843  0.00  0.00    +0.000 A 
ATOM     20  C   UNL     1       1.196   8.842  20.432  0.00  0.00    +0.000 A 
ATOM     21  C   UNL     1       1.533   9.242  19.130  0.00  0.00    +0.000 A 
ATOM     22  C   UNL     1       2.036   8.283  18.239  0.00  0.00    +0.000 A 
ATOM     23  C   UNL     1       2.230   6.962  18.649  0.00  0.00    +0.000 A 
BRANCH  21  24
ATOM     24  C   UNL     1       1.380  10.677  18.689  0.00  0.00    +0.000 C 
ATOM     25  F   UNL     1       1.499  11.577  19.705  0.00  0.00    +0.000 F 
ATOM     26  F   UNL     1       2.318  11.036  17.766  0.00  0.00    +0.000 F 
ATOM     27  F   UNL     1       0.173  10.925  18.110  0.00  0.00    +0.000 F 
ENDBRANCH  21  24
ENDBRANCH  17  18
ENDBRANCH   3  17
TORSDOF 6
ENDMDL
MODEL 6
REMARK VINA RESULT:      -7.8      1.577      1.970
REMARK  Name = 
REMARK  6 active torsions:
REMARK  status: ('A' for Active; 'I' for Inactive)
REMARK    1  A    between atoms: C_2  and  C_21
REMARK    2  A    between atoms: N_3  and  C_4
REMARK    3  A    between atoms: C_4  and  C_5
REMARK    4  A    between atoms: N_7  and  C_8
REMARK    5  A    between atoms: C_8  and  C_9
REMARK    6  A    between atoms: C_12  and  C_13
REMARK                            x       y       z     vdW  Elec       q    Type
REMARK                         _______ _______ _______ _____ _____    ______ ____
ROOT
ATOM      1  C   UNL     1       7.014   7.619  17.457  0.00  0.00    +0.000 A 
ATOM      2  C   UNL     1       5.979   6.757  17.161  0.00  0.00    +0.000 A 
ATOM      3  N   UNL     1       6.511   5.519  17.367  0.00  0.00    +0.000 N 
ATOM      4  N   UNL     1       7.792   5.601  17.775  0.00  0.00    +0.000 NA
ATOM      5  N   UNL     1       8.108   6.887  17.844  0.00  0.00    +0.000 NA
ENDROOT
BRANCH   1   6
ATOM      6  C   UNL     1       7.062   9.099  17.374  0.00  0.00    +0.000 C 
BRANCH   6   9
ATOM      7  O   UNL     1       7.966  11.755  17.367  0.00  0.00    +0.000 OA
ATOM      8  C   UNL     1       8.639  10.902  17.935  0.00  0.00    +0.000 C 
ATOM      9  N   UNL     1       8.288   9.572  17.972  0.00  0.00    +0.000 N 
ATOM     10  H   UNL     1       8.853   8.893  18.460  0.00  0.00    +0.000 HD
BRANCH   8  11
ATOM     11  C   UNL     1       9.920  11.279  18.594  0.00  0.00    +0.000 A 
ATOM     12  C   UNL     1      11.115  11.456  17.883  0.00  0.00    +0.000 A 
ATOM     13  C   UNL     1      12.282  11.824  18.560  0.00  0.00    +0.000 A 
ATOM     14  C   UNL     1      12.263  12.008  19.943  0.00  0.00    +0.000 A 
ATOM     15  C   UNL     1      11.081  11.817  20.657  0.00  0.00    +0.000 A 
ATOM     16  C   UNL     1       9.914  11.451  19.985  0.00  0.00    +0.000 A 
ENDBRANCH   8  11
ENDBRANCH   6   9
ENDBRANCH   1   6
BRANCH   3  17
ATOM     17  C   UNL     1       5.929   4.239  17.013  0.00  0.00    +0.000 C 
BRANCH  17  18
ATOM     18  C   UNL     1       4.630   3.972  17.729  0.00  0.00    +0.000 A 
ATOM     19  C   UNL     1       3.488   3.577  17.018  0.00  0.00    +0.000 A 
ATOM     20  C   UNL     1       2.308   3.254  17.692  0.00  0.00    +0.000 A 
ATOM     21  C   UNL     1       2.242   3.327  19.091  0.00  0.00    +0.000 A 
ATOM     22  C   UNL     1       3.372   3.763  19.798  0.00  0.00    +0.000 A 
ATOM     23  C   UNL     1       4.552   4.087  19.125  0.00  0.00    +0.000 A 
BRANCH  21  24
ATOM     24  C   UNL     1       0.992   2.927  19.837  0.00  0.00    +0.000 C 
ATOM     25  F   UNL     1       1.231   2.138  20.921  0.00  0.00    +0.000 F 
ATOM     26  F   UNL     1       0.305   4.006  20.308  0.00  0.00    +0.000 F 
ATOM     27  F   UNL     1       0.113   2.237  19.059  0.00  0.00    +0.000 F 
ENDBRANCH  21  24
ENDBRANCH  17  18
ENDBRANCH   3  17
TORSDOF 6
ENDMDL
MODEL 7
REMARK VINA RESULT:      -7.5      6.318      8.689
REMARK  Name = 
REMARK  6 active torsions:
REMARK  status: ('A' for Active; 'I' for Inactive)
REMARK    1  A    between atoms: C_2  and  C_21
REMARK    2  A    between atoms: N_3  and  C_4
REMARK    3  A    between atoms: C_4  and  C_5
REMARK    4  A    between atoms: N_7  and  C_8
REMARK    5  A    between atoms: C_8  and  C_9
REMARK    6  A    between atoms: C_12  and  C_13
REMARK                            x       y       z     vdW  Elec       q    Type
REMARK                         _______ _______ _______ _____ _____    ______ ____
ROOT
ATOM      1  C   UNL     1       1.635   7.624  20.473  0.00  0.00    +0.000 A 
ATOM      2  C   UNL     1       1.677   8.465  19.381  0.00  0.00    +0.000 A 
ATOM      3  N   UNL     1       1.254   9.664  19.871  0.00  0.00    +0.000 N 
ATOM      4  N   UNL     1       0.973   9.582  21.186  0.00  0.00    +0.000 NA
ATOM      5  N   UNL     1       1.214   8.335  21.568  0.00  0.00    +0.000 NA
ENDROOT
BRANCH   1   6
ATOM      6  C   UNL     1       1.935   6.174  20.559  0.00  0.00    +0.000 C 
BRANCH   6   9
ATOM      7  O   UNL     1       2.341   4.717  18.195  0.00  0.00    +0.000 OA
ATOM      8  C   UNL     1       3.312   5.204  18.765  0.00  0.00    +0.000 C 
ATOM      9  N   UNL     1       3.214   5.914  19.940  0.00  0.00    +0.000 N 
ATOM     10  H   UNL     1       4.028   6.316  20.380  0.00  0.00    +0.000 HD
BRANCH   8  11
ATOM     11  C   UNL     1       4.679   5.004  18.210  0.00  0.00    +0.000 A 
ATOM     12  C   UNL     1       4.910   4.486  16.930  0.00  0.00    +0.000 A 
ATOM     13  C   UNL     1       6.219   4.335  16.463  0.00  0.00    +0.000 A 
ATOM     14  C   UNL     1       7.298   4.694  17.272  0.00  0.00    +0.000 A 
ATOM     15  C   UNL     1       7.075   5.195  18.552  0.00  0.00    +0.000 A 
ATOM     16  C   UNL     1       5.770   5.347  19.022  0.00  0.00    +0.000 A 
ENDBRANCH   8  11
ENDBRANCH   6   9
ENDBRANCH   1   6
BRANCH   3  17
ATOM     17  C   UNL     1       0.912  10.854  19.117  0.00  0.00    +0.000 C 
BRANCH  17  18
ATOM     18  C   UNL     1      -0.540  10.892  18.714  0.00  0.00    +0.000 A 
ATOM     19  C   UNL     1      -1.437  11.761  19.350  0.00  0.00    +0.000 A 
ATOM     20  C   UNL     1      -2.764  11.850  18.922  0.00  0.00    +0.000 A 
ATOM     21  C   UNL     1      -3.224  11.066  17.853  0.00  0.00    +0.000 A 
ATOM     22  C   UNL     1      -2.335  10.166  17.246  0.00  0.00    +0.000 A 
ATOM     23  C   UNL     1      -1.009  10.076  17.674  0.00  0.00    +0.000 A 
BRANCH  21  24
ATOM     24  C   UNL     1      -4.638  11.192  17.343  0.00  0.00    +0.000 C 
ATOM     25  F   UNL     1      -5.550  10.501  18.083  0.00  0.00    +0.000 F 
ATOM     26  F   UNL     1      -5.071  12.485  17.337  0.00  0.00    +0.000 F 
ATOM     27  F   UNL     1      -4.779  10.745  16.065  0.00  0.00    +0.000 F 
ENDBRANCH  21  24
ENDBRANCH  17  18
ENDBRANCH   3  17
TORSDOF 6
ENDMDL
MODEL 8
REMARK VINA RESULT:      -7.5      6.160      8.622
REMARK  Name = 
REMARK  6 active torsions:
REMARK  status: ('A' for Active; 'I' for Inactive)
REMARK    1  A    between atoms: C_2  and  C_21
REMARK    2  A    between atoms: N_3  and  C_4
REMARK    3  A    between atoms: C_4  and  C_5
REMARK    4  A    between atoms: N_7  and  C_8
REMARK    5  A    between atoms: C_8  and  C_9
REMARK    6  A    between atoms: C_12  and  C_13
REMARK                            x       y       z     vdW  Elec       q    Type
REMARK                         _______ _______ _______ _____ _____    ______ ____
ROOT
ATOM      1  C   UNL     1       1.780   7.331  20.115  0.00  0.00    +0.000 A 
ATOM      2  C   UNL     1       1.956   8.223  19.079  0.00  0.00    +0.000 A 
ATOM      3  N   UNL     1       1.400   9.379  19.539  0.00  0.00    +0.000 N 
ATOM      4  N   UNL     1       0.916   9.223  20.786  0.00  0.00    +0.000 NA
ATOM      5  N   UNL     1       1.154   7.972  21.154  0.00  0.00    +0.000 NA
ENDROOT
BRANCH   1   6
ATOM      6  C   UNL     1       2.135   5.893  20.192  0.00  0.00    +0.000 C 
BRANCH   6   9
ATOM      7  O   UNL     1       2.431   4.319  17.888  0.00  0.00    +0.000 OA
ATOM      8  C   UNL     1       3.414   4.893  18.344  0.00  0.00    +0.000 C 
ATOM      9  N   UNL     1       3.371   5.667  19.481  0.00  0.00    +0.000 N 
ATOM     10  H   UNL     1       4.193   6.140  19.826  0.00  0.00    +0.000 HD
BRANCH   8  11
ATOM     11  C   UNL     1       4.741   4.737  17.686  0.00  0.00    +0.000 A 
ATOM     12  C   UNL     1       4.882   4.363  16.343  0.00  0.00    +0.000 A 
ATOM     13  C   UNL     1       6.157   4.246  15.780  0.00  0.00    +0.000 A 
ATOM     14  C   UNL     1       7.291   4.494  16.555  0.00  0.00    +0.000 A 
ATOM     15  C   UNL     1       7.157   4.849  17.896  0.00  0.00    +0.000 A 
ATOM     16  C   UNL     1       5.887   4.968  18.461  0.00  0.00    +0.000 A 
ENDBRANCH   8  11
ENDBRANCH   6   9
ENDBRANCH   1   6
BRANCH   3  17
ATOM     17  C   UNL     1       1.126  10.587  18.787  0.00  0.00    +0.000 C 
BRANCH  17  18
ATOM     18  C   UNL     1      -0.342  10.775  18.501  0.00  0.00    +0.000 A 
ATOM     19  C   UNL     1      -1.024   9.897  17.647  0.00  0.00    +0.000 A 
ATOM     20  C   UNL     1      -2.400  10.027  17.446  0.00  0.00    +0.000 A 
ATOM     21  C   UNL     1      -3.123  11.042  18.090  0.00  0.00    +0.000 A 
ATOM     22  C   UNL     1      -2.432  11.946  18.911  0.00  0.00    +0.000 A 
ATOM     23  C   UNL     1      -1.056  11.817  19.111  0.00  0.00    +0.000 A 
BRANCH  21  24
ATOM     24  C   UNL     1      -4.619  11.161  17.927  0.00  0.00    +0.000 C 
ATOM     25  F   UNL     1      -5.308  10.095  18.422  0.00  0.00    +0.000 F 
ATOM     26  F   UNL     1      -5.122  12.256  18.565  0.00  0.00    +0.000 F 
ATOM     27  F   UNL     1      -4.999  11.280  16.626  0.00  0.00    +0.000 F 
ENDBRANCH  21  24
ENDBRANCH  17  18
ENDBRANCH   3  17
TORSDOF 6
ENDMDL
MODEL 9
REMARK VINA RESULT:      -7.5      6.264      8.698
REMARK  Name = 
REMARK  6 active torsions:
REMARK  status: ('A' for Active; 'I' for Inactive)
REMARK    1  A    between atoms: C_2  and  C_21
REMARK    2  A    between atoms: N_3  and  C_4
REMARK    3  A    between atoms: C_4  and  C_5
REMARK    4  A    between atoms: N_7  and  C_8
REMARK    5  A    between atoms: C_8  and  C_9
REMARK    6  A    between atoms: C_12  and  C_13
REMARK                            x       y       z     vdW  Elec       q    Type
REMARK                         _______ _______ _______ _____ _____    ______ ____
ROOT
ATOM      1  C   UNL     1       1.677   8.756  19.226  0.00  0.00    +0.000 A 
ATOM      2  C   UNL     1       2.299   7.591  18.830  0.00  0.00    +0.000 A 
ATOM      3  N   UNL     1       2.217   6.784  19.925  0.00  0.00    +0.000 N 
ATOM      4  N   UNL     1       1.576   7.399  20.937  0.00  0.00    +0.000 NA
ATOM      5  N   UNL     1       1.230   8.608  20.515  0.00  0.00    +0.000 NA
ENDROOT
BRANCH   1   6
ATOM      6  C   UNL     1       1.493  10.026  18.484  0.00  0.00    +0.000 C 
BRANCH   6   9
ATOM      7  O   UNL     1      -0.274  12.093  19.177  0.00  0.00    +0.000 OA
ATOM      8  C   UNL     1      -0.668  11.201  18.433  0.00  0.00    +0.000 C 
ATOM      9  N   UNL     1       0.117  10.136  18.057  0.00  0.00    +0.000 N 
ATOM     10  H   UNL     1      -0.228   9.424  17.432  0.00  0.00    +0.000 HD
BRANCH   8  11
ATOM     11  C   UNL     1      -2.069  11.218  17.926  0.00  0.00    +0.000 A 
ATOM     12  C   UNL     1      -3.130  11.780  18.647  0.00  0.00    +0.000 A 
ATOM     13  C   UNL     1      -4.420  11.775  18.108  0.00  0.00    +0.000 A 
ATOM     14  C   UNL     1      -4.656  11.205  16.856  0.00  0.00    +0.000 A 
ATOM     15  C   UNL     1      -3.607  10.630  16.142  0.00  0.00    +0.000 A 
ATOM     16  C   UNL     1      -2.318  10.633  16.676  0.00  0.00    +0.000 A 
ENDBRANCH   8  11
ENDBRANCH   6   9
ENDBRANCH   1   6
BRANCH   3  17
ATOM     17  C   UNL     1       2.886   5.515  20.138  0.00  0.00    +0.000 C 
BRANCH  17  18
ATOM     18  C   UNL     1       3.808   5.145  19.004  0.00  0.00    +0.000 A 
ATOM     19  C   UNL     1       3.309   4.536  17.844  0.00  0.00    +0.000 A 
ATOM     20  C   UNL     1       4.153   4.266  16.765  0.00  0.00    +0.000 A 
ATOM     21  C   UNL     1       5.515   4.593  16.824  0.00  0.00    +0.000 A 
ATOM     22  C   UNL     1       6.021   5.164  18.001  0.00  0.00    +0.000 A 
ATOM     23  C   UNL     1       5.178   5.433  19.082  0.00  0.00    +0.000 A 
BRANCH  21  24
ATOM     24  C   UNL     1       6.428   4.359  15.645  0.00  0.00    +0.000 C 
ATOM     25  F   UNL     1       6.370   5.344  14.705  0.00  0.00    +0.000 F 
ATOM     26  F   UNL     1       7.737   4.276  16.014  0.00  0.00    +0.000 F 
ATOM     27  F   UNL     1       6.151   3.199  14.988  0.00  0.00    +0.000 F 
ENDBRANCH  21  24
ENDBRANCH  17  18
ENDBRANCH   3  17
TORSDOF 6
ENDMDL
