MODEL 1
REMARK VINA RESULT:      -6.7      0.000      0.000
REMARK  Name = 
REMARK  11 active torsions:
REMARK  status: ('A' for Active; 'I' for Inactive)
REMARK    1  A    between atoms: C_1  and  C_2
REMARK    2  A    between atoms: C_4  and  C_5
REMARK    3  A    between atoms: C_6  and  N_7
REMARK    4  A    between atoms: C_8  and  S_9
REMARK    5  A    between atoms: N_10  and  C_11
REMARK    6  A    between atoms: N_10  and  C_19
REMARK    7  A    between atoms: C_11  and  C_12
REMARK    8  A    between atoms: C_12  and  C_13
REMARK    9  A    between atoms: C_19  and  C_20
REMARK   10  A    between atoms: C_19  and  C_21
REMARK   11  A    between atoms: C_22  and  C_23
REMARK                            x       y       z     vdW  Elec       q    Type
REMARK                         _______ _______ _______ _____ _____    ______ ____
ROOT
ATOM      1  N   UNL     1       2.704   6.352  19.779  0.00  0.00    +0.000 NA
ATOM      2  C   UNL     1       2.525   5.175  19.247  0.00  0.00    +0.000 C 
ATOM      3  N   UNL     1       3.183   4.073  19.787  0.00  0.00    +0.000 N 
ENDROOT
BRANCH   1   9
ATOM      4  C   UNL     1       0.711  11.566  18.373  0.00  0.00    +0.000 C 
ATOM      5  C   UNL     1       1.175  10.185  18.719  0.00  0.00    +0.000 A 
ATOM      6  C   UNL     1       0.809   9.566  19.914  0.00  0.00    +0.000 A 
ATOM      7  C   UNL     1       1.294   8.286  20.253  0.00  0.00    +0.000 A 
ATOM      8  C   UNL     1       0.938   7.740  21.611  0.00  0.00    +0.000 C 
ATOM      9  C   UNL     1       2.148   7.582  19.368  0.00  0.00    +0.000 A 
ATOM     10  C   UNL     1       2.570   8.250  18.196  0.00  0.00    +0.000 A 
ATOM     11  C   UNL     1       3.645   7.724  17.290  0.00  0.00    +0.000 C 
ATOM     12  C   UNL     1       2.037   9.510  17.860  0.00  0.00    +0.000 A 
ENDBRANCH   1   9
BRANCH   3  13
ATOM     13  C   UNL     1       2.673   3.404  21.002  0.00  0.00    +0.000 C 
ATOM     14  C   UNL     1       1.168   3.149  20.951  0.00  0.00    +0.000 C 
ATOM     15  C   UNL     1       3.414   2.091  21.268  0.00  0.00    +0.000 C 
ENDBRANCH   3  13
BRANCH   2  16
ATOM     16  S   UNL     1       1.496   4.801  17.867  0.00  0.00    +0.000 S 
ATOM     17  H   UNL     1       0.587   4.059  18.505  0.00  0.00    +0.000 HD
ENDBRANCH   2  16
BRANCH   3  18
ATOM     18  C   UNL     1       4.229   3.342  19.041  0.00  0.00    +0.000 C 
BRANCH  18  19
ATOM     19  C   UNL     1       5.477   4.198  18.794  0.00  0.00    +0.000 C 
BRANCH  19  20
ATOM     20  C   UNL     1       5.820   4.408  17.336  0.00  0.00    +0.000 A 
ATOM     21  C   UNL     1       7.121   4.754  16.953  0.00  0.00    +0.000 A 
ATOM     22  C   UNL     1       7.409   4.874  15.602  0.00  0.00    +0.000 A 
ATOM     23  N   UNL     1       6.506   4.679  14.619  0.00  0.00    +0.000 NA
ATOM     24  C   UNL     1       5.255   4.349  15.007  0.00  0.00    +0.000 A 
ATOM     25  C   UNL     1       4.868   4.208  16.333  0.00  0.00    +0.000 A 
ENDBRANCH  19  20
ENDBRANCH  18  19
ENDBRANCH   3  18
TORSDOF 6
ENDMDL
MODEL 2
REMARK VINA RESULT:      -6.6      0.526      1.050
REMARK  Name = 
REMARK  11 active torsions:
REMARK  status: ('A' for Active; 'I' for Inactive)
REMARK    1  A    between atoms: C_1  and  C_2
REMARK    2  A    between atoms: C_4  and  C_5
REMARK    3  A    between atoms: C_6  and  N_7
REMARK    4  A    between atoms: C_8  and  S_9
REMARK    5  A    between atoms: N_10  and  C_11
REMARK    6  A    between atoms: N_10  and  C_19
REMARK    7  A    between atoms: C_11  and  C_12
REMARK    8  A    between atoms: C_12  and  C_13
REMARK    9  A    between atoms: C_19  and  C_20
REMARK   10  A    between atoms: C_19  and  C_21
REMARK   11  A    between atoms: C_22  and  C_23
REMARK                            x       y       z     vdW  Elec       q    Type
REMARK                         _______ _______ _______ _____ _____    ______ ____
ROOT
ATOM      1  N   UNL     1       2.629   6.310  19.841  0.00  0.00    +0.000 NA
ATOM      2  C   UNL     1       2.451   5.134  19.304  0.00  0.00    +0.000 C 
ATOM      3  N   UNL     1       3.049   4.020  19.886  0.00  0.00    +0.000 N 
ENDROOT
BRANCH   1   9
ATOM      4  C   UNL     1       0.866  11.565  18.288  0.00  0.00    +0.000 C 
ATOM      5  C   UNL     1       1.270  10.175  18.671  0.00  0.00    +0.000 A 
ATOM      6  C   UNL     1       0.855   9.595  19.870  0.00  0.00    +0.000 A 
ATOM      7  C   UNL     1       1.284   8.305  20.246  0.00  0.00    +0.000 A 
ATOM      8  C   UNL     1       0.879   7.801  21.606  0.00  0.00    +0.000 C 
ATOM      9  C   UNL     1       2.129   7.551  19.393  0.00  0.00    +0.000 A 
ATOM     10  C   UNL     1       2.600   8.178  18.218  0.00  0.00    +0.000 A 
ATOM     11  C   UNL     1       3.673   7.594  17.346  0.00  0.00    +0.000 C 
ATOM     12  C   UNL     1       2.123   9.449  17.845  0.00  0.00    +0.000 A 
ENDBRANCH   1   9
BRANCH   3  13
ATOM     13  C   UNL     1       2.453   3.370  21.071  0.00  0.00    +0.000 C 
ATOM     14  C   UNL     1       0.975   3.035  20.883  0.00  0.00    +0.000 C 
ATOM     15  C   UNL     1       3.226   2.109  21.464  0.00  0.00    +0.000 C 
ENDBRANCH   3  13
BRANCH   2  16
ATOM     16  S   UNL     1       1.495   4.779  17.868  0.00  0.00    +0.000 S 
ATOM     17  H   UNL     1       1.663   5.944  17.237  0.00  0.00    +0.000 HD
ENDBRANCH   2  16
BRANCH   3  18
ATOM     18  C   UNL     1       4.118   3.259  19.205  0.00  0.00    +0.000 C 
BRANCH  18  19
ATOM     19  C   UNL     1       5.451   4.016  19.182  0.00  0.00    +0.000 C 
BRANCH  19  20
ATOM     20  C   UNL     1       5.833   4.581  17.832  0.00  0.00    +0.000 A 
ATOM     21  C   UNL     1       5.149   4.187  16.676  0.00  0.00    +0.000 A 
ATOM     22  C   UNL     1       5.487   4.776  15.468  0.00  0.00    +0.000 A 
ATOM     23  N   UNL     1       6.446   5.716  15.330  0.00  0.00    +0.000 NA
ATOM     24  C   UNL     1       7.097   6.080  16.454  0.00  0.00    +0.000 A 
ATOM     25  C   UNL     1       6.835   5.547  17.709  0.00  0.00    +0.000 A 
ENDBRANCH  19  20
ENDBRANCH  18  19
ENDBRANCH   3  18
TORSDOF 6
ENDMDL
MODEL 3
REMARK VINA RESULT:      -6.5      0.824      2.052
REMARK  Name = 
REMARK  11 active torsions:
REMARK  status: ('A' for Active; 'I' for Inactive)
REMARK    1  A    between atoms: C_1  and  C_2
REMARK    2  A    between atoms: C_4  and  C_5
REMARK    3  A    between atoms: C_6  and  N_7
REMARK    4  A    between atoms: C_8  and  S_9
REMARK    5  A    between atoms: N_10  and  C_11
REMARK    6  A    between atoms: N_10  and  C_19
REMARK    7  A    between atoms: C_11  and  C_12
REMARK    8  A    between atoms: C_12  and  C_13
REMARK    9  A    between atoms: C_19  and  C_20
REMARK   10  A    between atoms: C_19  and  C_21
REMARK   11  A    between atoms: C_22  and  C_23
REMARK                            x       y       z     vdW  Elec       q    Type
REMARK                         _______ _______ _______ _____ _____    ______ ____
ROOT
ATOM      1  N   UNL     1       3.221   5.987  19.411  0.00  0.00    +0.000 NA
ATOM      2  C   UNL     1       2.763   4.833  19.013  0.00  0.00    +0.000 C 
ATOM      3  N   UNL     1       3.506   3.681  19.258  0.00  0.00    +0.000 N 
ENDROOT
BRANCH   1   9
ATOM      4  C   UNL     1       0.539  10.988  18.444  0.00  0.00    +0.000 C 
ATOM      5  C   UNL     1       1.287   9.719  18.714  0.00  0.00    +0.000 A 
ATOM      6  C   UNL     1       2.184   9.186  17.789  0.00  0.00    +0.000 A 
ATOM      7  C   UNL     1       2.845   7.963  18.030  0.00  0.00    +0.000 A 
ATOM      8  C   UNL     1       3.709   7.405  16.931  0.00  0.00    +0.000 C 
ATOM      9  C   UNL     1       2.632   7.258  19.241  0.00  0.00    +0.000 A 
ATOM     10  C   UNL     1       1.667   7.772  20.136  0.00  0.00    +0.000 A 
ATOM     11  C   UNL     1       1.175   7.018  21.338  0.00  0.00    +0.000 C 
ATOM     12  C   UNL     1       1.054   9.015  19.892  0.00  0.00    +0.000 A 
ENDBRANCH   1   9
BRANCH   3  13
ATOM     13  C   UNL     1       3.483   3.030  20.583  0.00  0.00    +0.000 C 
ATOM     14  C   UNL     1       2.082   2.587  21.002  0.00  0.00    +0.000 C 
ATOM     15  C   UNL     1       4.442   1.839  20.636  0.00  0.00    +0.000 C 
ENDBRANCH   3  13
BRANCH   2  16
ATOM     16  S   UNL     1       1.244   4.551  18.167  0.00  0.00    +0.000 S 
ATOM     17  H   UNL     1       1.433   3.264  17.864  0.00  0.00    +0.000 HD
ENDBRANCH   2  16
BRANCH   3  18
ATOM     18  C   UNL     1       4.112   2.892  18.164  0.00  0.00    +0.000 C 
BRANCH  18  19
ATOM     19  C   UNL     1       3.950   3.566  16.797  0.00  0.00    +0.000 C 
BRANCH  19  20
ATOM     20  C   UNL     1       5.210   4.202  16.253  0.00  0.00    +0.000 A 
ATOM     21  C   UNL     1       6.219   4.640  17.120  0.00  0.00    +0.000 A 
ATOM     22  C   UNL     1       7.384   5.158  16.579  0.00  0.00    +0.000 A 
ATOM     23  N   UNL     1       7.614   5.272  15.254  0.00  0.00    +0.000 NA
ATOM     24  C   UNL     1       6.629   4.849  14.433  0.00  0.00    +0.000 A 
ATOM     25  C   UNL     1       5.425   4.319  14.877  0.00  0.00    +0.000 A 
ENDBRANCH  19  20
ENDBRANCH  18  19
ENDBRANCH   3  18
TORSDOF 6
ENDMDL
MODEL 4
REMARK VINA RESULT:      -6.4      0.740      1.267
REMARK  Name = 
REMARK  11 active torsions:
REMARK  status: ('A' for Active; 'I' for Inactive)
REMARK    1  A    between atoms: C_1  and  C_2
REMARK    2  A    between atoms: C_4  and  C_5
REMARK    3  A    between atoms: C_6  and  N_7
REMARK    4  A    between atoms: C_8  and  S_9
REMARK    5  A    between atoms: N_10  and  C_11
REMARK    6  A    between atoms: N_10  and  C_19
REMARK    7  A    between atoms: C_11  and  C_12
REMARK    8  A    between atoms: C_12  and  C_13
REMARK    9  A    between atoms: C_19  and  C_20
REMARK   10  A    between atoms: C_19  and  C_21
REMARK   11  A    between atoms: C_22  and  C_23
REMARK                            x       y       z     vdW  Elec       q    Type
REMARK                         _______ _______ _______ _____ _____    ______ ____
ROOT
ATOM      1  N   UNL     1       2.806   6.035  19.552  0.00  0.00    +0.000 NA
ATOM      2  C   UNL     1       2.544   4.888  18.990  0.00  0.00    +0.000 C 
ATOM      3  N   UNL     1       3.170   3.737  19.460  0.00  0.00    +0.000 N 
ENDROOT
BRANCH   1   9
ATOM      4  C   UNL     1       0.997  11.386  18.440  0.00  0.00    +0.000 C 
ATOM      5  C   UNL     1       1.413   9.972  18.708  0.00  0.00    +0.000 A 
ATOM      6  C   UNL     1       1.016   9.297  19.862  0.00  0.00    +0.000 A 
ATOM      7  C   UNL     1       1.456   7.984  20.129  0.00  0.00    +0.000 A 
ATOM      8  C   UNL     1       1.070   7.372  21.450  0.00  0.00    +0.000 C 
ATOM      9  C   UNL     1       2.294   7.305  19.210  0.00  0.00    +0.000 A 
ATOM     10  C   UNL     1       2.748   8.026  18.083  0.00  0.00    +0.000 A 
ATOM     11  C   UNL     1       3.813   7.518  17.154  0.00  0.00    +0.000 C 
ATOM     12  C   UNL     1       2.260   9.320  17.817  0.00  0.00    +0.000 A 
ENDBRANCH   1   9
BRANCH   3  13
ATOM     13  C   UNL     1       2.683   3.050  20.673  0.00  0.00    +0.000 C 
ATOM     14  C   UNL     1       2.397   4.011  21.825  0.00  0.00    +0.000 C 
ATOM     15  C   UNL     1       1.438   2.210  20.377  0.00  0.00    +0.000 C 
ENDBRANCH   3  13
BRANCH   2  16
ATOM     16  S   UNL     1       1.436   4.615  17.647  0.00  0.00    +0.000 S 
ATOM     17  H   UNL     1       0.640   3.721  18.238  0.00  0.00    +0.000 HD
ENDBRANCH   2  16
BRANCH   3  18
ATOM     18  C   UNL     1       4.143   2.984  18.641  0.00  0.00    +0.000 C 
BRANCH  18  19
ATOM     19  C   UNL     1       4.088   3.375  17.160  0.00  0.00    +0.000 C 
BRANCH  19  20
ATOM     20  C   UNL     1       5.304   4.121  16.658  0.00  0.00    +0.000 A 
ATOM     21  C   UNL     1       5.546   4.246  15.284  0.00  0.00    +0.000 A 
ATOM     22  C   UNL     1       6.636   4.992  14.865  0.00  0.00    +0.000 A 
ATOM     23  N   UNL     1       7.492   5.613  15.703  0.00  0.00    +0.000 NA
ATOM     24  C   UNL     1       7.246   5.478  17.023  0.00  0.00    +0.000 A 
ATOM     25  C   UNL     1       6.183   4.750  17.543  0.00  0.00    +0.000 A 
ENDBRANCH  19  20
ENDBRANCH  18  19
ENDBRANCH   3  18
TORSDOF 6
ENDMDL
MODEL 5
REMARK VINA RESULT:      -6.3      1.410      1.800
REMARK  Name = 
REMARK  11 active torsions:
REMARK  status: ('A' for Active; 'I' for Inactive)
REMARK    1  A    between atoms: C_1  and  C_2
REMARK    2  A    between atoms: C_4  and  C_5
REMARK    3  A    between atoms: C_6  and  N_7
REMARK    4  A    between atoms: C_8  and  S_9
REMARK    5  A    between atoms: N_10  and  C_11
REMARK    6  A    between atoms: N_10  and  C_19
REMARK    7  A    between atoms: C_11  and  C_12
REMARK    8  A    between atoms: C_12  and  C_13
REMARK    9  A    between atoms: C_19  and  C_20
REMARK   10  A    between atoms: C_19  and  C_21
REMARK   11  A    between atoms: C_22  and  C_23
REMARK                            x       y       z     vdW  Elec       q    Type
REMARK                         _______ _______ _______ _____ _____    ______ ____
ROOT
ATOM      1  N   UNL     1       2.935   6.243  19.397  0.00  0.00    +0.000 NA
ATOM      2  C   UNL     1       2.679   5.082  18.861  0.00  0.00    +0.000 C 
ATOM      3  N   UNL     1       3.465   3.984  19.202  0.00  0.00    +0.000 N 
ENDROOT
BRANCH   1   9
ATOM      4  C   UNL     1       0.516  11.424  18.727  0.00  0.00    +0.000 C 
ATOM      5  C   UNL     1       1.091  10.050  18.883  0.00  0.00    +0.000 A 
ATOM      6  C   UNL     1       0.863   9.284  20.026  0.00  0.00    +0.000 A 
ATOM      7  C   UNL     1       1.452   8.013  20.185  0.00  0.00    +0.000 A 
ATOM      8  C   UNL     1       1.243   7.304  21.497  0.00  0.00    +0.000 C 
ATOM      9  C   UNL     1       2.272   7.468  19.166  0.00  0.00    +0.000 A 
ATOM     10  C   UNL     1       2.555   8.283  18.048  0.00  0.00    +0.000 A 
ATOM     11  C   UNL     1       3.582   7.932  17.011  0.00  0.00    +0.000 C 
ATOM     12  C   UNL     1       1.920   9.530  17.893  0.00  0.00    +0.000 A 
ENDBRANCH   1   9
BRANCH   3  13
ATOM     13  C   UNL     1       3.239   3.251  20.464  0.00  0.00    +0.000 C 
ATOM     14  C   UNL     1       1.850   2.620  20.543  0.00  0.00    +0.000 C 
ATOM     15  C   UNL     1       4.310   2.180  20.687  0.00  0.00    +0.000 C 
ENDBRANCH   3  13
BRANCH   2  16
ATOM     16  S   UNL     1       1.394   4.725  17.710  0.00  0.00    +0.000 S 
ATOM     17  H   UNL     1       2.105   3.982  16.858  0.00  0.00    +0.000 HD
ENDBRANCH   2  16
BRANCH   3  18
ATOM     18  C   UNL     1       4.351   3.320  18.222  0.00  0.00    +0.000 C 
BRANCH  18  19
ATOM     19  C   UNL     1       4.922   4.301  17.191  0.00  0.00    +0.000 C 
BRANCH  19  20
ATOM     20  C   UNL     1       6.009   5.210  17.719  0.00  0.00    +0.000 A 
ATOM     21  C   UNL     1       6.593   4.971  18.969  0.00  0.00    +0.000 A 
ATOM     22  C   UNL     1       7.630   5.790  19.387  0.00  0.00    +0.000 A 
ATOM     23  N   UNL     1       8.120   6.816  18.661  0.00  0.00    +0.000 NA
ATOM     24  C   UNL     1       7.543   7.034  17.460  0.00  0.00    +0.000 A 
ATOM     25  C   UNL     1       6.497   6.273  16.955  0.00  0.00    +0.000 A 
ENDBRANCH  19  20
ENDBRANCH  18  19
ENDBRANCH   3  18
TORSDOF 6
ENDMDL
MODEL 6
REMARK VINA RESULT:      -6.2      1.500      2.598
REMARK  Name = 
REMARK  11 active torsions:
REMARK  status: ('A' for Active; 'I' for Inactive)
REMARK    1  A    between atoms: C_1  and  C_2
REMARK    2  A    between atoms: C_4  and  C_5
REMARK    3  A    between atoms: C_6  and  N_7
REMARK    4  A    between atoms: C_8  and  S_9
REMARK    5  A    between atoms: N_10  and  C_11
REMARK    6  A    between atoms: N_10  and  C_19
REMARK    7  A    between atoms: C_11  and  C_12
REMARK    8  A    between atoms: C_12  and  C_13
REMARK    9  A    between atoms: C_19  and  C_20
REMARK   10  A    between atoms: C_19  and  C_21
REMARK   11  A    between atoms: C_22  and  C_23
REMARK                            x       y       z     vdW  Elec       q    Type
REMARK                         _______ _______ _______ _____ _____    ______ ____
ROOT
ATOM      1  N   UNL     1       3.188   6.296  19.351  0.00  0.00    +0.000 NA
ATOM      2  C   UNL     1       2.871   5.137  18.843  0.00  0.00    +0.000 C 
ATOM      3  N   UNL     1       3.719   4.050  19.038  0.00  0.00    +0.000 N 
ENDROOT
BRANCH   1   9
ATOM      4  C   UNL     1       0.015  11.049  18.659  0.00  0.00    +0.000 C 
ATOM      5  C   UNL     1       0.888   9.849  18.856  0.00  0.00    +0.000 A 
ATOM      6  C   UNL     1       1.791   9.429  17.879  0.00  0.00    +0.000 A 
ATOM      7  C   UNL     1       2.571   8.268  18.053  0.00  0.00    +0.000 A 
ATOM      8  C   UNL     1       3.436   7.827  16.902  0.00  0.00    +0.000 C 
ATOM      9  C   UNL     1       2.477   7.510  19.247  0.00  0.00    +0.000 A 
ATOM     10  C   UNL     1       1.507   7.904  20.196  0.00  0.00    +0.000 A 
ATOM     11  C   UNL     1       1.138   7.072  21.390  0.00  0.00    +0.000 C 
ATOM     12  C   UNL     1       0.771   9.091  20.018  0.00  0.00    +0.000 A 
ENDBRANCH   1   9
BRANCH   3  13
ATOM     13  C   UNL     1       3.706   3.296  20.308  0.00  0.00    +0.000 C 
ATOM     14  C   UNL     1       2.294   3.031  20.826  0.00  0.00    +0.000 C 
ATOM     15  C   UNL     1       4.468   1.974  20.179  0.00  0.00    +0.000 C 
ENDBRANCH   3  13
BRANCH   2  16
ATOM     16  S   UNL     1       1.428   4.772  17.900  0.00  0.00    +0.000 S 
ATOM     17  H   UNL     1       1.867   3.659  17.307  0.00  0.00    +0.000 HD
ENDBRANCH   2  16
BRANCH   3  18
ATOM     18  C   UNL     1       4.452   3.417  17.921  0.00  0.00    +0.000 C 
BRANCH  18  19
ATOM     19  C   UNL     1       5.047   4.447  16.954  0.00  0.00    +0.000 C 
BRANCH  19  20
ATOM     20  C   UNL     1       6.164   5.285  17.532  0.00  0.00    +0.000 A 
ATOM     21  C   UNL     1       6.558   6.476  16.909  0.00  0.00    +0.000 A 
ATOM     22  C   UNL     1       7.542   7.247  17.507  0.00  0.00    +0.000 A 
ATOM     23  N   UNL     1       8.155   6.923  18.664  0.00  0.00    +0.000 NA
ATOM     24  C   UNL     1       7.765   5.770  19.249  0.00  0.00    +0.000 A 
ATOM     25  C   UNL     1       6.792   4.928  18.728  0.00  0.00    +0.000 A 
ENDBRANCH  19  20
ENDBRANCH  18  19
ENDBRANCH   3  18
TORSDOF 6
ENDMDL
MODEL 7
REMARK VINA RESULT:      -6.2      1.672      3.051
REMARK  Name = 
REMARK  11 active torsions:
REMARK  status: ('A' for Active; 'I' for Inactive)
REMARK    1  A    between atoms: C_1  and  C_2
REMARK    2  A    between atoms: C_4  and  C_5
REMARK    3  A    between atoms: C_6  and  N_7
REMARK    4  A    between atoms: C_8  and  S_9
REMARK    5  A    between atoms: N_10  and  C_11
REMARK    6  A    between atoms: N_10  and  C_19
REMARK    7  A    between atoms: C_11  and  C_12
REMARK    8  A    between atoms: C_12  and  C_13
REMARK    9  A    between atoms: C_19  and  C_20
REMARK   10  A    between atoms: C_19  and  C_21
REMARK   11  A    between atoms: C_22  and  C_23
REMARK                            x       y       z     vdW  Elec       q    Type
REMARK                         _______ _______ _______ _____ _____    ______ ____
ROOT
ATOM      1  N   UNL     1       3.459   5.595  18.881  0.00  0.00    +0.000 NA
ATOM      2  C   UNL     1       3.081   4.662  18.052  0.00  0.00    +0.000 C 
ATOM      3  N   UNL     1       4.021   3.757  17.565  0.00  0.00    +0.000 N 
ENDROOT
BRANCH   1   9
ATOM      4  C   UNL     1      -0.071   9.637  20.965  0.00  0.00    +0.000 C 
ATOM      5  C   UNL     1       0.895   8.616  20.449  0.00  0.00    +0.000 A 
ATOM      6  C   UNL     1       1.629   8.824  19.281  0.00  0.00    +0.000 A 
ATOM      7  C   UNL     1       2.498   7.835  18.776  0.00  0.00    +0.000 A 
ATOM      8  C   UNL     1       3.165   8.099  17.452  0.00  0.00    +0.000 C 
ATOM      9  C   UNL     1       2.668   6.608  19.464  0.00  0.00    +0.000 A 
ATOM     10  C   UNL     1       1.865   6.380  20.604  0.00  0.00    +0.000 A 
ATOM     11  C   UNL     1       1.770   5.049  21.292  0.00  0.00    +0.000 C 
ATOM     12  C   UNL     1       1.038   7.400  21.112  0.00  0.00    +0.000 A 
ENDBRANCH   1   9
BRANCH   3  13
ATOM     13  C   UNL     1       4.460   2.606  18.380  0.00  0.00    +0.000 C 
ATOM     14  C   UNL     1       4.590   2.945  19.863  0.00  0.00    +0.000 C 
ATOM     15  C   UNL     1       3.525   1.408  18.201  0.00  0.00    +0.000 C 
ENDBRANCH   3  13
BRANCH   2  16
ATOM     16  S   UNL     1       1.444   4.399  17.455  0.00  0.00    +0.000 S 
ATOM     17  H   UNL     1       0.788   4.635  18.594  0.00  0.00    +0.000 HD
ENDBRANCH   2  16
BRANCH   3  18
ATOM     18  C   UNL     1       4.409   3.722  16.139  0.00  0.00    +0.000 C 
BRANCH  18  19
ATOM     19  C   UNL     1       5.925   3.840  15.942  0.00  0.00    +0.000 C 
BRANCH  19  20
ATOM     20  C   UNL     1       6.586   4.923  16.764  0.00  0.00    +0.000 A 
ATOM     21  C   UNL     1       6.312   6.274  16.514  0.00  0.00    +0.000 A 
ATOM     22  C   UNL     1       6.889   7.233  17.331  0.00  0.00    +0.000 A 
ATOM     23  N   UNL     1       7.709   6.948  18.365  0.00  0.00    +0.000 NA
ATOM     24  C   UNL     1       7.965   5.642  18.588  0.00  0.00    +0.000 A 
ATOM     25  C   UNL     1       7.439   4.608  17.825  0.00  0.00    +0.000 A 
ENDBRANCH  19  20
ENDBRANCH  18  19
ENDBRANCH   3  18
TORSDOF 6
ENDMDL
MODEL 8
REMARK VINA RESULT:      -6.2      7.075     10.713
REMARK  Name = 
REMARK  11 active torsions:
REMARK  status: ('A' for Active; 'I' for Inactive)
REMARK    1  A    between atoms: C_1  and  C_2
REMARK    2  A    between atoms: C_4  and  C_5
REMARK    3  A    between atoms: C_6  and  N_7
REMARK    4  A    between atoms: C_8  and  S_9
REMARK    5  A    between atoms: N_10  and  C_11
REMARK    6  A    between atoms: N_10  and  C_19
REMARK    7  A    between atoms: C_11  and  C_12
REMARK    8  A    between atoms: C_12  and  C_13
REMARK    9  A    between atoms: C_19  and  C_20
REMARK   10  A    between atoms: C_19  and  C_21
REMARK   11  A    between atoms: C_22  and  C_23
REMARK                            x       y       z     vdW  Elec       q    Type
REMARK                         _______ _______ _______ _____ _____    ______ ____
ROOT
ATOM      1  N   UNL     1      -2.236  11.486  19.594  0.00  0.00    +0.000 NA
ATOM      2  C   UNL     1      -1.417  12.408  20.017  0.00  0.00    +0.000 C 
ATOM      3  N   UNL     1      -1.171  12.531  21.382  0.00  0.00    +0.000 N 
ENDROOT
BRANCH   1   9
ATOM      4  C   UNL     1      -3.930   9.991  14.299  0.00  0.00    +0.000 C 
ATOM      5  C   UNL     1      -3.455  10.426  15.651  0.00  0.00    +0.000 A 
ATOM      6  C   UNL     1      -2.220  10.024  16.159  0.00  0.00    +0.000 A 
ATOM      7  C   UNL     1      -1.805  10.396  17.454  0.00  0.00    +0.000 A 
ATOM      8  C   UNL     1      -0.507   9.826  17.964  0.00  0.00    +0.000 C 
ATOM      9  C   UNL     1      -2.627  11.218  18.265  0.00  0.00    +0.000 A 
ATOM     10  C   UNL     1      -3.905  11.556  17.768  0.00  0.00    +0.000 A 
ATOM     11  C   UNL     1      -4.963  12.221  18.601  0.00  0.00    +0.000 C 
ATOM     12  C   UNL     1      -4.278  11.209  16.455  0.00  0.00    +0.000 A 
ENDBRANCH   1   9
BRANCH   3  13
ATOM     13  C   UNL     1      -0.224  11.628  22.067  0.00  0.00    +0.000 C 
ATOM     14  C   UNL     1      -0.923  10.577  22.927  0.00  0.00    +0.000 C 
ATOM     15  C   UNL     1       0.713  10.943  21.070  0.00  0.00    +0.000 C 
ENDBRANCH   3  13
BRANCH   2  16
ATOM     16  S   UNL     1      -0.543  13.564  19.016  0.00  0.00    +0.000 S 
ATOM     17  H   UNL     1      -0.928  14.681  19.638  0.00  0.00    +0.000 HD
ENDBRANCH   2  16
BRANCH   3  18
ATOM     18  C   UNL     1      -1.601  13.717  22.153  0.00  0.00    +0.000 C 
BRANCH  18  19
ATOM     19  C   UNL     1      -3.051  14.114  21.856  0.00  0.00    +0.000 C 
BRANCH  19  20
ATOM     20  C   UNL     1      -4.084  13.421  22.717  0.00  0.00    +0.000 A 
ATOM     21  C   UNL     1      -3.720  12.842  23.939  0.00  0.00    +0.000 A 
ATOM     22  C   UNL     1      -4.708  12.273  24.727  0.00  0.00    +0.000 A 
ATOM     23  N   UNL     1      -6.014  12.238  24.390  0.00  0.00    +0.000 NA
ATOM     24  C   UNL     1      -6.346  12.798  23.207  0.00  0.00    +0.000 A 
ATOM     25  C   UNL     1      -5.431  13.388  22.346  0.00  0.00    +0.000 A 
ENDBRANCH  19  20
ENDBRANCH  18  19
ENDBRANCH   3  18
TORSDOF 6
ENDMDL
MODEL 9
REMARK VINA RESULT:      -6.2      0.958      2.371
REMARK  Name = 
REMARK  11 active torsions:
REMARK  status: ('A' for Active; 'I' for Inactive)
REMARK    1  A    between atoms: C_1  and  C_2
REMARK    2  A    between atoms: C_4  and  C_5
REMARK    3  A    between atoms: C_6  and  N_7
REMARK    4  A    between atoms: C_8  and  S_9
REMARK    5  A    between atoms: N_10  and  C_11
REMARK    6  A    between atoms: N_10  and  C_19
REMARK    7  A    between atoms: C_11  and  C_12
REMARK    8  A    between atoms: C_12  and  C_13
REMARK    9  A    between atoms: C_19  and  C_20
REMARK   10  A    between atoms: C_19  and  C_21
REMARK   11  A    between atoms: C_22  and  C_23
REMARK                            x       y       z     vdW  Elec       q    Type
REMARK                         _______ _______ _______ _____ _____    ______ ____
ROOT
ATOM      1  N   UNL     1       3.183   5.618  19.276  0.00  0.00    +0.000 NA
ATOM      2  C   UNL     1       2.677   4.534  18.757  0.00  0.00    +0.000 C 
ATOM      3  N   UNL     1       3.335   3.319  18.933  0.00  0.00    +0.000 N 
ENDROOT
BRANCH   1   9
ATOM      4  C   UNL     1       0.852  10.843  18.644  0.00  0.00    +0.000 C 
ATOM      5  C   UNL     1       1.511   9.511  18.829  0.00  0.00    +0.000 A 
ATOM      6  C   UNL     1       2.382   8.985  17.876  0.00  0.00    +0.000 A 
ATOM      7  C   UNL     1       2.957   7.706  18.036  0.00  0.00    +0.000 A 
ATOM      8  C   UNL     1       3.796   7.171  16.907  0.00  0.00    +0.000 C 
ATOM      9  C   UNL     1       2.682   6.934  19.192  0.00  0.00    +0.000 A 
ATOM     10  C   UNL     1       1.742   7.447  20.114  0.00  0.00    +0.000 A 
ATOM     11  C   UNL     1       1.185   6.646  21.255  0.00  0.00    +0.000 C 
ATOM     12  C   UNL     1       1.216   8.743  19.953  0.00  0.00    +0.000 A 
ENDBRANCH   1   9
BRANCH   3  13
ATOM     13  C   UNL     1       3.203   2.561  20.194  0.00  0.00    +0.000 C 
ATOM     14  C   UNL     1       4.551   2.133  20.772  0.00  0.00    +0.000 C 
ATOM     15  C   UNL     1       2.416   3.353  21.241  0.00  0.00    +0.000 C 
ENDBRANCH   3  13
BRANCH   2  16
ATOM     16  S   UNL     1       1.190   4.425  17.820  0.00  0.00    +0.000 S 
ATOM     17  H   UNL     1       1.661   3.700  16.802  0.00  0.00    +0.000 HD
ENDBRANCH   2  16
BRANCH   3  18
ATOM     18  C   UNL     1       3.948   2.589  17.804  0.00  0.00    +0.000 C 
BRANCH  18  19
ATOM     19  C   UNL     1       3.910   3.391  16.498  0.00  0.00    +0.000 C 
BRANCH  19  20
ATOM     20  C   UNL     1       5.227   4.020  16.105  0.00  0.00    +0.000 A 
ATOM     21  C   UNL     1       5.541   4.233  14.757  0.00  0.00    +0.000 A 
ATOM     22  C   UNL     1       6.731   4.871  14.442  0.00  0.00    +0.000 A 
ATOM     23  N   UNL     1       7.619   5.306  15.360  0.00  0.00    +0.000 NA
ATOM     24  C   UNL     1       7.302   5.089  16.654  0.00  0.00    +0.000 A 
ATOM     25  C   UNL     1       6.138   4.456  17.071  0.00  0.00    +0.000 A 
ENDBRANCH  19  20
ENDBRANCH  18  19
ENDBRANCH   3  18
TORSDOF 6
ENDMDL
