MODEL 1
REMARK VINA RESULT:      -8.2      0.000      0.000
REMARK  Name = 
REMARK  7 active torsions:
REMARK  status: ('A' for Active; 'I' for Inactive)
REMARK    1  A    between atoms: C_1  and  O_2
REMARK    2  A    between atoms: O_2  and  C_3
REMARK    3  A    between atoms: C_6  and  N_7
REMARK    4  A    between atoms: C_8  and  C_10
REMARK    5  A    between atoms: C_14  and  C_15
REMARK    6  A    between atoms: C_17  and  C_18
REMARK    7  A    between atoms: C_23  and  C_24
REMARK                            x       y       z     vdW  Elec       q    Type
REMARK                         _______ _______ _______ _____ _____    ______ ____
ROOT
ATOM      1  N   UNL     1       2.204   7.756  19.776  0.00  0.00    +0.000 N 
ATOM      2  C   UNL     1       2.268   6.368  19.889  0.00  0.00    +0.000 C 
ATOM      3  O   UNL     1       1.581   5.679  20.643  0.00  0.00    +0.000 OA
ATOM      4  H   UNL     1       2.909   8.172  19.174  0.00  0.00    +0.000 HD
ENDROOT
BRANCH   2   5
ATOM      5  C   UNL     1       3.327   5.749  19.063  0.00  0.00    +0.000 A 
ATOM      6  N   UNL     1       3.070   5.111  17.872  0.00  0.00    +0.000 NA
ATOM      7  C   UNL     1       4.268   4.874  17.381  0.00  0.00    +0.000 A 
ATOM      8  N   UNL     1       4.603   4.358  16.166  0.00  0.00    +0.000 NA
ATOM      9  C   UNL     1       5.867   4.380  15.857  0.00  0.00    +0.000 A 
ATOM     10  C   UNL     1       6.279   3.883  14.495  0.00  0.00    +0.000 C 
ATOM     11  C   UNL     1       6.965   4.871  16.745  0.00  0.00    +0.000 A 
ATOM     12  C   UNL     1       6.591   5.324  17.956  0.00  0.00    +0.000 A 
ATOM     13  N   UNL     1       5.239   5.344  18.276  0.00  0.00    +0.000 N 
ATOM     14  N   UNL     1       4.634   5.846  19.368  0.00  0.00    +0.000 NA
BRANCH  12  15
ATOM     15  C   UNL     1       7.547   5.864  18.960  0.00  0.00    +0.000 C 
ATOM     16  F   UNL     1       8.543   4.970  19.191  0.00  0.00    +0.000 F 
ATOM     17  F   UNL     1       8.165   6.978  18.475  0.00  0.00    +0.000 F 
ENDBRANCH  12  15
ENDBRANCH   2   5
BRANCH   1  21
ATOM     18  C   UNL     1      -0.410  10.298  21.969  0.00  0.00    +0.000 A 
ATOM     19  C   UNL     1       0.361   9.349  22.619  0.00  0.00    +0.000 A 
ATOM     20  C   UNL     1       1.206   8.513  21.884  0.00  0.00    +0.000 A 
ATOM     21  C   UNL     1       1.327   8.614  20.490  0.00  0.00    +0.000 A 
ATOM     22  C   UNL     1       0.554   9.587  19.827  0.00  0.00    +0.000 A 
ATOM     23  C   UNL     1       0.598   9.848  18.343  0.00  0.00    +0.000 C 
ATOM     24  C   UNL     1      -0.333  10.392  20.579  0.00  0.00    +0.000 A 
BRANCH  18  26
ATOM     25  C   UNL     1      -1.009  12.541  22.384  0.00  0.00    +0.000 C 
ATOM     26  O   UNL     1      -1.281  11.156  22.580  0.00  0.00    +0.000 OA
ENDBRANCH  18  26
ENDBRANCH   1  21
TORSDOF 4
ENDMDL
MODEL 2
REMARK VINA RESULT:      -7.6      3.338      4.598
REMARK  Name = 
REMARK  7 active torsions:
REMARK  status: ('A' for Active; 'I' for Inactive)
REMARK    1  A    between atoms: C_1  and  O_2
REMARK    2  A    between atoms: O_2  and  C_3
REMARK    3  A    between atoms: C_6  and  N_7
REMARK    4  A    between atoms: C_8  and  C_10
REMARK    5  A    between atoms: C_14  and  C_15
REMARK    6  A    between atoms: C_17  and  C_18
REMARK    7  A    between atoms: C_23  and  C_24
REMARK                            x       y       z     vdW  Elec       q    Type
REMARK                         _______ _______ _______ _____ _____    ______ ____
ROOT
ATOM      1  N   UNL     1       1.318   9.761  19.338  0.00  0.00    +0.000 N 
ATOM      2  C   UNL     1       1.943   8.937  18.404  0.00  0.00    +0.000 C 
ATOM      3  O   UNL     1       2.191   9.237  17.236  0.00  0.00    +0.000 OA
ATOM      4  H   UNL     1       1.106   9.321  20.228  0.00  0.00    +0.000 HD
ENDROOT
BRANCH   2   5
ATOM      5  C   UNL     1       2.233   7.576  18.906  0.00  0.00    +0.000 A 
ATOM      6  N   UNL     1       1.902   7.160  20.175  0.00  0.00    +0.000 NA
ATOM      7  C   UNL     1       2.156   5.869  20.155  0.00  0.00    +0.000 A 
ATOM      8  N   UNL     1       1.907   4.938  21.118  0.00  0.00    +0.000 NA
ATOM      9  C   UNL     1       2.101   3.696  20.785  0.00  0.00    +0.000 A 
ATOM     10  C   UNL     1       1.775   2.625  21.794  0.00  0.00    +0.000 C 
ATOM     11  C   UNL     1       2.621   3.226  19.463  0.00  0.00    +0.000 A 
ATOM     12  C   UNL     1       2.901   4.186  18.561  0.00  0.00    +0.000 A 
ATOM     13  N   UNL     1       2.655   5.512  18.896  0.00  0.00    +0.000 N 
ATOM     14  N   UNL     1       2.755   6.612  18.127  0.00  0.00    +0.000 NA
BRANCH  12  15
ATOM     15  C   UNL     1       3.409   3.900  17.193  0.00  0.00    +0.000 C 
ATOM     16  F   UNL     1       4.572   3.198  17.259  0.00  0.00    +0.000 F 
ATOM     17  F   UNL     1       2.538   3.095  16.521  0.00  0.00    +0.000 F 
ENDBRANCH  12  15
ENDBRANCH   2   5
BRANCH   1  21
ATOM     18  C   UNL     1       0.048  13.770  18.690  0.00  0.00    +0.000 A 
ATOM     19  C   UNL     1       1.337  13.498  19.117  0.00  0.00    +0.000 A 
ATOM     20  C   UNL     1       1.736  12.177  19.337  0.00  0.00    +0.000 A 
ATOM     21  C   UNL     1       0.876  11.092  19.115  0.00  0.00    +0.000 A 
ATOM     22  C   UNL     1      -0.432  11.364  18.670  0.00  0.00    +0.000 A 
ATOM     23  C   UNL     1      -1.461  10.311  18.349  0.00  0.00    +0.000 C 
ATOM     24  C   UNL     1      -0.836  12.708  18.498  0.00  0.00    +0.000 A 
BRANCH  18  26
ATOM     25  C   UNL     1       0.355  16.098  18.915  0.00  0.00    +0.000 C 
ATOM     26  O   UNL     1      -0.456  15.019  18.458  0.00  0.00    +0.000 OA
ENDBRANCH  18  26
ENDBRANCH   1  21
TORSDOF 4
ENDMDL
MODEL 3
REMARK VINA RESULT:      -7.5      2.131      2.506
REMARK  Name = 
REMARK  7 active torsions:
REMARK  status: ('A' for Active; 'I' for Inactive)
REMARK    1  A    between atoms: C_1  and  O_2
REMARK    2  A    between atoms: O_2  and  C_3
REMARK    3  A    between atoms: C_6  and  N_7
REMARK    4  A    between atoms: C_8  and  C_10
REMARK    5  A    between atoms: C_14  and  C_15
REMARK    6  A    between atoms: C_17  and  C_18
REMARK    7  A    between atoms: C_23  and  C_24
REMARK                            x       y       z     vdW  Elec       q    Type
REMARK                         _______ _______ _______ _____ _____    ______ ____
ROOT
ATOM      1  N   UNL     1       1.667   8.121  19.740  0.00  0.00    +0.000 N 
ATOM      2  C   UNL     1       1.911   6.759  19.915  0.00  0.00    +0.000 C 
ATOM      3  O   UNL     1       1.586   6.094  20.899  0.00  0.00    +0.000 OA
ATOM      4  H   UNL     1       2.087   8.531  18.911  0.00  0.00    +0.000 HD
ENDROOT
BRANCH   2   5
ATOM      5  C   UNL     1       2.701   6.148  18.824  0.00  0.00    +0.000 A 
ATOM      6  N   UNL     1       3.549   6.871  18.018  0.00  0.00    +0.000 NA
ATOM      7  C   UNL     1       4.178   5.949  17.321  0.00  0.00    +0.000 A 
ATOM      8  N   UNL     1       5.210   6.099  16.445  0.00  0.00    +0.000 NA
ATOM      9  C   UNL     1       5.765   5.005  16.012  0.00  0.00    +0.000 A 
ATOM     10  C   UNL     1       6.954   5.122  15.094  0.00  0.00    +0.000 C 
ATOM     11  C   UNL     1       5.325   3.618  16.356  0.00  0.00    +0.000 A 
ATOM     12  C   UNL     1       4.269   3.519  17.185  0.00  0.00    +0.000 A 
ATOM     13  N   UNL     1       3.699   4.683  17.685  0.00  0.00    +0.000 N 
ATOM     14  N   UNL     1       2.721   4.822  18.599  0.00  0.00    +0.000 NA
BRANCH  12  15
ATOM     15  C   UNL     1       3.709   2.221  17.646  0.00  0.00    +0.000 C 
ATOM     16  F   UNL     1       3.771   2.134  19.001  0.00  0.00    +0.000 F 
ATOM     17  F   UNL     1       2.383   2.140  17.338  0.00  0.00    +0.000 F 
ENDBRANCH  12  15
ENDBRANCH   2   5
BRANCH   1  21
ATOM     18  C   UNL     1      -0.350  10.638  22.514  0.00  0.00    +0.000 A 
ATOM     19  C   UNL     1       0.463   9.609  22.957  0.00  0.00    +0.000 A 
ATOM     20  C   UNL     1       1.109   8.783  22.034  0.00  0.00    +0.000 A 
ATOM     21  C   UNL     1       0.987   8.972  20.650  0.00  0.00    +0.000 A 
ATOM     22  C   UNL     1       0.170  10.026  20.196  0.00  0.00    +0.000 A 
ATOM     23  C   UNL     1      -0.034  10.385  18.746  0.00  0.00    +0.000 C 
ATOM     24  C   UNL     1      -0.516  10.823  21.141  0.00  0.00    +0.000 A 
BRANCH  18  26
ATOM     25  C   UNL     1      -1.183  12.824  22.821  0.00  0.00    +0.000 C 
ATOM     26  O   UNL     1      -1.043  11.497  23.321  0.00  0.00    +0.000 OA
ENDBRANCH  18  26
ENDBRANCH   1  21
TORSDOF 4
ENDMDL
MODEL 4
REMARK VINA RESULT:      -7.5      2.381      3.083
REMARK  Name = 
REMARK  7 active torsions:
REMARK  status: ('A' for Active; 'I' for Inactive)
REMARK    1  A    between atoms: C_1  and  O_2
REMARK    2  A    between atoms: O_2  and  C_3
REMARK    3  A    between atoms: C_6  and  N_7
REMARK    4  A    between atoms: C_8  and  C_10
REMARK    5  A    between atoms: C_14  and  C_15
REMARK    6  A    between atoms: C_17  and  C_18
REMARK    7  A    between atoms: C_23  and  C_24
REMARK                            x       y       z     vdW  Elec       q    Type
REMARK                         _______ _______ _______ _____ _____    ______ ____
ROOT
ATOM      1  N   UNL     1       1.103   9.063  19.332  0.00  0.00    +0.000 N 
ATOM      2  C   UNL     1       2.056   8.957  18.320  0.00  0.00    +0.000 C 
ATOM      3  O   UNL     1       2.332   9.834  17.502  0.00  0.00    +0.000 OA
ATOM      4  H   UNL     1       0.937   8.210  19.858  0.00  0.00    +0.000 HD
ENDROOT
BRANCH   2   5
ATOM      5  C   UNL     1       2.692   7.624  18.234  0.00  0.00    +0.000 A 
ATOM      6  N   UNL     1       2.237   6.531  18.935  0.00  0.00    +0.000 NA
ATOM      7  C   UNL     1       2.943   5.534  18.448  0.00  0.00    +0.000 A 
ATOM      8  N   UNL     1       2.826   4.201  18.707  0.00  0.00    +0.000 NA
ATOM      9  C   UNL     1       3.537   3.403  17.966  0.00  0.00    +0.000 A 
ATOM     10  C   UNL     1       3.390   1.918  18.169  0.00  0.00    +0.000 C 
ATOM     11  C   UNL     1       4.500   3.837  16.906  0.00  0.00    +0.000 A 
ATOM     12  C   UNL     1       4.619   5.165  16.721  0.00  0.00    +0.000 A 
ATOM     13  N   UNL     1       3.830   6.021  17.479  0.00  0.00    +0.000 N 
ATOM     14  N   UNL     1       3.705   7.358  17.390  0.00  0.00    +0.000 NA
BRANCH  12  15
ATOM     15  C   UNL     1       5.515   5.771  15.700  0.00  0.00    +0.000 C 
ATOM     16  F   UNL     1       6.814   5.652  16.082  0.00  0.00    +0.000 F 
ATOM     17  F   UNL     1       5.421   5.092  14.522  0.00  0.00    +0.000 F 
ENDBRANCH  12  15
ENDBRANCH   2   5
BRANCH   1  21
ATOM     18  C   UNL     1      -1.269  12.484  20.211  0.00  0.00    +0.000 A 
ATOM     19  C   UNL     1      -0.169  12.168  20.992  0.00  0.00    +0.000 A 
ATOM     20  C   UNL     1       0.592  11.034  20.698  0.00  0.00    +0.000 A 
ATOM     21  C   UNL     1       0.300  10.200  19.609  0.00  0.00    +0.000 A 
ATOM     22  C   UNL     1      -0.810  10.526  18.805  0.00  0.00    +0.000 A 
ATOM     23  C   UNL     1      -1.232   9.757  17.580  0.00  0.00    +0.000 C 
ATOM     24  C   UNL     1      -1.600  11.649  19.144  0.00  0.00    +0.000 A 
BRANCH  18  26
ATOM     25  C   UNL     1      -3.146  13.346  21.351  0.00  0.00    +0.000 C 
ATOM     26  O   UNL     1      -2.094  13.555  20.412  0.00  0.00    +0.000 OA
ENDBRANCH  18  26
ENDBRANCH   1  21
TORSDOF 4
ENDMDL
MODEL 5
REMARK VINA RESULT:      -7.4      2.355      3.223
REMARK  Name = 
REMARK  7 active torsions:
REMARK  status: ('A' for Active; 'I' for Inactive)
REMARK    1  A    between atoms: C_1  and  O_2
REMARK    2  A    between atoms: O_2  and  C_3
REMARK    3  A    between atoms: C_6  and  N_7
REMARK    4  A    between atoms: C_8  and  C_10
REMARK    5  A    between atoms: C_14  and  C_15
REMARK    6  A    between atoms: C_17  and  C_18
REMARK    7  A    between atoms: C_23  and  C_24
REMARK                            x       y       z     vdW  Elec       q    Type
REMARK                         _______ _______ _______ _____ _____    ______ ____
ROOT
ATOM      1  N   UNL     1       1.079   8.822  19.314  0.00  0.00    +0.000 N 
ATOM      2  C   UNL     1       2.025   8.739  18.292  0.00  0.00    +0.000 C 
ATOM      3  O   UNL     1       2.258   9.615  17.460  0.00  0.00    +0.000 OA
ATOM      4  H   UNL     1       0.951   7.971  19.853  0.00  0.00    +0.000 HD
ENDROOT
BRANCH   2   5
ATOM      5  C   UNL     1       2.708   7.430  18.216  0.00  0.00    +0.000 A 
ATOM      6  N   UNL     1       2.296   6.326  18.926  0.00  0.00    +0.000 NA
ATOM      7  C   UNL     1       3.036   5.351  18.446  0.00  0.00    +0.000 A 
ATOM      8  N   UNL     1       2.969   4.018  18.716  0.00  0.00    +0.000 NA
ATOM      9  C   UNL     1       3.708   3.240  17.980  0.00  0.00    +0.000 A 
ATOM     10  C   UNL     1       3.615   1.752  18.196  0.00  0.00    +0.000 C 
ATOM     11  C   UNL     1       4.652   3.700  16.915  0.00  0.00    +0.000 A 
ATOM     12  C   UNL     1       4.722   5.030  16.718  0.00  0.00    +0.000 A 
ATOM     13  N   UNL     1       3.904   5.862  17.472  0.00  0.00    +0.000 N 
ATOM     14  N   UNL     1       3.729   7.193  17.372  0.00  0.00    +0.000 NA
BRANCH  12  15
ATOM     15  C   UNL     1       5.594   5.660  15.691  0.00  0.00    +0.000 C 
ATOM     16  F   UNL     1       6.902   5.414  15.967  0.00  0.00    +0.000 F 
ATOM     17  F   UNL     1       5.369   5.099  14.469  0.00  0.00    +0.000 F 
ENDBRANCH  12  15
ENDBRANCH   2   5
BRANCH   1  21
ATOM     18  C   UNL     1      -1.451  12.159  20.068  0.00  0.00    +0.000 A 
ATOM     19  C   UNL     1      -1.254  11.700  18.776  0.00  0.00    +0.000 A 
ATOM     20  C   UNL     1      -0.411  10.611  18.543  0.00  0.00    +0.000 A 
ATOM     21  C   UNL     1       0.238   9.933  19.586  0.00  0.00    +0.000 A 
ATOM     22  C   UNL     1       0.031  10.390  20.902  0.00  0.00    +0.000 A 
ATOM     23  C   UNL     1       0.622   9.749  22.131  0.00  0.00    +0.000 C 
ATOM     24  C   UNL     1      -0.787  11.524  21.117  0.00  0.00    +0.000 A 
BRANCH  18  26
ATOM     25  C   UNL     1      -3.622  12.927  20.579  0.00  0.00    +0.000 C 
ATOM     26  O   UNL     1      -2.237  13.222  20.414  0.00  0.00    +0.000 OA
ENDBRANCH  18  26
ENDBRANCH   1  21
TORSDOF 4
ENDMDL
MODEL 6
REMARK VINA RESULT:      -7.3      3.763      8.701
REMARK  Name = 
REMARK  7 active torsions:
REMARK  status: ('A' for Active; 'I' for Inactive)
REMARK    1  A    between atoms: C_1  and  O_2
REMARK    2  A    between atoms: O_2  and  C_3
REMARK    3  A    between atoms: C_6  and  N_7
REMARK    4  A    between atoms: C_8  and  C_10
REMARK    5  A    between atoms: C_14  and  C_15
REMARK    6  A    between atoms: C_17  and  C_18
REMARK    7  A    between atoms: C_23  and  C_24
REMARK                            x       y       z     vdW  Elec       q    Type
REMARK                         _______ _______ _______ _____ _____    ______ ____
ROOT
ATOM      1  N   UNL     1       2.423   7.804  18.997  0.00  0.00    +0.000 N 
ATOM      2  C   UNL     1       1.803   8.897  18.393  0.00  0.00    +0.000 C 
ATOM      3  O   UNL     1       1.773   9.125  17.183  0.00  0.00    +0.000 OA
ATOM      4  H   UNL     1       2.432   7.821  20.012  0.00  0.00    +0.000 HD
ENDROOT
BRANCH   2   5
ATOM      5  C   UNL     1       1.222   9.861  19.352  0.00  0.00    +0.000 A 
ATOM      6  N   UNL     1       0.909  11.157  19.015  0.00  0.00    +0.000 NA
ATOM      7  C   UNL     1       0.263  11.606  20.069  0.00  0.00    +0.000 A 
ATOM      8  N   UNL     1      -0.370  12.801  20.235  0.00  0.00    +0.000 NA
ATOM      9  C   UNL     1      -1.079  12.935  21.317  0.00  0.00    +0.000 A 
ATOM     10  C   UNL     1      -1.852  14.213  21.512  0.00  0.00    +0.000 C 
ATOM     11  C   UNL     1      -1.204  11.911  22.401  0.00  0.00    +0.000 A 
ATOM     12  C   UNL     1      -0.520  10.766  22.216  0.00  0.00    +0.000 A 
ATOM     13  N   UNL     1       0.205  10.600  21.043  0.00  0.00    +0.000 N 
ATOM     14  N   UNL     1       0.866   9.514  20.602  0.00  0.00    +0.000 NA
BRANCH  12  15
ATOM     15  C   UNL     1      -0.543   9.635  23.182  0.00  0.00    +0.000 C 
ATOM     16  F   UNL     1      -0.922   8.489  22.557  0.00  0.00    +0.000 F 
ATOM     17  F   UNL     1       0.712   9.391  23.656  0.00  0.00    +0.000 F 
ENDBRANCH  12  15
ENDBRANCH   2   5
BRANCH   1  21
ATOM     18  C   UNL     1       4.514   4.707  16.962  0.00  0.00    +0.000 A 
ATOM     19  C   UNL     1       4.867   6.034  16.782  0.00  0.00    +0.000 A 
ATOM     20  C   UNL     1       4.163   7.041  17.447  0.00  0.00    +0.000 A 
ATOM     21  C   UNL     1       3.109   6.757  18.328  0.00  0.00    +0.000 A 
ATOM     22  C   UNL     1       2.755   5.408  18.524  0.00  0.00    +0.000 A 
ATOM     23  C   UNL     1       1.675   4.936  19.463  0.00  0.00    +0.000 C 
ATOM     24  C   UNL     1       3.445   4.403  17.805  0.00  0.00    +0.000 A 
BRANCH  18  26
ATOM     25  C   UNL     1       5.928   3.964  15.226  0.00  0.00    +0.000 C 
ATOM     26  O   UNL     1       5.117   3.643  16.354  0.00  0.00    +0.000 OA
ENDBRANCH  18  26
ENDBRANCH   1  21
TORSDOF 4
ENDMDL
MODEL 7
REMARK VINA RESULT:      -7.2      2.726      3.277
REMARK  Name = 
REMARK  7 active torsions:
REMARK  status: ('A' for Active; 'I' for Inactive)
REMARK    1  A    between atoms: C_1  and  O_2
REMARK    2  A    between atoms: O_2  and  C_3
REMARK    3  A    between atoms: C_6  and  N_7
REMARK    4  A    between atoms: C_8  and  C_10
REMARK    5  A    between atoms: C_14  and  C_15
REMARK    6  A    between atoms: C_17  and  C_18
REMARK    7  A    between atoms: C_23  and  C_24
REMARK                            x       y       z     vdW  Elec       q    Type
REMARK                         _______ _______ _______ _____ _____    ______ ____
ROOT
ATOM      1  N   UNL     1       1.278   9.353  18.390  0.00  0.00    +0.000 N 
ATOM      2  C   UNL     1       1.769   8.283  19.138  0.00  0.00    +0.000 C 
ATOM      3  O   UNL     1       1.672   8.160  20.359  0.00  0.00    +0.000 OA
ATOM      4  H   UNL     1       1.528   9.341  17.406  0.00  0.00    +0.000 HD
ENDROOT
BRANCH   2   5
ATOM      5  C   UNL     1       2.525   7.294  18.341  0.00  0.00    +0.000 A 
ATOM      6  N   UNL     1       3.641   7.620  17.606  0.00  0.00    +0.000 NA
ATOM      7  C   UNL     1       4.106   6.454  17.211  0.00  0.00    +0.000 A 
ATOM      8  N   UNL     1       5.260   6.180  16.541  0.00  0.00    +0.000 NA
ATOM      9  C   UNL     1       5.572   4.923  16.416  0.00  0.00    +0.000 A 
ATOM     10  C   UNL     1       6.873   4.573  15.742  0.00  0.00    +0.000 C 
ATOM     11  C   UNL     1       4.744   3.775  16.898  0.00  0.00    +0.000 A 
ATOM     12  C   UNL     1       3.587   4.094  17.510  0.00  0.00    +0.000 A 
ATOM     13  N   UNL     1       3.269   5.435  17.685  0.00  0.00    +0.000 N 
ATOM     14  N   UNL     1       2.236   5.980  18.353  0.00  0.00    +0.000 NA
BRANCH  12  15
ATOM     15  C   UNL     1       2.650   3.082  18.066  0.00  0.00    +0.000 C 
ATOM     16  F   UNL     1       2.586   1.998  17.248  0.00  0.00    +0.000 F 
ATOM     17  F   UNL     1       3.113   2.609  19.258  0.00  0.00    +0.000 F 
ENDBRANCH  12  15
ENDBRANCH   2   5
BRANCH   1  21
ATOM     18  C   UNL     1      -0.805  12.720  19.947  0.00  0.00    +0.000 A 
ATOM     19  C   UNL     1       0.503  12.465  20.321  0.00  0.00    +0.000 A 
ATOM     20  C   UNL     1       1.170  11.348  19.811  0.00  0.00    +0.000 A 
ATOM     21  C   UNL     1       0.567  10.471  18.898  0.00  0.00    +0.000 A 
ATOM     22  C   UNL     1      -0.760  10.735  18.505  0.00  0.00    +0.000 A 
ATOM     23  C   UNL     1      -1.534   9.914  17.506  0.00  0.00    +0.000 C 
ATOM     24  C   UNL     1      -1.438  11.841  19.068  0.00  0.00    +0.000 A 
BRANCH  18  26
ATOM     25  C   UNL     1      -2.932  13.469  20.642  0.00  0.00    +0.000 C 
ATOM     26  O   UNL     1      -1.561  13.768  20.392  0.00  0.00    +0.000 OA
ENDBRANCH  18  26
ENDBRANCH   1  21
TORSDOF 4
ENDMDL
MODEL 8
REMARK VINA RESULT:      -7.2      4.315      9.113
REMARK  Name = 
REMARK  7 active torsions:
REMARK  status: ('A' for Active; 'I' for Inactive)
REMARK    1  A    between atoms: C_1  and  O_2
REMARK    2  A    between atoms: O_2  and  C_3
REMARK    3  A    between atoms: C_6  and  N_7
REMARK    4  A    between atoms: C_8  and  C_10
REMARK    5  A    between atoms: C_14  and  C_15
REMARK    6  A    between atoms: C_17  and  C_18
REMARK    7  A    between atoms: C_23  and  C_24
REMARK                            x       y       z     vdW  Elec       q    Type
REMARK                         _______ _______ _______ _____ _____    ______ ____
ROOT
ATOM      1  N   UNL     1       2.283   7.357  18.523  0.00  0.00    +0.000 N 
ATOM      2  C   UNL     1       2.001   8.654  18.096  0.00  0.00    +0.000 C 
ATOM      3  O   UNL     1       2.522   9.221  17.136  0.00  0.00    +0.000 OA
ATOM      4  H   UNL     1       1.831   7.081  19.389  0.00  0.00    +0.000 HD
ENDROOT
BRANCH   2   5
ATOM      5  C   UNL     1       1.045   9.375  18.965  0.00  0.00    +0.000 A 
ATOM      6  N   UNL     1       1.329   9.721  20.265  0.00  0.00    +0.000 NA
ATOM      7  C   UNL     1       0.318  10.488  20.612  0.00  0.00    +0.000 A 
ATOM      8  N   UNL     1       0.141  11.196  21.762  0.00  0.00    +0.000 NA
ATOM      9  C   UNL     1      -0.872  12.012  21.788  0.00  0.00    +0.000 A 
ATOM     10  C   UNL     1      -1.070  12.866  23.014  0.00  0.00    +0.000 C 
ATOM     11  C   UNL     1      -1.871  12.186  20.689  0.00  0.00    +0.000 A 
ATOM     12  C   UNL     1      -1.684  11.428  19.592  0.00  0.00    +0.000 A 
ATOM     13  N   UNL     1      -0.580  10.586  19.540  0.00  0.00    +0.000 N 
ATOM     14  N   UNL     1      -0.139   9.830  18.518  0.00  0.00    +0.000 NA
BRANCH  12  15
ATOM     15  C   UNL     1      -2.569  11.483  18.398  0.00  0.00    +0.000 C 
ATOM     16  F   UNL     1      -3.718  12.146  18.693  0.00  0.00    +0.000 F 
ATOM     17  F   UNL     1      -1.979  12.206  17.403  0.00  0.00    +0.000 F 
ENDBRANCH  12  15
ENDBRANCH   2   5
BRANCH   1  21
ATOM     18  C   UNL     1       5.072   4.713  16.697  0.00  0.00    +0.000 A 
ATOM     19  C   UNL     1       5.351   6.065  16.809  0.00  0.00    +0.000 A 
ATOM     20  C   UNL     1       4.420   6.923  17.400  0.00  0.00    +0.000 A 
ATOM     21  C   UNL     1       3.202   6.459  17.918  0.00  0.00    +0.000 A 
ATOM     22  C   UNL     1       2.921   5.083  17.816  0.00  0.00    +0.000 A 
ATOM     23  C   UNL     1       1.678   4.423  18.356  0.00  0.00    +0.000 C 
ATOM     24  C   UNL     1       3.851   4.235  17.172  0.00  0.00    +0.000 A 
BRANCH  18  26
ATOM     25  C   UNL     1       6.130   3.956  14.729  0.00  0.00    +0.000 C 
ATOM     26  O   UNL     1       5.897   3.785  16.125  0.00  0.00    +0.000 OA
ENDBRANCH  18  26
ENDBRANCH   1  21
TORSDOF 4
ENDMDL
MODEL 9
REMARK VINA RESULT:      -7.2      2.757      3.358
REMARK  Name = 
REMARK  7 active torsions:
REMARK  status: ('A' for Active; 'I' for Inactive)
REMARK    1  A    between atoms: C_1  and  O_2
REMARK    2  A    between atoms: O_2  and  C_3
REMARK    3  A    between atoms: C_6  and  N_7
REMARK    4  A    between atoms: C_8  and  C_10
REMARK    5  A    between atoms: C_14  and  C_15
REMARK    6  A    between atoms: C_17  and  C_18
REMARK    7  A    between atoms: C_23  and  C_24
REMARK                            x       y       z     vdW  Elec       q    Type
REMARK                         _______ _______ _______ _____ _____    ______ ____
ROOT
ATOM      1  N   UNL     1       1.336   9.378  18.267  0.00  0.00    +0.000 N 
ATOM      2  C   UNL     1       1.834   8.330  19.040  0.00  0.00    +0.000 C 
ATOM      3  O   UNL     1       1.748   8.240  20.265  0.00  0.00    +0.000 OA
ATOM      4  H   UNL     1       1.578   9.339  17.281  0.00  0.00    +0.000 HD
ENDROOT
BRANCH   2   5
ATOM      5  C   UNL     1       2.583   7.318  18.264  0.00  0.00    +0.000 A 
ATOM      6  N   UNL     1       3.728   7.612  17.559  0.00  0.00    +0.000 NA
ATOM      7  C   UNL     1       4.170   6.433  17.178  0.00  0.00    +0.000 A 
ATOM      8  N   UNL     1       5.333   6.125  16.539  0.00  0.00    +0.000 NA
ATOM      9  C   UNL     1       5.612   4.860  16.423  0.00  0.00    +0.000 A 
ATOM     10  C   UNL     1       6.920   4.472  15.784  0.00  0.00    +0.000 C 
ATOM     11  C   UNL     1       4.737   3.736  16.881  0.00  0.00    +0.000 A 
ATOM     12  C   UNL     1       3.575   4.089  17.461  0.00  0.00    +0.000 A 
ATOM     13  N   UNL     1       3.291   5.438  17.627  0.00  0.00    +0.000 N 
ATOM     14  N   UNL     1       2.256   6.013  18.267  0.00  0.00    +0.000 NA
BRANCH  12  15
ATOM     15  C   UNL     1       2.593   3.105  17.991  0.00  0.00    +0.000 C 
ATOM     16  F   UNL     1       2.758   1.900  17.383  0.00  0.00    +0.000 F 
ATOM     17  F   UNL     1       2.818   2.875  19.316  0.00  0.00    +0.000 F 
ENDBRANCH  12  15
ENDBRANCH   2   5
BRANCH   1  21
ATOM     18  C   UNL     1      -0.828  12.737  19.730  0.00  0.00    +0.000 A 
ATOM     19  C   UNL     1      -1.359  11.461  19.819  0.00  0.00    +0.000 A 
ATOM     20  C   UNL     1      -0.642  10.369  19.323  0.00  0.00    +0.000 A 
ATOM     21  C   UNL     1       0.630  10.511  18.750  0.00  0.00    +0.000 A 
ATOM     22  C   UNL     1       1.179  11.805  18.669  0.00  0.00    +0.000 A 
ATOM     23  C   UNL     1       2.547  12.120  18.119  0.00  0.00    +0.000 C 
ATOM     24  C   UNL     1       0.421  12.906  19.131  0.00  0.00    +0.000 A 
BRANCH  18  26
ATOM     25  C   UNL     1      -2.686  13.682  20.834  0.00  0.00    +0.000 C 
ATOM     26  O   UNL     1      -1.443  13.878  20.164  0.00  0.00    +0.000 OA
ENDBRANCH  18  26
ENDBRANCH   1  21
TORSDOF 4
ENDMDL
