MODEL 1
REMARK VINA RESULT:      -7.4      0.000      0.000
REMARK  Name = 
REMARK  4 active torsions:
REMARK  status: ('A' for Active; 'I' for Inactive)
REMARK    1  A    between atoms: C_2  and  C_3
REMARK    2  A    between atoms: C_5  and  O_6
REMARK    3  A    between atoms: C_10  and  C_11
REMARK    4  A    between atoms: C_14  and  O_15
REMARK                            x       y       z     vdW  Elec       q    Type
REMARK                         _______ _______ _______ _____ _____    ______ ____
ROOT
ATOM      1  C   UNL     1       6.885   5.565  16.948  0.00  0.00    +0.000 A 
ATOM      2  C   UNL     1       7.300   5.528  15.608  0.00  0.00    +0.000 A 
ATOM      3  C   UNL     1       6.610   4.747  14.680  0.00  0.00    +0.000 A 
ATOM      4  C   UNL     1       5.501   3.977  15.041  0.00  0.00    +0.000 A 
ATOM      5  C   UNL     1       5.087   4.010  16.378  0.00  0.00    +0.000 A 
ATOM      6  N   UNL     1       4.055   3.364  17.004  0.00  0.00    +0.000 NA
ATOM      7  C   UNL     1       4.131   3.776  18.257  0.00  0.00    +0.000 A 
ATOM      8  O   UNL     1       5.163   4.650  18.501  0.00  0.00    +0.000 OA
ATOM      9  C   UNL     1       5.776   4.797  17.287  0.00  0.00    +0.000 A 
ENDROOT
BRANCH   7  10
ATOM     10  C   UNL     1       3.261   3.410  19.369  0.00  0.00    +0.000 A 
ATOM     11  C   UNL     1       1.953   3.932  19.410  0.00  0.00    +0.000 A 
ATOM     12  C   UNL     1       1.088   3.637  20.470  0.00  0.00    +0.000 A 
ATOM     13  C   UNL     1       1.530   2.814  21.498  0.00  0.00    +0.000 A 
ATOM     14  C   UNL     1       2.812   2.282  21.478  0.00  0.00    +0.000 A 
ATOM     15  C   UNL     1       3.667   2.579  20.418  0.00  0.00    +0.000 A 
ATOM     16  F   UNL     1       4.901   2.056  20.444  0.00  0.00    +0.000 F 
BRANCH  13  17
ATOM     17  O   UNL     1       0.730   2.509  22.558  0.00  0.00    +0.000 OA
ATOM     18  H   UNL     1      -0.187   2.750  22.345  0.00  0.00    +0.000 HD
ENDBRANCH  13  17
ENDBRANCH   7  10
BRANCH   1  20
ATOM     19  N   UNL     1       8.159   6.941  18.727  0.00  0.00    +0.000 NA
ATOM     20  C   UNL     1       7.556   6.338  17.940  0.00  0.00    +0.000 C 
ENDBRANCH   1  20
BRANCH   3  21
ATOM     21  O   UNL     1       6.993   4.697  13.371  0.00  0.00    +0.000 OA
ATOM     22  H   UNL     1       7.480   3.876  13.198  0.00  0.00    +0.000 HD
ENDBRANCH   3  21
TORSDOF 4
ENDMDL
MODEL 2
REMARK VINA RESULT:      -7.4      1.107      1.541
REMARK  Name = 
REMARK  4 active torsions:
REMARK  status: ('A' for Active; 'I' for Inactive)
REMARK    1  A    between atoms: C_2  and  C_3
REMARK    2  A    between atoms: C_5  and  O_6
REMARK    3  A    between atoms: C_10  and  C_11
REMARK    4  A    between atoms: C_14  and  O_15
REMARK                            x       y       z     vdW  Elec       q    Type
REMARK                         _______ _______ _______ _____ _____    ______ ____
ROOT
ATOM      1  C   UNL     1       6.880   5.608  16.790  0.00  0.00    +0.000 A 
ATOM      2  C   UNL     1       7.303   5.534  15.454  0.00  0.00    +0.000 A 
ATOM      3  C   UNL     1       6.613   4.733  14.541  0.00  0.00    +0.000 A 
ATOM      4  C   UNL     1       5.497   3.981  14.915  0.00  0.00    +0.000 A 
ATOM      5  C   UNL     1       5.074   4.051  16.248  0.00  0.00    +0.000 A 
ATOM      6  N   UNL     1       4.035   3.428  16.884  0.00  0.00    +0.000 NA
ATOM      7  C   UNL     1       4.106   3.872  18.127  0.00  0.00    +0.000 A 
ATOM      8  O   UNL     1       5.141   4.745  18.354  0.00  0.00    +0.000 OA
ATOM      9  C   UNL     1       5.764   4.856  17.141  0.00  0.00    +0.000 A 
ENDROOT
BRANCH   7  10
ATOM     10  C   UNL     1       3.226   3.540  19.241  0.00  0.00    +0.000 A 
ATOM     11  C   UNL     1       3.749   2.817  20.331  0.00  0.00    +0.000 A 
ATOM     12  C   UNL     1       2.940   2.446  21.411  0.00  0.00    +0.000 A 
ATOM     13  C   UNL     1       1.596   2.801  21.406  0.00  0.00    +0.000 A 
ATOM     14  C   UNL     1       1.057   3.520  20.348  0.00  0.00    +0.000 A 
ATOM     15  C   UNL     1       1.871   3.886  19.276  0.00  0.00    +0.000 A 
ATOM     16  F   UNL     1       1.308   4.568  18.268  0.00  0.00    +0.000 F 
BRANCH  13  17
ATOM     17  O   UNL     1       0.766   2.452  22.428  0.00  0.00    +0.000 OA
ATOM     18  H   UNL     1       0.054   3.109  22.499  0.00  0.00    +0.000 HD
ENDBRANCH  13  17
ENDBRANCH   7  10
BRANCH   1  20
ATOM     19  N   UNL     1       8.099   6.995  18.598  0.00  0.00    +0.000 NA
ATOM     20  C   UNL     1       7.549   6.402  17.766  0.00  0.00    +0.000 C 
ENDBRANCH   1  20
BRANCH   3  21
ATOM     21  O   UNL     1       7.005   4.648  13.237  0.00  0.00    +0.000 OA
ATOM     22  H   UNL     1       7.941   4.890  13.154  0.00  0.00    +0.000 HD
ENDBRANCH   3  21
TORSDOF 4
ENDMDL
MODEL 3
REMARK VINA RESULT:      -7.3      5.164      6.553
REMARK  Name = 
REMARK  4 active torsions:
REMARK  status: ('A' for Active; 'I' for Inactive)
REMARK    1  A    between atoms: C_2  and  C_3
REMARK    2  A    between atoms: C_5  and  O_6
REMARK    3  A    between atoms: C_10  and  C_11
REMARK    4  A    between atoms: C_14  and  O_15
REMARK                            x       y       z     vdW  Elec       q    Type
REMARK                         _______ _______ _______ _____ _____    ______ ____
ROOT
ATOM      1  C   UNL     1       0.731   9.716  20.920  0.00  0.00    +0.000 A 
ATOM      2  C   UNL     1       0.290  10.840  20.205  0.00  0.00    +0.000 A 
ATOM      3  C   UNL     1       0.501  10.923  18.827  0.00  0.00    +0.000 A 
ATOM      4  C   UNL     1       1.155   9.913  18.117  0.00  0.00    +0.000 A 
ATOM      5  C   UNL     1       1.598   8.792  18.829  0.00  0.00    +0.000 A 
ATOM      6  N   UNL     1       2.261   7.673  18.402  0.00  0.00    +0.000 NA
ATOM      7  C   UNL     1       2.411   6.950  19.498  0.00  0.00    +0.000 A 
ATOM      8  O   UNL     1       1.896   7.531  20.630  0.00  0.00    +0.000 OA
ATOM      9  C   UNL     1       1.375   8.718  20.195  0.00  0.00    +0.000 A 
ENDROOT
BRANCH   7  10
ATOM     10  C   UNL     1       3.046   5.642  19.621  0.00  0.00    +0.000 A 
ATOM     11  C   UNL     1       4.366   5.480  19.158  0.00  0.00    +0.000 A 
ATOM     12  C   UNL     1       5.010   4.239  19.224  0.00  0.00    +0.000 A 
ATOM     13  C   UNL     1       4.331   3.150  19.757  0.00  0.00    +0.000 A 
ATOM     14  C   UNL     1       3.032   3.285  20.227  0.00  0.00    +0.000 A 
ATOM     15  C   UNL     1       2.398   4.526  20.158  0.00  0.00    +0.000 A 
ATOM     16  F   UNL     1       1.139   4.609  20.610  0.00  0.00    +0.000 F 
BRANCH  13  17
ATOM     17  O   UNL     1       4.911   1.919  19.830  0.00  0.00    +0.000 OA
ATOM     18  H   UNL     1       4.667   1.501  20.673  0.00  0.00    +0.000 HD
ENDBRANCH  13  17
ENDBRANCH   7  10
BRANCH   1  20
ATOM     19  N   UNL     1       0.434   9.527  23.481  0.00  0.00    +0.000 NA
ATOM     20  C   UNL     1       0.550   9.580  22.328  0.00  0.00    +0.000 C 
ENDBRANCH   1  20
BRANCH   3  21
ATOM     21  O   UNL     1       0.079  12.005  18.110  0.00  0.00    +0.000 OA
ATOM     22  H   UNL     1      -0.593  12.494  18.611  0.00  0.00    +0.000 HD
ENDBRANCH   3  21
TORSDOF 4
ENDMDL
MODEL 4
REMARK VINA RESULT:      -7.1      2.044      6.578
REMARK  Name = 
REMARK  4 active torsions:
REMARK  status: ('A' for Active; 'I' for Inactive)
REMARK    1  A    between atoms: C_2  and  C_3
REMARK    2  A    between atoms: C_5  and  O_6
REMARK    3  A    between atoms: C_10  and  C_11
REMARK    4  A    between atoms: C_14  and  O_15
REMARK                            x       y       z     vdW  Elec       q    Type
REMARK                         _______ _______ _______ _____ _____    ______ ____
ROOT
ATOM      1  C   UNL     1       2.380   5.393  20.165  0.00  0.00    +0.000 A 
ATOM      2  C   UNL     1       1.826   4.594  21.177  0.00  0.00    +0.000 A 
ATOM      3  C   UNL     1       2.131   3.233  21.245  0.00  0.00    +0.000 A 
ATOM      4  C   UNL     1       2.980   2.619  20.321  0.00  0.00    +0.000 A 
ATOM      5  C   UNL     1       3.533   3.413  19.309  0.00  0.00    +0.000 A 
ATOM      6  N   UNL     1       4.377   3.085  18.283  0.00  0.00    +0.000 NA
ATOM      7  C   UNL     1       4.574   4.228  17.650  0.00  0.00    +0.000 A 
ATOM      8  O   UNL     1       3.898   5.295  18.190  0.00  0.00    +0.000 OA
ATOM      9  C   UNL     1       3.227   4.765  19.258  0.00  0.00    +0.000 A 
ENDROOT
BRANCH   7  10
ATOM     10  C   UNL     1       5.409   4.463  16.477  0.00  0.00    +0.000 A 
ATOM     11  C   UNL     1       4.902   4.135  15.204  0.00  0.00    +0.000 A 
ATOM     12  C   UNL     1       5.673   4.312  14.050  0.00  0.00    +0.000 A 
ATOM     13  C   UNL     1       6.961   4.821  14.165  0.00  0.00    +0.000 A 
ATOM     14  C   UNL     1       7.481   5.158  15.407  0.00  0.00    +0.000 A 
ATOM     15  C   UNL     1       6.706   4.980  16.552  0.00  0.00    +0.000 A 
ATOM     16  F   UNL     1       7.251   5.306  17.733  0.00  0.00    +0.000 F 
BRANCH  13  17
ATOM     17  O   UNL     1       7.754   4.998  13.071  0.00  0.00    +0.000 OA
ATOM     18  H   UNL     1       7.683   4.218  12.496  0.00  0.00    +0.000 HD
ENDBRANCH  13  17
ENDBRANCH   7  10
BRANCH   1  20
ATOM     19  N   UNL     1       1.912   7.929  19.989  0.00  0.00    +0.000 NA
ATOM     20  C   UNL     1       2.098   6.785  20.042  0.00  0.00    +0.000 C 
ENDBRANCH   1  20
BRANCH   3  21
ATOM     21  O   UNL     1       1.606   2.437  22.221  0.00  0.00    +0.000 OA
ATOM     22  H   UNL     1       0.739   2.099  21.944  0.00  0.00    +0.000 HD
ENDBRANCH   3  21
TORSDOF 4
ENDMDL
MODEL 5
REMARK VINA RESULT:      -7.1      5.161      6.508
REMARK  Name = 
REMARK  4 active torsions:
REMARK  status: ('A' for Active; 'I' for Inactive)
REMARK    1  A    between atoms: C_2  and  C_3
REMARK    2  A    between atoms: C_5  and  O_6
REMARK    3  A    between atoms: C_10  and  C_11
REMARK    4  A    between atoms: C_14  and  O_15
REMARK                            x       y       z     vdW  Elec       q    Type
REMARK                         _______ _______ _______ _____ _____    ______ ____
ROOT
ATOM      1  C   UNL     1       0.800   9.713  20.897  0.00  0.00    +0.000 A 
ATOM      2  C   UNL     1       0.349  10.844  20.199  0.00  0.00    +0.000 A 
ATOM      3  C   UNL     1       0.540  10.940  18.819  0.00  0.00    +0.000 A 
ATOM      4  C   UNL     1       1.182   9.936  18.090  0.00  0.00    +0.000 A 
ATOM      5  C   UNL     1       1.635   8.808  18.784  0.00  0.00    +0.000 A 
ATOM      6  N   UNL     1       2.290   7.693  18.336  0.00  0.00    +0.000 NA
ATOM      7  C   UNL     1       2.457   6.959  19.423  0.00  0.00    +0.000 A 
ATOM      8  O   UNL     1       1.959   7.530  20.569  0.00  0.00    +0.000 OA
ATOM      9  C   UNL     1       1.432   8.722  20.153  0.00  0.00    +0.000 A 
ENDROOT
BRANCH   7  10
ATOM     10  C   UNL     1       3.092   5.650  19.524  0.00  0.00    +0.000 A 
ATOM     11  C   UNL     1       2.433   4.627  20.232  0.00  0.00    +0.000 A 
ATOM     12  C   UNL     1       3.013   3.362  20.386  0.00  0.00    +0.000 A 
ATOM     13  C   UNL     1       4.262   3.116  19.827  0.00  0.00    +0.000 A 
ATOM     14  C   UNL     1       4.929   4.106  19.118  0.00  0.00    +0.000 A 
ATOM     15  C   UNL     1       4.343   5.362  18.969  0.00  0.00    +0.000 A 
ATOM     16  F   UNL     1       5.027   6.294  18.289  0.00  0.00    +0.000 F 
BRANCH  13  17
ATOM     17  O   UNL     1       4.873   1.906  19.961  0.00  0.00    +0.000 OA
ATOM     18  H   UNL     1       4.196   1.214  20.049  0.00  0.00    +0.000 HD
ENDBRANCH  13  17
ENDBRANCH   7  10
BRANCH   1  20
ATOM     19  N   UNL     1       0.497   9.507  23.455  0.00  0.00    +0.000 NA
ATOM     20  C   UNL     1       0.640   9.564  22.305  0.00  0.00    +0.000 C 
ENDBRANCH   1  20
BRANCH   3  21
ATOM     21  O   UNL     1       0.107  12.029  18.118  0.00  0.00    +0.000 OA
ATOM     22  H   UNL     1      -0.863  12.051  18.105  0.00  0.00    +0.000 HD
ENDBRANCH   3  21
TORSDOF 4
ENDMDL
MODEL 6
REMARK VINA RESULT:      -6.9      4.496      5.673
REMARK  Name = 
REMARK  4 active torsions:
REMARK  status: ('A' for Active; 'I' for Inactive)
REMARK    1  A    between atoms: C_2  and  C_3
REMARK    2  A    between atoms: C_5  and  O_6
REMARK    3  A    between atoms: C_10  and  C_11
REMARK    4  A    between atoms: C_14  and  O_15
REMARK                            x       y       z     vdW  Elec       q    Type
REMARK                         _______ _______ _______ _____ _____    ______ ____
ROOT
ATOM      1  C   UNL     1       2.874   3.773  17.811  0.00  0.00    +0.000 A 
ATOM      2  C   UNL     1       3.934   3.150  17.134  0.00  0.00    +0.000 A 
ATOM      3  C   UNL     1       4.985   3.913  16.620  0.00  0.00    +0.000 A 
ATOM      4  C   UNL     1       5.022   5.303  16.752  0.00  0.00    +0.000 A 
ATOM      5  C   UNL     1       3.965   5.927  17.425  0.00  0.00    +0.000 A 
ATOM      6  N   UNL     1       3.740   7.250  17.692  0.00  0.00    +0.000 NA
ATOM      7  C   UNL     1       2.600   7.254  18.361  0.00  0.00    +0.000 A 
ATOM      8  O   UNL     1       2.050   6.009  18.542  0.00  0.00    +0.000 OA
ATOM      9  C   UNL     1       2.932   5.157  17.936  0.00  0.00    +0.000 A 
ENDROOT
BRANCH   7  10
ATOM     10  C   UNL     1       1.893   8.407  18.907  0.00  0.00    +0.000 A 
ATOM     11  C   UNL     1       1.693   9.535  18.087  0.00  0.00    +0.000 A 
ATOM     12  C   UNL     1       1.048  10.678  18.572  0.00  0.00    +0.000 A 
ATOM     13  C   UNL     1       0.598  10.698  19.887  0.00  0.00    +0.000 A 
ATOM     14  C   UNL     1       0.777   9.597  20.714  0.00  0.00    +0.000 A 
ATOM     15  C   UNL     1       1.419   8.461  20.222  0.00  0.00    +0.000 A 
ATOM     16  F   UNL     1       1.583   7.425  21.057  0.00  0.00    +0.000 F 
BRANCH  13  17
ATOM     17  O   UNL     1      -0.023  11.793  20.408  0.00  0.00    +0.000 OA
ATOM     18  H   UNL     1      -0.985  11.672  20.349  0.00  0.00    +0.000 HD
ENDBRANCH  13  17
ENDBRANCH   7  10
BRANCH   1  20
ATOM     19  N   UNL     1       0.835   2.499  18.758  0.00  0.00    +0.000 NA
ATOM     20  C   UNL     1       1.772   3.046  18.348  0.00  0.00    +0.000 C 
ENDBRANCH   1  20
BRANCH   3  21
ATOM     21  O   UNL     1       6.027   3.329  15.961  0.00  0.00    +0.000 OA
ATOM     22  H   UNL     1       6.520   3.998  15.459  0.00  0.00    +0.000 HD
ENDBRANCH   3  21
TORSDOF 4
ENDMDL
MODEL 7
REMARK VINA RESULT:      -6.9      4.122      5.041
REMARK  Name = 
REMARK  4 active torsions:
REMARK  status: ('A' for Active; 'I' for Inactive)
REMARK    1  A    between atoms: C_2  and  C_3
REMARK    2  A    between atoms: C_5  and  O_6
REMARK    3  A    between atoms: C_10  and  C_11
REMARK    4  A    between atoms: C_14  and  O_15
REMARK                            x       y       z     vdW  Elec       q    Type
REMARK                         _______ _______ _______ _____ _____    ______ ____
ROOT
ATOM      1  C   UNL     1       4.178   3.902  17.141  0.00  0.00    +0.000 A 
ATOM      2  C   UNL     1       5.234   3.695  16.240  0.00  0.00    +0.000 A 
ATOM      3  C   UNL     1       5.932   4.784  15.713  0.00  0.00    +0.000 A 
ATOM      4  C   UNL     1       5.609   6.101  16.049  0.00  0.00    +0.000 A 
ATOM      5  C   UNL     1       4.554   6.310  16.945  0.00  0.00    +0.000 A 
ATOM      6  N   UNL     1       4.025   7.472  17.438  0.00  0.00    +0.000 NA
ATOM      7  C   UNL     1       3.060   7.068  18.247  0.00  0.00    +0.000 A 
ATOM      8  O   UNL     1       2.912   5.704  18.308  0.00  0.00    +0.000 OA
ATOM      9  C   UNL     1       3.875   5.220  17.466  0.00  0.00    +0.000 A 
ENDROOT
BRANCH   7  10
ATOM     10  C   UNL     1       2.170   7.896  19.053  0.00  0.00    +0.000 A 
ATOM     11  C   UNL     1       1.894   7.508  20.378  0.00  0.00    +0.000 A 
ATOM     12  C   UNL     1       1.022   8.250  21.184  0.00  0.00    +0.000 A 
ATOM     13  C   UNL     1       0.421   9.390  20.663  0.00  0.00    +0.000 A 
ATOM     14  C   UNL     1       0.683   9.798  19.362  0.00  0.00    +0.000 A 
ATOM     15  C   UNL     1       1.554   9.054  18.567  0.00  0.00    +0.000 A 
ATOM     16  F   UNL     1       1.768   9.475  17.312  0.00  0.00    +0.000 F 
BRANCH  13  17
ATOM     17  O   UNL     1      -0.444  10.137  21.404  0.00  0.00    +0.000 OA
ATOM     18  H   UNL     1      -0.346   9.903  22.342  0.00  0.00    +0.000 HD
ENDBRANCH  13  17
ENDBRANCH   7  10
BRANCH   1  20
ATOM     19  N   UNL     1       2.793   1.998  18.208  0.00  0.00    +0.000 NA
ATOM     20  C   UNL     1       3.426   2.830  17.703  0.00  0.00    +0.000 C 
ENDBRANCH   1  20
BRANCH   3  21
ATOM     21  O   UNL     1       6.964   4.607  14.838  0.00  0.00    +0.000 OA
ATOM     22  H   UNL     1       7.149   3.660  14.730  0.00  0.00    +0.000 HD
ENDBRANCH   3  21
TORSDOF 4
ENDMDL
MODEL 8
REMARK VINA RESULT:      -6.9      4.496      5.649
REMARK  Name = 
REMARK  4 active torsions:
REMARK  status: ('A' for Active; 'I' for Inactive)
REMARK    1  A    between atoms: C_2  and  C_3
REMARK    2  A    between atoms: C_5  and  O_6
REMARK    3  A    between atoms: C_10  and  C_11
REMARK    4  A    between atoms: C_14  and  O_15
REMARK                            x       y       z     vdW  Elec       q    Type
REMARK                         _______ _______ _______ _____ _____    ______ ____
ROOT
ATOM      1  C   UNL     1       2.926   3.614  17.833  0.00  0.00    +0.000 A 
ATOM      2  C   UNL     1       3.973   3.073  17.071  0.00  0.00    +0.000 A 
ATOM      3  C   UNL     1       4.984   3.901  16.578  0.00  0.00    +0.000 A 
ATOM      4  C   UNL     1       4.991   5.278  16.813  0.00  0.00    +0.000 A 
ATOM      5  C   UNL     1       3.947   5.820  17.571  0.00  0.00    +0.000 A 
ATOM      6  N   UNL     1       3.700   7.113  17.946  0.00  0.00    +0.000 NA
ATOM      7  C   UNL     1       2.588   7.036  18.656  0.00  0.00    +0.000 A 
ATOM      8  O   UNL     1       2.076   5.765  18.763  0.00  0.00    +0.000 OA
ATOM      9  C   UNL     1       2.954   4.986  18.061  0.00  0.00    +0.000 A 
ENDROOT
BRANCH   7  10
ATOM     10  C   UNL     1       1.875   8.124  19.315  0.00  0.00    +0.000 A 
ATOM     11  C   UNL     1       1.559   8.002  20.682  0.00  0.00    +0.000 A 
ATOM     12  C   UNL     1       0.849   9.004  21.354  0.00  0.00    +0.000 A 
ATOM     13  C   UNL     1       0.451  10.138  20.657  0.00  0.00    +0.000 A 
ATOM     14  C   UNL     1       0.756  10.286  19.311  0.00  0.00    +0.000 A 
ATOM     15  C   UNL     1       1.465   9.284  18.649  0.00  0.00    +0.000 A 
ATOM     16  F   UNL     1       1.727   9.460  17.346  0.00  0.00    +0.000 F 
BRANCH  13  17
ATOM     17  O   UNL     1      -0.253  11.133  21.264  0.00  0.00    +0.000 OA
ATOM     18  H   UNL     1       0.166  11.349  22.113  0.00  0.00    +0.000 HD
ENDBRANCH  13  17
ENDBRANCH   7  10
BRANCH   1  20
ATOM     19  N   UNL     1       0.961   2.198  18.733  0.00  0.00    +0.000 NA
ATOM     20  C   UNL     1       1.864   2.819  18.355  0.00  0.00    +0.000 C 
ENDBRANCH   1  20
BRANCH   3  21
ATOM     21  O   UNL     1       6.013   3.397  15.837  0.00  0.00    +0.000 OA
ATOM     22  H   UNL     1       6.362   4.082  15.244  0.00  0.00    +0.000 HD
ENDBRANCH   3  21
TORSDOF 4
ENDMDL
MODEL 9
REMARK VINA RESULT:      -6.9      4.256      5.199
REMARK  Name = 
REMARK  4 active torsions:
REMARK  status: ('A' for Active; 'I' for Inactive)
REMARK    1  A    between atoms: C_2  and  C_3
REMARK    2  A    between atoms: C_5  and  O_6
REMARK    3  A    between atoms: C_10  and  C_11
REMARK    4  A    between atoms: C_14  and  O_15
REMARK                            x       y       z     vdW  Elec       q    Type
REMARK                         _______ _______ _______ _____ _____    ______ ____
ROOT
ATOM      1  C   UNL     1       3.968   4.144  17.094  0.00  0.00    +0.000 A 
ATOM      2  C   UNL     1       5.194   3.849  16.479  0.00  0.00    +0.000 A 
ATOM      3  C   UNL     1       6.114   4.867  16.219  0.00  0.00    +0.000 A 
ATOM      4  C   UNL     1       5.853   6.200  16.547  0.00  0.00    +0.000 A 
ATOM      5  C   UNL     1       4.629   6.498  17.158  0.00  0.00    +0.000 A 
ATOM      6  N   UNL     1       4.113   7.694  17.577  0.00  0.00    +0.000 NA
ATOM      7  C   UNL     1       2.935   7.376  18.086  0.00  0.00    +0.000 A 
ATOM      8  O   UNL     1       2.636   6.038  18.018  0.00  0.00    +0.000 OA
ATOM      9  C   UNL     1       3.729   5.476  17.418  0.00  0.00    +0.000 A 
ENDROOT
BRANCH   7  10
ATOM     10  C   UNL     1       1.957   8.272  18.692  0.00  0.00    +0.000 A 
ATOM     11  C   UNL     1       1.390   9.294  17.906  0.00  0.00    +0.000 A 
ATOM     12  C   UNL     1       0.471  10.200  18.447  0.00  0.00    +0.000 A 
ATOM     13  C   UNL     1       0.112  10.085  19.785  0.00  0.00    +0.000 A 
ATOM     14  C   UNL     1       0.651   9.082  20.580  0.00  0.00    +0.000 A 
ATOM     15  C   UNL     1       1.565   8.183  20.032  0.00  0.00    +0.000 A 
ATOM     16  F   UNL     1       2.072   7.239  20.837  0.00  0.00    +0.000 F 
BRANCH  13  17
ATOM     17  O   UNL     1      -0.769  10.950  20.360  0.00  0.00    +0.000 OA
ATOM     18  H   UNL     1      -0.594  11.849  20.033  0.00  0.00    +0.000 HD
ENDBRANCH  13  17
ENDBRANCH   7  10
BRANCH   1  20
ATOM     19  N   UNL     1       2.208   2.307  17.549  0.00  0.00    +0.000 NA
ATOM     20  C   UNL     1       2.989   3.147  17.376  0.00  0.00    +0.000 C 
ENDBRANCH   1  20
BRANCH   3  21
ATOM     21  O   UNL     1       7.313   4.603  15.624  0.00  0.00    +0.000 OA
ATOM     22  H   UNL     1       7.701   3.797  16.001  0.00  0.00    +0.000 HD
ENDBRANCH   3  21
TORSDOF 4
ENDMDL
