MODEL 1
REMARK VINA RESULT:      -7.2      0.000      0.000
REMARK  Name = 
REMARK  4 active torsions:
REMARK  status: ('A' for Active; 'I' for Inactive)
REMARK    1  A    between atoms: C_2  and  C_18
REMARK    2  A    between atoms: N_3  and  N_4
REMARK    3  A    between atoms: N_7  and  C_8
REMARK    4  A    between atoms: C_8  and  C_9
REMARK                            x       y       z     vdW  Elec       q    Type
REMARK                         _______ _______ _______ _____ _____    ______ ____
ROOT
ATOM      1  N   UNL     1       0.036  10.926  22.620  0.00  0.00    +0.000 NA
ATOM      2  C   UNL     1       0.362   9.585  23.164  0.00  0.00    +0.000 C 
ATOM      3  C   UNL     1      -0.190   8.456  22.274  0.00  0.00    +0.000 C 
ATOM      4  N   UNL     1       0.315   8.551  20.886  0.00  0.00    +0.000 NA
ATOM      5  C   UNL     1       0.018   9.887  20.330  0.00  0.00    +0.000 C 
ATOM      6  C   UNL     1       0.555  11.027  21.236  0.00  0.00    +0.000 C 
ENDROOT
BRANCH   1   9
ATOM      7  O   UNL     1      -1.186  13.184  23.572  0.00  0.00    +0.000 OA
ATOM      8  C   UNL     1      -1.909  12.304  23.127  0.00  0.00    +0.000 C 
ATOM      9  N   UNL     1      -1.354  11.164  22.623  0.00  0.00    +0.000 N 
ATOM     10  H   UNL     1      -1.975  10.464  22.209  0.00  0.00    +0.000 HD
BRANCH   8  11
ATOM     11  C   UNL     1      -3.396  12.512  23.169  0.00  0.00    +0.000 A 
ATOM     12  C   UNL     1      -4.082  12.778  21.966  0.00  0.00    +0.000 A 
ATOM     13  C   UNL     1      -5.461  13.002  21.960  0.00  0.00    +0.000 A 
ATOM     14  C   UNL     1      -6.185  12.962  23.151  0.00  0.00    +0.000 A 
ATOM     15 CL   UNL     1      -7.915  13.250  23.140  0.00  0.00    +0.000 Cl
ATOM     16  C   UNL     1      -5.528  12.695  24.353  0.00  0.00    +0.000 A 
ATOM     17  C   UNL     1      -4.150  12.474  24.368  0.00  0.00    +0.000 A 
ENDBRANCH   8  11
ENDBRANCH   1   9
BRANCH   4  18
ATOM     18  C   UNL     1       1.743   8.195  20.739  0.00  0.00    +0.000 C 
BRANCH  18  19
ATOM     19  C   UNL     1       1.914   6.886  19.999  0.00  0.00    +0.000 A 
ATOM     20  C   UNL     1       1.629   5.689  20.679  0.00  0.00    +0.000 A 
ATOM     21  C   UNL     1       1.763   4.458  20.034  0.00  0.00    +0.000 A 
ATOM     22  C   UNL     1       2.184   4.407  18.704  0.00  0.00    +0.000 A 
ATOM     23  C   UNL     1       2.476   5.587  18.017  0.00  0.00    +0.000 A 
ATOM     24  C   UNL     1       2.344   6.828  18.652  0.00  0.00    +0.000 A 
ATOM     25 CL   UNL     1       2.735   8.269  17.717  0.00  0.00    +0.000 Cl
ENDBRANCH  18  19
ENDBRANCH   4  18
TORSDOF 4
ENDMDL
MODEL 2
REMARK VINA RESULT:      -6.9      8.030     10.273
REMARK  Name = 
REMARK  4 active torsions:
REMARK  status: ('A' for Active; 'I' for Inactive)
REMARK    1  A    between atoms: C_2  and  C_18
REMARK    2  A    between atoms: N_3  and  N_4
REMARK    3  A    between atoms: N_7  and  C_8
REMARK    4  A    between atoms: C_8  and  C_9
REMARK                            x       y       z     vdW  Elec       q    Type
REMARK                         _______ _______ _______ _____ _____    ______ ____
ROOT
ATOM      1  N   UNL     1       7.048   6.064  16.904  0.00  0.00    +0.000 NA
ATOM      2  C   UNL     1       6.584   5.443  18.169  0.00  0.00    +0.000 C 
ATOM      3  C   UNL     1       5.268   6.068  18.665  0.00  0.00    +0.000 C 
ATOM      4  N   UNL     1       4.193   5.965  17.653  0.00  0.00    +0.000 NA
ATOM      5  C   UNL     1       4.639   6.561  16.377  0.00  0.00    +0.000 C 
ATOM      6  C   UNL     1       5.978   5.946  15.886  0.00  0.00    +0.000 C 
ENDROOT
BRANCH   1   9
ATOM      7  O   UNL     1       8.612   7.058  18.920  0.00  0.00    +0.000 OA
ATOM      8  C   UNL     1       8.156   7.863  18.119  0.00  0.00    +0.000 C 
ATOM      9  N   UNL     1       7.384   7.421  17.084  0.00  0.00    +0.000 N 
ATOM     10  H   UNL     1       7.056   8.105  16.397  0.00  0.00    +0.000 HD
BRANCH   8  11
ATOM     11  C   UNL     1       8.456   9.320  18.321  0.00  0.00    +0.000 A 
ATOM     12  C   UNL     1       7.886  10.263  17.441  0.00  0.00    +0.000 A 
ATOM     13  C   UNL     1       8.156  11.627  17.575  0.00  0.00    +0.000 A 
ATOM     14  C   UNL     1       8.998  12.080  18.592  0.00  0.00    +0.000 A 
ATOM     15 CL   UNL     1       9.340  13.792  18.753  0.00  0.00    +0.000 Cl
ATOM     16  C   UNL     1       9.569  11.166  19.477  0.00  0.00    +0.000 A 
ATOM     17  C   UNL     1       9.307   9.800  19.347  0.00  0.00    +0.000 A 
ENDBRANCH   8  11
ENDBRANCH   1   9
BRANCH   4  18
ATOM     18  C   UNL     1       3.667   4.595  17.470  0.00  0.00    +0.000 C 
BRANCH  18  19
ATOM     19  C   UNL     1       2.815   4.167  18.645  0.00  0.00    +0.000 A 
ATOM     20  C   UNL     1       2.118   5.154  19.363  0.00  0.00    +0.000 A 
ATOM     21  C   UNL     1       1.312   4.805  20.449  0.00  0.00    +0.000 A 
ATOM     22  C   UNL     1       1.193   3.468  20.831  0.00  0.00    +0.000 A 
ATOM     23  C   UNL     1       1.883   2.477  20.130  0.00  0.00    +0.000 A 
ATOM     24  C   UNL     1       2.693   2.812  19.039  0.00  0.00    +0.000 A 
ATOM     25 CL   UNL     1       3.533   1.504  18.211  0.00  0.00    +0.000 Cl
ENDBRANCH  18  19
ENDBRANCH   4  18
TORSDOF 4
ENDMDL
MODEL 3
REMARK VINA RESULT:      -6.7      8.321     10.219
REMARK  Name = 
REMARK  4 active torsions:
REMARK  status: ('A' for Active; 'I' for Inactive)
REMARK    1  A    between atoms: C_2  and  C_18
REMARK    2  A    between atoms: N_3  and  N_4
REMARK    3  A    between atoms: N_7  and  C_8
REMARK    4  A    between atoms: C_8  and  C_9
REMARK                            x       y       z     vdW  Elec       q    Type
REMARK                         _______ _______ _______ _____ _____    ______ ____
ROOT
ATOM      1  N   UNL     1       6.121   6.620  17.112  0.00  0.00    +0.000 NA
ATOM      2  C   UNL     1       6.785   5.395  17.622  0.00  0.00    +0.000 C 
ATOM      3  C   UNL     1       6.483   5.157  19.112  0.00  0.00    +0.000 C 
ATOM      4  N   UNL     1       5.029   5.063  19.371  0.00  0.00    +0.000 NA
ATOM      5  C   UNL     1       4.343   6.265  18.855  0.00  0.00    +0.000 C 
ATOM      6  C   UNL     1       4.664   6.518  17.357  0.00  0.00    +0.000 C 
ENDROOT
BRANCH   1   9
ATOM      7  O   UNL     1       8.540   7.784  16.571  0.00  0.00    +0.000 OA
ATOM      8  C   UNL     1       7.848   8.309  17.433  0.00  0.00    +0.000 C 
ATOM      9  N   UNL     1       6.626   7.781  17.732  0.00  0.00    +0.000 N 
ATOM     10  H   UNL     1       6.043   8.265  18.419  0.00  0.00    +0.000 HD
BRANCH   8  11
ATOM     11  C   UNL     1       8.388   9.516  18.146  0.00  0.00    +0.000 A 
ATOM     12  C   UNL     1       8.264  10.780  17.535  0.00  0.00    +0.000 A 
ATOM     13  C   UNL     1       8.773  11.928  18.149  0.00  0.00    +0.000 A 
ATOM     14  C   UNL     1       9.412  11.839  19.386  0.00  0.00    +0.000 A 
ATOM     15 CL   UNL     1      10.054  13.280  20.151  0.00  0.00    +0.000 Cl
ATOM     16  C   UNL     1       9.541  10.598  20.011  0.00  0.00    +0.000 A 
ATOM     17  C   UNL     1       9.039   9.446  19.402  0.00  0.00    +0.000 A 
ENDBRANCH   8  11
ENDBRANCH   1   9
BRANCH   4  18
ATOM     18  C   UNL     1       4.408   3.815  18.876  0.00  0.00    +0.000 C 
BRANCH  18  19
ATOM     19  C   UNL     1       3.180   3.450  19.679  0.00  0.00    +0.000 A 
ATOM     20  C   UNL     1       3.354   2.879  20.951  0.00  0.00    +0.000 A 
ATOM     21  C   UNL     1       2.249   2.535  21.733  0.00  0.00    +0.000 A 
ATOM     22  C   UNL     1       0.957   2.756  21.253  0.00  0.00    +0.000 A 
ATOM     23  C   UNL     1       0.767   3.317  19.989  0.00  0.00    +0.000 A 
ATOM     24  C   UNL     1       1.867   3.669  19.196  0.00  0.00    +0.000 A 
ATOM     25 CL   UNL     1       1.541   4.368  17.612  0.00  0.00    +0.000 Cl
ENDBRANCH  18  19
ENDBRANCH   4  18
TORSDOF 4
ENDMDL
MODEL 4
REMARK VINA RESULT:      -6.7      0.582      1.160
REMARK  Name = 
REMARK  4 active torsions:
REMARK  status: ('A' for Active; 'I' for Inactive)
REMARK    1  A    between atoms: C_2  and  C_18
REMARK    2  A    between atoms: N_3  and  N_4
REMARK    3  A    between atoms: N_7  and  C_8
REMARK    4  A    between atoms: C_8  and  C_9
REMARK                            x       y       z     vdW  Elec       q    Type
REMARK                         _______ _______ _______ _____ _____    ______ ____
ROOT
ATOM      1  N   UNL     1       0.193  11.105  22.089  0.00  0.00    +0.000 NA
ATOM      2  C   UNL     1       0.294   9.807  22.800  0.00  0.00    +0.000 C 
ATOM      3  C   UNL     1      -0.259   8.646  21.954  0.00  0.00    +0.000 C 
ATOM      4  N   UNL     1       0.432   8.538  20.649  0.00  0.00    +0.000 NA
ATOM      5  C   UNL     1       0.360   9.827  19.930  0.00  0.00    +0.000 C 
ATOM      6  C   UNL     1       0.898  11.002  20.790  0.00  0.00    +0.000 C 
ENDROOT
BRANCH   1   9
ATOM      7  O   UNL     1      -1.254  12.821  23.658  0.00  0.00    +0.000 OA
ATOM      8  C   UNL     1      -1.827  12.324  22.698  0.00  0.00    +0.000 C 
ATOM      9  N   UNL     1      -1.150  11.476  21.872  0.00  0.00    +0.000 N 
ATOM     10  H   UNL     1      -1.634  11.113  21.047  0.00  0.00    +0.000 HD
BRANCH   8  11
ATOM     11  C   UNL     1      -3.274  12.662  22.477  0.00  0.00    +0.000 A 
ATOM     12  C   UNL     1      -4.123  12.792  23.595  0.00  0.00    +0.000 A 
ATOM     13  C   UNL     1      -5.481  13.082  23.437  0.00  0.00    +0.000 A 
ATOM     14  C   UNL     1      -6.019  13.251  22.161  0.00  0.00    +0.000 A 
ATOM     15 CL   UNL     1      -7.724  13.608  21.965  0.00  0.00    +0.000 Cl
ATOM     16  C   UNL     1      -5.196  13.132  21.040  0.00  0.00    +0.000 A 
ATOM     17  C   UNL     1      -3.839  12.839  21.190  0.00  0.00    +0.000 A 
ENDBRANCH   8  11
ENDBRANCH   1   9
BRANCH   4  18
ATOM     18  C   UNL     1       1.818   8.031  20.740  0.00  0.00    +0.000 C 
BRANCH  18  19
ATOM     19  C   UNL     1       1.975   6.713  20.015  0.00  0.00    +0.000 A 
ATOM     20  C   UNL     1       1.652   5.528  20.700  0.00  0.00    +0.000 A 
ATOM     21  C   UNL     1       1.772   4.288  20.068  0.00  0.00    +0.000 A 
ATOM     22  C   UNL     1       2.216   4.217  18.747  0.00  0.00    +0.000 A 
ATOM     23  C   UNL     1       2.545   5.384  18.055  0.00  0.00    +0.000 A 
ATOM     24  C   UNL     1       2.428   6.634  18.676  0.00  0.00    +0.000 A 
ATOM     25 CL   UNL     1       2.867   8.057  17.737  0.00  0.00    +0.000 Cl
ENDBRANCH  18  19
ENDBRANCH   4  18
TORSDOF 4
ENDMDL
MODEL 5
REMARK VINA RESULT:      -6.7      5.364      8.299
REMARK  Name = 
REMARK  4 active torsions:
REMARK  status: ('A' for Active; 'I' for Inactive)
REMARK    1  A    between atoms: C_2  and  C_18
REMARK    2  A    between atoms: N_3  and  N_4
REMARK    3  A    between atoms: N_7  and  C_8
REMARK    4  A    between atoms: C_8  and  C_9
REMARK                            x       y       z     vdW  Elec       q    Type
REMARK                         _______ _______ _______ _____ _____    ______ ____
ROOT
ATOM      1  N   UNL     1       4.990   5.278  18.492  0.00  0.00    +0.000 NA
ATOM      2  C   UNL     1       4.620   4.693  17.180  0.00  0.00    +0.000 C 
ATOM      3  C   UNL     1       4.906   5.663  16.019  0.00  0.00    +0.000 C 
ATOM      4  N   UNL     1       6.328   6.072  15.982  0.00  0.00    +0.000 NA
ATOM      5  C   UNL     1       6.725   6.642  17.285  0.00  0.00    +0.000 C 
ATOM      6  C   UNL     1       6.418   5.674  18.460  0.00  0.00    +0.000 C 
ENDROOT
BRANCH   1   9
ATOM      7  O   UNL     1       2.503   5.191  19.633  0.00  0.00    +0.000 OA
ATOM      8  C   UNL     1       2.952   6.295  19.359  0.00  0.00    +0.000 C 
ATOM      9  N   UNL     1       4.194   6.399  18.805  0.00  0.00    +0.000 N 
ATOM     10  H   UNL     1       4.571   7.335  18.632  0.00  0.00    +0.000 HD
BRANCH   8  11
ATOM     11  C   UNL     1       2.101   7.501  19.633  0.00  0.00    +0.000 A 
ATOM     12  C   UNL     1       1.920   8.456  18.613  0.00  0.00    +0.000 A 
ATOM     13  C   UNL     1       1.156   9.606  18.830  0.00  0.00    +0.000 A 
ATOM     14  C   UNL     1       0.554   9.825  20.069  0.00  0.00    +0.000 A 
ATOM     15 CL   UNL     1      -0.398  11.272  20.341  0.00  0.00    +0.000 Cl
ATOM     16  C   UNL     1       0.715   8.891  21.093  0.00  0.00    +0.000 A 
ATOM     17  C   UNL     1       1.480   7.742  20.885  0.00  0.00    +0.000 A 
ENDBRANCH   8  11
ENDBRANCH   1   9
BRANCH   4  18
ATOM     18  C   UNL     1       7.251   5.005  15.538  0.00  0.00    +0.000 C 
BRANCH  18  19
ATOM     19  C   UNL     1       6.921   4.533  14.140  0.00  0.00    +0.000 A 
ATOM     20  C   UNL     1       5.843   3.648  13.968  0.00  0.00    +0.000 A 
ATOM     21  C   UNL     1       5.495   3.192  12.694  0.00  0.00    +0.000 A 
ATOM     22  C   UNL     1       6.220   3.613  11.579  0.00  0.00    +0.000 A 
ATOM     23  C   UNL     1       7.297   4.488  11.734  0.00  0.00    +0.000 A 
ATOM     24  C   UNL     1       7.655   4.954  13.005  0.00  0.00    +0.000 A 
ATOM     25 CL   UNL     1       9.028   6.052  13.115  0.00  0.00    +0.000 Cl
ENDBRANCH  18  19
ENDBRANCH   4  18
TORSDOF 4
ENDMDL
MODEL 6
REMARK VINA RESULT:      -6.5      2.742      9.090
REMARK  Name = 
REMARK  4 active torsions:
REMARK  status: ('A' for Active; 'I' for Inactive)
REMARK    1  A    between atoms: C_2  and  C_18
REMARK    2  A    between atoms: N_3  and  N_4
REMARK    3  A    between atoms: N_7  and  C_8
REMARK    4  A    between atoms: C_8  and  C_9
REMARK                            x       y       z     vdW  Elec       q    Type
REMARK                         _______ _______ _______ _____ _____    ______ ____
ROOT
ATOM      1  N   UNL     1       0.919  10.574  18.758  0.00  0.00    +0.000 NA
ATOM      2  C   UNL     1      -0.556  10.495  18.615  0.00  0.00    +0.000 C 
ATOM      3  C   UNL     1      -1.244  10.156  19.950  0.00  0.00    +0.000 C 
ATOM      4  N   UNL     1      -0.912  11.140  21.005  0.00  0.00    +0.000 NA
ATOM      5  C   UNL     1       0.554  11.250  21.153  0.00  0.00    +0.000 C 
ATOM      6  C   UNL     1       1.251  11.570  19.803  0.00  0.00    +0.000 C 
ENDROOT
BRANCH   1   9
ATOM      7  O   UNL     1       2.375   8.973  17.080  0.00  0.00    +0.000 OA
ATOM      8  C   UNL     1       2.180   8.561  18.215  0.00  0.00    +0.000 C 
ATOM      9  N   UNL     1       1.476   9.325  19.099  0.00  0.00    +0.000 N 
ATOM     10  H   UNL     1       1.369   8.983  20.058  0.00  0.00    +0.000 HD
BRANCH   8  11
ATOM     11  C   UNL     1       2.718   7.208  18.586  0.00  0.00    +0.000 A 
ATOM     12  C   UNL     1       3.631   6.575  17.719  0.00  0.00    +0.000 A 
ATOM     13  C   UNL     1       4.139   5.307  18.010  0.00  0.00    +0.000 A 
ATOM     14  C   UNL     1       3.750   4.645  19.175  0.00  0.00    +0.000 A 
ATOM     15 CL   UNL     1       4.384   3.051  19.535  0.00  0.00    +0.000 Cl
ATOM     16  C   UNL     1       2.852   5.255  20.051  0.00  0.00    +0.000 A 
ATOM     17  C   UNL     1       2.336   6.521  19.765  0.00  0.00    +0.000 A 
ENDBRANCH   8  11
ENDBRANCH   1   9
BRANCH   4  18
ATOM     18  C   UNL     1      -1.551  12.461  20.820  0.00  0.00    +0.000 C 
BRANCH  18  19
ATOM     19  C   UNL     1      -2.737  12.637  21.742  0.00  0.00    +0.000 A 
ATOM     20  C   UNL     1      -2.505  12.731  23.124  0.00  0.00    +0.000 A 
ATOM     21  C   UNL     1      -3.568  12.904  24.013  0.00  0.00    +0.000 A 
ATOM     22  C   UNL     1      -4.876  12.982  23.531  0.00  0.00    +0.000 A 
ATOM     23  C   UNL     1      -5.124  12.885  22.161  0.00  0.00    +0.000 A 
ATOM     24  C   UNL     1      -4.066  12.714  21.259  0.00  0.00    +0.000 A 
ATOM     25 CL   UNL     1      -4.463  12.597  19.547  0.00  0.00    +0.000 Cl
ENDBRANCH  18  19
ENDBRANCH   4  18
TORSDOF 4
ENDMDL
MODEL 7
REMARK VINA RESULT:      -6.4      2.979      9.116
REMARK  Name = 
REMARK  4 active torsions:
REMARK  status: ('A' for Active; 'I' for Inactive)
REMARK    1  A    between atoms: C_2  and  C_18
REMARK    2  A    between atoms: N_3  and  N_4
REMARK    3  A    between atoms: N_7  and  C_8
REMARK    4  A    between atoms: C_8  and  C_9
REMARK                            x       y       z     vdW  Elec       q    Type
REMARK                         _______ _______ _______ _____ _____    ______ ____
ROOT
ATOM      1  N   UNL     1       1.022  10.443  18.576  0.00  0.00    +0.000 NA
ATOM      2  C   UNL     1      -0.431  10.444  18.275  0.00  0.00    +0.000 C 
ATOM      3  C   UNL     1      -1.277  10.192  19.536  0.00  0.00    +0.000 C 
ATOM      4  N   UNL     1      -1.001  11.190  20.594  0.00  0.00    +0.000 NA
ATOM      5  C   UNL     1       0.444  11.219  20.898  0.00  0.00    +0.000 C 
ATOM      6  C   UNL     1       1.301  11.453  19.624  0.00  0.00    +0.000 C 
ENDROOT
BRANCH   1   9
ATOM      7  O   UNL     1       2.591   8.726  17.132  0.00  0.00    +0.000 OA
ATOM      8  C   UNL     1       2.230   8.353  18.239  0.00  0.00    +0.000 C 
ATOM      9  N   UNL     1       1.461   9.175  19.011  0.00  0.00    +0.000 N 
ATOM     10  H   UNL     1       1.214   8.865  19.954  0.00  0.00    +0.000 HD
BRANCH   8  11
ATOM     11  C   UNL     1       2.641   6.985  18.703  0.00  0.00    +0.000 A 
ATOM     12  C   UNL     1       3.488   6.212  17.882  0.00  0.00    +0.000 A 
ATOM     13  C   UNL     1       3.877   4.925  18.261  0.00  0.00    +0.000 A 
ATOM     14  C   UNL     1       3.433   4.383  19.467  0.00  0.00    +0.000 A 
ATOM     15 CL   UNL     1       3.917   2.764  19.936  0.00  0.00    +0.000 Cl
ATOM     16  C   UNL     1       2.598   5.131  20.297  0.00  0.00    +0.000 A 
ATOM     17  C   UNL     1       2.202   6.417  19.924  0.00  0.00    +0.000 A 
ENDBRANCH   8  11
ENDBRANCH   1   9
BRANCH   4  18
ATOM     18  C   UNL     1      -1.534  12.539  20.304  0.00  0.00    +0.000 C 
BRANCH  18  19
ATOM     19  C   UNL     1      -2.837  12.787  21.031  0.00  0.00    +0.000 A 
ATOM     20  C   UNL     1      -4.039  12.679  20.311  0.00  0.00    +0.000 A 
ATOM     21  C   UNL     1      -5.266  12.890  20.943  0.00  0.00    +0.000 A 
ATOM     22  C   UNL     1      -5.308  13.214  22.300  0.00  0.00    +0.000 A 
ATOM     23  C   UNL     1      -4.123  13.331  23.027  0.00  0.00    +0.000 A 
ATOM     24  C   UNL     1      -2.885  13.119  22.407  0.00  0.00    +0.000 A 
ATOM     25 CL   UNL     1      -1.436  13.289  23.394  0.00  0.00    +0.000 Cl
ENDBRANCH  18  19
ENDBRANCH   4  18
TORSDOF 4
ENDMDL
MODEL 8
REMARK VINA RESULT:      -6.4      3.026      9.164
REMARK  Name = 
REMARK  4 active torsions:
REMARK  status: ('A' for Active; 'I' for Inactive)
REMARK    1  A    between atoms: C_2  and  C_18
REMARK    2  A    between atoms: N_3  and  N_4
REMARK    3  A    between atoms: N_7  and  C_8
REMARK    4  A    between atoms: C_8  and  C_9
REMARK                            x       y       z     vdW  Elec       q    Type
REMARK                         _______ _______ _______ _____ _____    ______ ____
ROOT
ATOM      1  N   UNL     1       1.046  10.251  18.393  0.00  0.00    +0.000 NA
ATOM      2  C   UNL     1      -0.424  10.282  18.190  0.00  0.00    +0.000 C 
ATOM      3  C   UNL     1      -1.189  10.074  19.509  0.00  0.00    +0.000 C 
ATOM      4  N   UNL     1      -0.820  11.084  20.525  0.00  0.00    +0.000 NA
ATOM      5  C   UNL     1       0.643  11.085  20.731  0.00  0.00    +0.000 C 
ATOM      6  C   UNL     1       1.417  11.274  19.398  0.00  0.00    +0.000 C 
ENDROOT
BRANCH   1   9
ATOM      7  O   UNL     1       2.757   8.614  17.019  0.00  0.00    +0.000 OA
ATOM      8  C   UNL     1       2.327   8.201  18.087  0.00  0.00    +0.000 C 
ATOM      9  N   UNL     1       1.485   8.982  18.823  0.00  0.00    +0.000 N 
ATOM     10  H   UNL     1       1.178   8.639  19.736  0.00  0.00    +0.000 HD
BRANCH   8  11
ATOM     11  C   UNL     1       2.738   6.829  18.540  0.00  0.00    +0.000 A 
ATOM     12  C   UNL     1       2.291   6.362  19.793  0.00  0.00    +0.000 A 
ATOM     13  C   UNL     1       2.668   5.103  20.267  0.00  0.00    +0.000 A 
ATOM     14  C   UNL     1       3.495   4.282  19.500  0.00  0.00    +0.000 A 
ATOM     15 CL   UNL     1       3.972   2.705  20.101  0.00  0.00    +0.000 Cl
ATOM     16  C   UNL     1       3.946   4.722  18.255  0.00  0.00    +0.000 A 
ATOM     17  C   UNL     1       3.577   5.981  17.776  0.00  0.00    +0.000 A 
ENDBRANCH   8  11
ENDBRANCH   1   9
BRANCH   4  18
ATOM     18  C   UNL     1      -1.340  12.440  20.244  0.00  0.00    +0.000 C 
BRANCH  18  19
ATOM     19  C   UNL     1      -2.715  12.641  20.842  0.00  0.00    +0.000 A 
ATOM     20  C   UNL     1      -3.831  12.593  19.990  0.00  0.00    +0.000 A 
ATOM     21  C   UNL     1      -5.121  12.763  20.498  0.00  0.00    +0.000 A 
ATOM     22  C   UNL     1      -5.311  12.984  21.863  0.00  0.00    +0.000 A 
ATOM     23  C   UNL     1      -4.212  13.039  22.722  0.00  0.00    +0.000 A 
ATOM     24  C   UNL     1      -2.913  12.868  22.226  0.00  0.00    +0.000 A 
ATOM     25 CL   UNL     1      -1.581  12.956  23.374  0.00  0.00    +0.000 Cl
ENDBRANCH  18  19
ENDBRANCH   4  18
TORSDOF 4
ENDMDL
MODEL 9
REMARK VINA RESULT:      -6.4      2.924      9.089
REMARK  Name = 
REMARK  4 active torsions:
REMARK  status: ('A' for Active; 'I' for Inactive)
REMARK    1  A    between atoms: C_2  and  C_18
REMARK    2  A    between atoms: N_3  and  N_4
REMARK    3  A    between atoms: N_7  and  C_8
REMARK    4  A    between atoms: C_8  and  C_9
REMARK                            x       y       z     vdW  Elec       q    Type
REMARK                         _______ _______ _______ _____ _____    ______ ____
ROOT
ATOM      1  N   UNL     1       1.062  10.433  18.588  0.00  0.00    +0.000 NA
ATOM      2  C   UNL     1      -0.377  10.469  18.229  0.00  0.00    +0.000 C 
ATOM      3  C   UNL     1      -1.278  10.191  19.447  0.00  0.00    +0.000 C 
ATOM      4  N   UNL     1      -1.029  11.150  20.546  0.00  0.00    +0.000 NA
ATOM      5  C   UNL     1       0.403  11.146  20.908  0.00  0.00    +0.000 C 
ATOM      6  C   UNL     1       1.314  11.405  19.677  0.00  0.00    +0.000 C 
ENDROOT
BRANCH   1   9
ATOM      7  O   UNL     1       2.614   8.714  17.128  0.00  0.00    +0.000 OA
ATOM      8  C   UNL     1       2.225   8.324  18.220  0.00  0.00    +0.000 C 
ATOM      9  N   UNL     1       1.464   9.145  18.998  0.00  0.00    +0.000 N 
ATOM     10  H   UNL     1       1.193   8.819  19.929  0.00  0.00    +0.000 HD
BRANCH   8  11
ATOM     11  C   UNL     1       2.596   6.935  18.656  0.00  0.00    +0.000 A 
ATOM     12  C   UNL     1       2.154   6.474  19.913  0.00  0.00    +0.000 A 
ATOM     13  C   UNL     1       2.495   5.199  20.371  0.00  0.00    +0.000 A 
ATOM     14  C   UNL     1       3.279   4.355  19.584  0.00  0.00    +0.000 A 
ATOM     15 CL   UNL     1       3.710   2.758  20.164  0.00  0.00    +0.000 Cl
ATOM     16  C   UNL     1       3.723   4.789  18.334  0.00  0.00    +0.000 A 
ATOM     17  C   UNL     1       3.391   6.064  17.871  0.00  0.00    +0.000 A 
ENDBRANCH   8  11
ENDBRANCH   1   9
BRANCH   4  18
ATOM     18  C   UNL     1      -1.529  12.517  20.279  0.00  0.00    +0.000 C 
BRANCH  18  19
ATOM     19  C   UNL     1      -2.820  12.789  21.019  0.00  0.00    +0.000 A 
ATOM     20  C   UNL     1      -2.749  13.259  22.342  0.00  0.00    +0.000 A 
ATOM     21  C   UNL     1      -3.914  13.533  23.061  0.00  0.00    +0.000 A 
ATOM     22  C   UNL     1      -5.163  13.340  22.469  0.00  0.00    +0.000 A 
ATOM     23  C   UNL     1      -5.250  12.870  21.157  0.00  0.00    +0.000 A 
ATOM     24  C   UNL     1      -4.089  12.593  20.424  0.00  0.00    +0.000 A 
ATOM     25 CL   UNL     1      -4.285  11.998  18.778  0.00  0.00    +0.000 Cl
ENDBRANCH  18  19
ENDBRANCH   4  18
TORSDOF 4
ENDMDL
