MODEL 1
REMARK VINA RESULT:      -7.2      0.000      0.000
REMARK  Name = 
REMARK  6 active torsions:
REMARK  status: ('A' for Active; 'I' for Inactive)
REMARK    1  A    between atoms: C_2  and  C_3
REMARK    2  A    between atoms: C_3  and  O_4
REMARK    3  A    between atoms: O_4  and  C_5
REMARK    4  A    between atoms: C_11  and  C_12
REMARK    5  A    between atoms: C_12  and  O_13
REMARK    6  A    between atoms: N_14  and  C_15
REMARK                            x       y       z     vdW  Elec       q    Type
REMARK                         _______ _______ _______ _____ _____    ______ ____
ROOT
ATOM      1  C   UNL     1       7.260   7.613  17.177  0.00  0.00    +0.000 C 
ENDROOT
BRANCH   1   3
ATOM      2  O   UNL     1       8.760   7.667  19.043  0.00  0.00    +0.000 OA
ATOM      3  C   UNL     1       8.177   8.316  18.177  0.00  0.00    +0.000 C 
ATOM      4  N   UNL     1       8.291   9.682  17.980  0.00  0.00    +0.000 N 
ATOM      5  H   UNL     1       7.552  10.132  17.452  0.00  0.00    +0.000 HD
BRANCH   4   6
ATOM      6  C   UNL     1       9.227  10.528  18.613  0.00  0.00    +0.000 A 
ATOM      7  C   UNL     1       9.260  10.733  19.999  0.00  0.00    +0.000 A 
ATOM      8  C   UNL     1      10.187  11.612  20.567  0.00  0.00    +0.000 A 
ATOM      9  C   UNL     1      11.087  12.279  19.749  0.00  0.00    +0.000 A 
ATOM     10  F   UNL     1      11.956  13.144  20.289  0.00  0.00    +0.000 F 
ATOM     11  C   UNL     1      11.097  12.062  18.378  0.00  0.00    +0.000 A 
ATOM     12  C   UNL     1      10.176  11.174  17.811  0.00  0.00    +0.000 A 
ENDBRANCH   4   6
ENDBRANCH   1   3
BRANCH   1  13
ATOM     13  O   UNL     1       7.569   6.230  17.026  0.00  0.00    +0.000 OA
BRANCH  13  14
ATOM     14  C   UNL     1       6.529   5.360  17.264  0.00  0.00    +0.000 A 
ATOM     15  C   UNL     1       6.036   5.098  18.554  0.00  0.00    +0.000 A 
ATOM     16  C   UNL     1       4.969   4.217  18.757  0.00  0.00    +0.000 A 
ATOM     17  C   UNL     1       4.376   3.598  17.671  0.00  0.00    +0.000 A 
ATOM     18 BR   UNL     1       2.942   2.400  17.944  0.00  0.00    +0.000 Br
ATOM     19  C   UNL     1       4.833   3.864  16.382  0.00  0.00    +0.000 A 
ATOM     20  C   UNL     1       5.909   4.752  16.153  0.00  0.00    +0.000 A 
BRANCH  20  21
ATOM     21  C   UNL     1       6.300   4.953  14.701  0.00  0.00    +0.000 C 
BRANCH  21  22
ATOM     22  O   UNL     1       7.638   5.354  14.456  0.00  0.00    +0.000 OA
ATOM     23  H   UNL     1       7.627   6.323  14.355  0.00  0.00    +0.000 HD
ENDBRANCH  21  22
ENDBRANCH  20  21
ENDBRANCH  13  14
ENDBRANCH   1  13
TORSDOF 6
ENDMDL
MODEL 2
REMARK VINA RESULT:      -7.0      1.509      1.559
REMARK  Name = 
REMARK  6 active torsions:
REMARK  status: ('A' for Active; 'I' for Inactive)
REMARK    1  A    between atoms: C_2  and  C_3
REMARK    2  A    between atoms: C_3  and  O_4
REMARK    3  A    between atoms: O_4  and  C_5
REMARK    4  A    between atoms: C_11  and  C_12
REMARK    5  A    between atoms: C_12  and  O_13
REMARK    6  A    between atoms: N_14  and  C_15
REMARK                            x       y       z     vdW  Elec       q    Type
REMARK                         _______ _______ _______ _____ _____    ______ ____
ROOT
ATOM      1  C   UNL     1       7.840   7.597  17.950  0.00  0.00    +0.000 C 
ENDROOT
BRANCH   1   3
ATOM      2  O   UNL     1       7.640   9.952  17.566  0.00  0.00    +0.000 OA
ATOM      3  C   UNL     1       8.229   9.058  18.170  0.00  0.00    +0.000 C 
ATOM      4  N   UNL     1       9.239   9.242  19.099  0.00  0.00    +0.000 N 
ATOM      5  H   UNL     1       9.835   8.445  19.293  0.00  0.00    +0.000 HD
BRANCH   4   6
ATOM      6  C   UNL     1       9.635  10.482  19.646  0.00  0.00    +0.000 A 
ATOM      7  C   UNL     1       9.133  10.982  20.855  0.00  0.00    +0.000 A 
ATOM      8  C   UNL     1       9.535  12.234  21.330  0.00  0.00    +0.000 A 
ATOM      9  C   UNL     1      10.445  12.983  20.599  0.00  0.00    +0.000 A 
ATOM     10  F   UNL     1      10.807  14.195  21.038  0.00  0.00    +0.000 F 
ATOM     11  C   UNL     1      10.984  12.490  19.418  0.00  0.00    +0.000 A 
ATOM     12  C   UNL     1      10.590  11.233  18.948  0.00  0.00    +0.000 A 
ENDBRANCH   4   6
ENDBRANCH   1   3
BRANCH   1  13
ATOM     13  O   UNL     1       6.983   7.419  16.825  0.00  0.00    +0.000 OA
BRANCH  13  14
ATOM     14  C   UNL     1       5.855   6.662  17.050  0.00  0.00    +0.000 A 
ATOM     15  C   UNL     1       4.705   7.177  17.673  0.00  0.00    +0.000 A 
ATOM     16  C   UNL     1       3.573   6.382  17.873  0.00  0.00    +0.000 A 
ATOM     17  C   UNL     1       3.574   5.067  17.443  0.00  0.00    +0.000 A 
ATOM     18 BR   UNL     1       2.049   3.988  17.722  0.00  0.00    +0.000 Br
ATOM     19  C   UNL     1       4.694   4.545  16.799  0.00  0.00    +0.000 A 
ATOM     20  C   UNL     1       5.850   5.332  16.585  0.00  0.00    +0.000 A 
BRANCH  20  21
ATOM     21  C   UNL     1       6.994   4.639  15.870  0.00  0.00    +0.000 C 
BRANCH  21  22
ATOM     22  O   UNL     1       7.636   5.375  14.841  0.00  0.00    +0.000 OA
ATOM     23  H   UNL     1       7.815   6.262  15.201  0.00  0.00    +0.000 HD
ENDBRANCH  21  22
ENDBRANCH  20  21
ENDBRANCH  13  14
ENDBRANCH   1  13
TORSDOF 6
ENDMDL
MODEL 3
REMARK VINA RESULT:      -7.0      1.608      2.026
REMARK  Name = 
REMARK  6 active torsions:
REMARK  status: ('A' for Active; 'I' for Inactive)
REMARK    1  A    between atoms: C_2  and  C_3
REMARK    2  A    between atoms: C_3  and  O_4
REMARK    3  A    between atoms: O_4  and  C_5
REMARK    4  A    between atoms: C_11  and  C_12
REMARK    5  A    between atoms: C_12  and  O_13
REMARK    6  A    between atoms: N_14  and  C_15
REMARK                            x       y       z     vdW  Elec       q    Type
REMARK                         _______ _______ _______ _____ _____    ______ ____
ROOT
ATOM      1  C   UNL     1       7.831   7.559  18.087  0.00  0.00    +0.000 C 
ENDROOT
BRANCH   1   3
ATOM      2  O   UNL     1       7.730   9.847  17.386  0.00  0.00    +0.000 OA
ATOM      3  C   UNL     1       8.257   9.026  18.134  0.00  0.00    +0.000 C 
ATOM      4  N   UNL     1       9.223   9.307  19.086  0.00  0.00    +0.000 N 
ATOM      5  H   UNL     1       9.782   8.528  19.416  0.00  0.00    +0.000 HD
BRANCH   4   6
ATOM      6  C   UNL     1       9.631  10.598  19.486  0.00  0.00    +0.000 A 
ATOM      7  C   UNL     1      10.377  11.454  18.664  0.00  0.00    +0.000 A 
ATOM      8  C   UNL     1      10.786  12.708  19.128  0.00  0.00    +0.000 A 
ATOM      9  C   UNL     1      10.441  13.109  20.410  0.00  0.00    +0.000 A 
ATOM     10  F   UNL     1      10.857  14.298  20.865  0.00  0.00    +0.000 F 
ATOM     11  C   UNL     1       9.670  12.292  21.226  0.00  0.00    +0.000 A 
ATOM     12  C   UNL     1       9.252  11.042  20.759  0.00  0.00    +0.000 A 
ENDBRANCH   4   6
ENDBRANCH   1   3
BRANCH   1  13
ATOM     13  O   UNL     1       7.076   7.243  16.921  0.00  0.00    +0.000 OA
BRANCH  13  14
ATOM     14  C   UNL     1       5.880   6.597  17.144  0.00  0.00    +0.000 A 
ATOM     15  C   UNL     1       4.729   7.264  17.600  0.00  0.00    +0.000 A 
ATOM     16  C   UNL     1       3.528   6.579  17.804  0.00  0.00    +0.000 A 
ATOM     17  C   UNL     1       3.461   5.222  17.543  0.00  0.00    +0.000 A 
ATOM     18 BR   UNL     1       1.841   4.292  17.827  0.00  0.00    +0.000 Br
ATOM     19  C   UNL     1       4.583   4.548  17.065  0.00  0.00    +0.000 A 
ATOM     20  C   UNL     1       5.808   5.221  16.850  0.00  0.00    +0.000 A 
BRANCH  20  21
ATOM     21  C   UNL     1       6.945   4.367  16.325  0.00  0.00    +0.000 C 
BRANCH  21  22
ATOM     22  O   UNL     1       8.064   4.206  17.182  0.00  0.00    +0.000 OA
ATOM     23  H   UNL     1       7.871   4.711  17.993  0.00  0.00    +0.000 HD
ENDBRANCH  21  22
ENDBRANCH  20  21
ENDBRANCH  13  14
ENDBRANCH   1  13
TORSDOF 6
ENDMDL
MODEL 4
REMARK VINA RESULT:      -7.0      6.170      7.125
REMARK  Name = 
REMARK  6 active torsions:
REMARK  status: ('A' for Active; 'I' for Inactive)
REMARK    1  A    between atoms: C_2  and  C_3
REMARK    2  A    between atoms: C_3  and  O_4
REMARK    3  A    between atoms: O_4  and  C_5
REMARK    4  A    between atoms: C_11  and  C_12
REMARK    5  A    between atoms: C_12  and  O_13
REMARK    6  A    between atoms: N_14  and  C_15
REMARK                            x       y       z     vdW  Elec       q    Type
REMARK                         _______ _______ _______ _____ _____    ______ ____
ROOT
ATOM      1  C   UNL     1       2.882   4.134  21.147  0.00  0.00    +0.000 C 
ENDROOT
BRANCH   1   3
ATOM      2  O   UNL     1       0.850   4.932  20.165  0.00  0.00    +0.000 OA
ATOM      3  C   UNL     1       2.015   5.188  20.460  0.00  0.00    +0.000 C 
ATOM      4  N   UNL     1       2.652   6.400  20.254  0.00  0.00    +0.000 N 
ATOM      5  H   UNL     1       3.666   6.393  20.257  0.00  0.00    +0.000 HD
BRANCH   4   6
ATOM      6  C   UNL     1       2.025   7.598  19.844  0.00  0.00    +0.000 A 
ATOM      7  C   UNL     1       1.268   8.400  20.708  0.00  0.00    +0.000 A 
ATOM      8  C   UNL     1       0.640   9.557  20.237  0.00  0.00    +0.000 A 
ATOM      9  C   UNL     1       0.775   9.915  18.904  0.00  0.00    +0.000 A 
ATOM     10  F   UNL     1       0.149  11.006  18.445  0.00  0.00    +0.000 F 
ATOM     11  C   UNL     1       1.553   9.155  18.040  0.00  0.00    +0.000 A 
ATOM     12  C   UNL     1       2.190   8.003  18.513  0.00  0.00    +0.000 A 
ENDBRANCH   4   6
ENDBRANCH   1   3
BRANCH   1  13
ATOM     13  O   UNL     1       3.322   3.116  20.253  0.00  0.00    +0.000 OA
BRANCH  13  14
ATOM     14  C   UNL     1       4.072   3.549  19.182  0.00  0.00    +0.000 A 
ATOM     15  C   UNL     1       5.271   4.267  19.332  0.00  0.00    +0.000 A 
ATOM     16  C   UNL     1       6.012   4.679  18.221  0.00  0.00    +0.000 A 
ATOM     17  C   UNL     1       5.569   4.368  16.949  0.00  0.00    +0.000 A 
ATOM     18 BR   UNL     1       6.565   4.933  15.446  0.00  0.00    +0.000 Br
ATOM     19  C   UNL     1       4.397   3.634  16.778  0.00  0.00    +0.000 A 
ATOM     20  C   UNL     1       3.632   3.205  17.887  0.00  0.00    +0.000 A 
BRANCH  20  21
ATOM     21  C   UNL     1       2.382   2.413  17.558  0.00  0.00    +0.000 C 
BRANCH  21  22
ATOM     22  O   UNL     1       1.177   2.849  18.165  0.00  0.00    +0.000 OA
ATOM     23  H   UNL     1       0.612   2.062  18.265  0.00  0.00    +0.000 HD
ENDBRANCH  21  22
ENDBRANCH  20  21
ENDBRANCH  13  14
ENDBRANCH   1  13
TORSDOF 6
ENDMDL
MODEL 5
REMARK VINA RESULT:      -7.0      5.389      7.124
REMARK  Name = 
REMARK  6 active torsions:
REMARK  status: ('A' for Active; 'I' for Inactive)
REMARK    1  A    between atoms: C_2  and  C_3
REMARK    2  A    between atoms: C_3  and  O_4
REMARK    3  A    between atoms: O_4  and  C_5
REMARK    4  A    between atoms: C_11  and  C_12
REMARK    5  A    between atoms: C_12  and  O_13
REMARK    6  A    between atoms: N_14  and  C_15
REMARK                            x       y       z     vdW  Elec       q    Type
REMARK                         _______ _______ _______ _____ _____    ______ ____
ROOT
ATOM      1  C   UNL     1       3.660   4.659  19.973  0.00  0.00    +0.000 C 
ENDROOT
BRANCH   1   3
ATOM      2  O   UNL     1       1.343   5.051  20.431  0.00  0.00    +0.000 OA
ATOM      3  C   UNL     1       2.421   5.543  20.104  0.00  0.00    +0.000 C 
ATOM      4  N   UNL     1       2.652   6.886  19.858  0.00  0.00    +0.000 N 
ATOM      5  H   UNL     1       3.478   7.117  19.316  0.00  0.00    +0.000 HD
BRANCH   4   6
ATOM      6  C   UNL     1       1.746   7.937  20.118  0.00  0.00    +0.000 A 
ATOM      7  C   UNL     1       1.110   8.112  21.354  0.00  0.00    +0.000 A 
ATOM      8  C   UNL     1       0.193   9.150  21.542  0.00  0.00    +0.000 A 
ATOM      9  C   UNL     1      -0.083  10.017  20.496  0.00  0.00    +0.000 A 
ATOM     10  F   UNL     1      -0.983  10.994  20.667  0.00  0.00    +0.000 F 
ATOM     11  C   UNL     1       0.565   9.886  19.275  0.00  0.00    +0.000 A 
ATOM     12  C   UNL     1       1.491   8.854  19.090  0.00  0.00    +0.000 A 
ENDBRANCH   4   6
ENDBRANCH   1   3
BRANCH   1  13
ATOM     13  O   UNL     1       4.808   5.384  19.538  0.00  0.00    +0.000 OA
BRANCH  13  14
ATOM     14  C   UNL     1       5.232   5.111  18.256  0.00  0.00    +0.000 A 
ATOM     15  C   UNL     1       4.376   4.603  17.264  0.00  0.00    +0.000 A 
ATOM     16  C   UNL     1       4.839   4.350  15.969  0.00  0.00    +0.000 A 
ATOM     17  C   UNL     1       6.158   4.613  15.649  0.00  0.00    +0.000 A 
ATOM     18 BR   UNL     1       6.788   4.263  13.903  0.00  0.00    +0.000 Br
ATOM     19  C   UNL     1       7.016   5.143  16.611  0.00  0.00    +0.000 A 
ATOM     20  C   UNL     1       6.570   5.407  17.927  0.00  0.00    +0.000 A 
BRANCH  20  21
ATOM     21  C   UNL     1       7.607   5.985  18.870  0.00  0.00    +0.000 C 
BRANCH  21  22
ATOM     22  O   UNL     1       7.625   5.461  20.189  0.00  0.00    +0.000 OA
ATOM     23  H   UNL     1       8.446   5.780  20.606  0.00  0.00    +0.000 HD
ENDBRANCH  21  22
ENDBRANCH  20  21
ENDBRANCH  13  14
ENDBRANCH   1  13
TORSDOF 6
ENDMDL
MODEL 6
REMARK VINA RESULT:      -7.0      6.128      7.144
REMARK  Name = 
REMARK  6 active torsions:
REMARK  status: ('A' for Active; 'I' for Inactive)
REMARK    1  A    between atoms: C_2  and  C_3
REMARK    2  A    between atoms: C_3  and  O_4
REMARK    3  A    between atoms: O_4  and  C_5
REMARK    4  A    between atoms: C_11  and  C_12
REMARK    5  A    between atoms: C_12  and  O_13
REMARK    6  A    between atoms: N_14  and  C_15
REMARK                            x       y       z     vdW  Elec       q    Type
REMARK                         _______ _______ _______ _____ _____    ______ ____
ROOT
ATOM      1  C   UNL     1       2.937   4.092  21.090  0.00  0.00    +0.000 C 
ENDROOT
BRANCH   1   3
ATOM      2  O   UNL     1       0.985   4.826  19.912  0.00  0.00    +0.000 OA
ATOM      3  C   UNL     1       2.108   5.118  20.319  0.00  0.00    +0.000 C 
ATOM      4  N   UNL     1       2.724   6.350  20.172  0.00  0.00    +0.000 N 
ATOM      5  H   UNL     1       3.732   6.374  20.273  0.00  0.00    +0.000 HD
BRANCH   4   6
ATOM      6  C   UNL     1       2.103   7.528  19.701  0.00  0.00    +0.000 A 
ATOM      7  C   UNL     1       2.192   7.961  18.371  0.00  0.00    +0.000 A 
ATOM      8  C   UNL     1       1.587   9.155  17.969  0.00  0.00    +0.000 A 
ATOM      9  C   UNL     1       0.886   9.913  18.895  0.00  0.00    +0.000 A 
ATOM     10  F   UNL     1       0.331  11.071  18.518  0.00  0.00    +0.000 F 
ATOM     11  C   UNL     1       0.752   9.482  20.209  0.00  0.00    +0.000 A 
ATOM     12  C   UNL     1       1.348   8.281  20.609  0.00  0.00    +0.000 A 
ENDBRANCH   4   6
ENDBRANCH   1   3
BRANCH   1  13
ATOM     13  O   UNL     1       3.468   3.071  20.249  0.00  0.00    +0.000 OA
BRANCH  13  14
ATOM     14  C   UNL     1       4.200   3.511  19.169  0.00  0.00    +0.000 A 
ATOM     15  C   UNL     1       5.408   4.217  19.306  0.00  0.00    +0.000 A 
ATOM     16  C   UNL     1       6.132   4.636  18.186  0.00  0.00    +0.000 A 
ATOM     17  C   UNL     1       5.662   4.346  16.918  0.00  0.00    +0.000 A 
ATOM     18 BR   UNL     1       6.633   4.922  15.403  0.00  0.00    +0.000 Br
ATOM     19  C   UNL     1       4.480   3.624  16.761  0.00  0.00    +0.000 A 
ATOM     20  C   UNL     1       3.732   3.188  17.879  0.00  0.00    +0.000 A 
BRANCH  20  21
ATOM     21  C   UNL     1       2.469   2.411  17.564  0.00  0.00    +0.000 C 
BRANCH  21  22
ATOM     22  O   UNL     1       2.018   1.506  18.558  0.00  0.00    +0.000 OA
ATOM     23  H   UNL     1       1.780   0.680  18.099  0.00  0.00    +0.000 HD
ENDBRANCH  21  22
ENDBRANCH  20  21
ENDBRANCH  13  14
ENDBRANCH   1  13
TORSDOF 6
ENDMDL
MODEL 7
REMARK VINA RESULT:      -6.8      4.823      8.894
REMARK  Name = 
REMARK  6 active torsions:
REMARK  status: ('A' for Active; 'I' for Inactive)
REMARK    1  A    between atoms: C_2  and  C_3
REMARK    2  A    between atoms: C_3  and  O_4
REMARK    3  A    between atoms: O_4  and  C_5
REMARK    4  A    between atoms: C_11  and  C_12
REMARK    5  A    between atoms: C_12  and  O_13
REMARK    6  A    between atoms: N_14  and  C_15
REMARK                            x       y       z     vdW  Elec       q    Type
REMARK                         _______ _______ _______ _____ _____    ______ ____
ROOT
ATOM      1  C   UNL     1       8.229   9.307  17.858  0.00  0.00    +0.000 C 
ENDROOT
BRANCH   1   3
ATOM      2  O   UNL     1       8.221   7.025  18.583  0.00  0.00    +0.000 OA
ATOM      3  C   UNL     1       7.712   7.869  17.850  0.00  0.00    +0.000 C 
ATOM      4  N   UNL     1       6.643   7.656  16.995  0.00  0.00    +0.000 N 
ATOM      5  H   UNL     1       6.515   8.325  16.244  0.00  0.00    +0.000 HD
BRANCH   4   6
ATOM      6  C   UNL     1       5.843   6.493  16.955  0.00  0.00    +0.000 A 
ATOM      7  C   UNL     1       6.203   5.340  16.244  0.00  0.00    +0.000 A 
ATOM      8  C   UNL     1       5.354   4.230  16.209  0.00  0.00    +0.000 A 
ATOM      9  C   UNL     1       4.147   4.271  16.892  0.00  0.00    +0.000 A 
ATOM     10  F   UNL     1       3.320   3.220  16.835  0.00  0.00    +0.000 F 
ATOM     11  C   UNL     1       3.788   5.389  17.634  0.00  0.00    +0.000 A 
ATOM     12  C   UNL     1       4.643   6.495  17.677  0.00  0.00    +0.000 A 
ENDBRANCH   4   6
ENDBRANCH   1   3
BRANCH   1  13
ATOM     13  O   UNL     1       8.847   9.661  19.092  0.00  0.00    +0.000 OA
BRANCH  13  14
ATOM     14  C   UNL     1       9.653  10.778  19.055  0.00  0.00    +0.000 A 
ATOM     15  C   UNL     1      10.391  11.145  17.916  0.00  0.00    +0.000 A 
ATOM     16  C   UNL     1      11.188  12.293  17.910  0.00  0.00    +0.000 A 
ATOM     17  C   UNL     1      11.248  13.092  19.037  0.00  0.00    +0.000 A 
ATOM     18 BR   UNL     1      12.333  14.638  19.034  0.00  0.00    +0.000 Br
ATOM     19  C   UNL     1      10.503  12.760  20.167  0.00  0.00    +0.000 A 
ATOM     20  C   UNL     1       9.688  11.604  20.196  0.00  0.00    +0.000 A 
BRANCH  20  21
ATOM     21  C   UNL     1       8.930  11.365  21.487  0.00  0.00    +0.000 C 
BRANCH  21  22
ATOM     22  O   UNL     1       9.390  12.068  22.630  0.00  0.00    +0.000 OA
ATOM     23  H   UNL     1       8.642  12.106  23.255  0.00  0.00    +0.000 HD
ENDBRANCH  21  22
ENDBRANCH  20  21
ENDBRANCH  13  14
ENDBRANCH   1  13
TORSDOF 6
ENDMDL
MODEL 8
REMARK VINA RESULT:      -6.8      5.276      6.871
REMARK  Name = 
REMARK  6 active torsions:
REMARK  status: ('A' for Active; 'I' for Inactive)
REMARK    1  A    between atoms: C_2  and  C_3
REMARK    2  A    between atoms: C_3  and  O_4
REMARK    3  A    between atoms: O_4  and  C_5
REMARK    4  A    between atoms: C_11  and  C_12
REMARK    5  A    between atoms: C_12  and  O_13
REMARK    6  A    between atoms: N_14  and  C_15
REMARK                            x       y       z     vdW  Elec       q    Type
REMARK                         _______ _______ _______ _____ _____    ______ ____
ROOT
ATOM      1  C   UNL     1       3.580   3.703  18.750  0.00  0.00    +0.000 C 
ENDROOT
BRANCH   1   3
ATOM      2  O   UNL     1       1.597   4.741  17.899  0.00  0.00    +0.000 OA
ATOM      3  C   UNL     1       2.664   4.897  18.490  0.00  0.00    +0.000 C 
ATOM      4  N   UNL     1       3.136   6.096  18.998  0.00  0.00    +0.000 N 
ATOM      5  H   UNL     1       4.131   6.155  19.185  0.00  0.00    +0.000 HD
BRANCH   4   6
ATOM      6  C   UNL     1       2.399   7.297  19.090  0.00  0.00    +0.000 A 
ATOM      7  C   UNL     1       2.223   8.172  18.010  0.00  0.00    +0.000 A 
ATOM      8  C   UNL     1       1.514   9.366  18.169  0.00  0.00    +0.000 A 
ATOM      9  C   UNL     1       0.973   9.681  19.407  0.00  0.00    +0.000 A 
ATOM     10  F   UNL     1       0.318  10.838  19.567  0.00  0.00    +0.000 F 
ATOM     11  C   UNL     1       1.102   8.809  20.480  0.00  0.00    +0.000 A 
ATOM     12  C   UNL     1       1.802   7.609  20.318  0.00  0.00    +0.000 A 
ENDBRANCH   4   6
ENDBRANCH   1   3
BRANCH   1  13
ATOM     13  O   UNL     1       4.960   4.057  18.743  0.00  0.00    +0.000 OA
BRANCH  13  14
ATOM     14  C   UNL     1       5.520   4.244  17.499  0.00  0.00    +0.000 A 
ATOM     15  C   UNL     1       4.835   3.957  16.306  0.00  0.00    +0.000 A 
ATOM     16  C   UNL     1       5.430   4.171  15.060  0.00  0.00    +0.000 A 
ATOM     17  C   UNL     1       6.712   4.686  14.992  0.00  0.00    +0.000 A 
ATOM     18 BR   UNL     1       7.522   4.966  13.309  0.00  0.00    +0.000 Br
ATOM     19  C   UNL     1       7.399   5.002  16.163  0.00  0.00    +0.000 A 
ATOM     20  C   UNL     1       6.816   4.794  17.434  0.00  0.00    +0.000 A 
BRANCH  20  21
ATOM     21  C   UNL     1       7.673   5.185  18.623  0.00  0.00    +0.000 C 
BRANCH  21  22
ATOM     22  O   UNL     1       6.989   5.453  19.836  0.00  0.00    +0.000 OA
ATOM     23  H   UNL     1       6.842   6.416  19.869  0.00  0.00    +0.000 HD
ENDBRANCH  21  22
ENDBRANCH  20  21
ENDBRANCH  13  14
ENDBRANCH   1  13
TORSDOF 6
ENDMDL
MODEL 9
REMARK VINA RESULT:      -6.7      6.225      8.042
REMARK  Name = 
REMARK  6 active torsions:
REMARK  status: ('A' for Active; 'I' for Inactive)
REMARK    1  A    between atoms: C_2  and  C_3
REMARK    2  A    between atoms: C_3  and  O_4
REMARK    3  A    between atoms: O_4  and  C_5
REMARK    4  A    between atoms: C_11  and  C_12
REMARK    5  A    between atoms: C_12  and  O_13
REMARK    6  A    between atoms: N_14  and  C_15
REMARK                            x       y       z     vdW  Elec       q    Type
REMARK                         _______ _______ _______ _____ _____    ______ ____
ROOT
ATOM      1  C   UNL     1       2.141   6.516  19.871  0.00  0.00    +0.000 C 
ENDROOT
BRANCH   1   3
ATOM      2  O   UNL     1       2.424   4.711  18.323  0.00  0.00    +0.000 OA
ATOM      3  C   UNL     1       2.947   5.670  18.887  0.00  0.00    +0.000 C 
ATOM      4  N   UNL     1       4.247   6.107  18.696  0.00  0.00    +0.000 N 
ATOM      5  H   UNL     1       4.645   6.696  19.419  0.00  0.00    +0.000 HD
BRANCH   4   6
ATOM      6  C   UNL     1       5.129   5.648  17.693  0.00  0.00    +0.000 A 
ATOM      7  C   UNL     1       6.319   4.963  17.973  0.00  0.00    +0.000 A 
ATOM      8  C   UNL     1       7.172   4.565  16.940  0.00  0.00    +0.000 A 
ATOM      9  C   UNL     1       6.831   4.843  15.625  0.00  0.00    +0.000 A 
ATOM     10  F   UNL     1       7.661   4.488  14.637  0.00  0.00    +0.000 F 
ATOM     11  C   UNL     1       5.637   5.486  15.322  0.00  0.00    +0.000 A 
ATOM     12  C   UNL     1       4.779   5.876  16.355  0.00  0.00    +0.000 A 
ENDBRANCH   4   6
ENDBRANCH   1   3
BRANCH   1  13
ATOM     13  O   UNL     1       2.092   7.891  19.501  0.00  0.00    +0.000 OA
BRANCH  13  14
ATOM     14  C   UNL     1       1.305   8.694  20.297  0.00  0.00    +0.000 A 
ATOM     15  C   UNL     1       1.254   8.562  21.696  0.00  0.00    +0.000 A 
ATOM     16  C   UNL     1       0.453   9.404  22.473  0.00  0.00    +0.000 A 
ATOM     17  C   UNL     1      -0.297  10.392  21.862  0.00  0.00    +0.000 A 
ATOM     18 BR   UNL     1      -1.389  11.523  22.910  0.00  0.00    +0.000 Br
ATOM     19  C   UNL     1      -0.240  10.556  20.479  0.00  0.00    +0.000 A 
ATOM     20  C   UNL     1       0.564   9.718  19.673  0.00  0.00    +0.000 A 
BRANCH  20  21
ATOM     21  C   UNL     1       0.534  10.009  18.185  0.00  0.00    +0.000 C 
BRANCH  21  22
ATOM     22  O   UNL     1       1.770   9.908  17.496  0.00  0.00    +0.000 OA
ATOM     23  H   UNL     1       1.613   9.338  16.722  0.00  0.00    +0.000 HD
ENDBRANCH  21  22
ENDBRANCH  20  21
ENDBRANCH  13  14
ENDBRANCH   1  13
TORSDOF 6
ENDMDL
