MODEL 1
REMARK VINA RESULT:      -9.0      0.000      0.000
REMARK  Name = 
REMARK  4 active torsions:
REMARK  status: ('A' for Active; 'I' for Inactive)
REMARK    1  A    between atoms: C_1  and  C_2
REMARK    2  A    between atoms: N_10  and  C_11
REMARK    3  A    between atoms: C_14  and  C_16
REMARK    4  A    between atoms: N_22  and  C_23
REMARK                            x       y       z     vdW  Elec       q    Type
REMARK                         _______ _______ _______ _____ _____    ______ ____
ROOT
ATOM      1  C   UNL     1      -0.351  10.004  23.519  0.00  0.00    +0.000 C 
ATOM      2  C   UNL     1       0.229   9.646  22.183  0.00  0.00    +0.000 A 
ATOM      3  C   UNL     1       0.259  10.569  21.135  0.00  0.00    +0.000 A 
ATOM      4  C   UNL     1       0.794  10.235  19.884  0.00  0.00    +0.000 A 
ATOM      5  C   UNL     1       1.303   8.940  19.707  0.00  0.00    +0.000 A 
ATOM      6  C   UNL     1       1.287   7.995  20.737  0.00  0.00    +0.000 A 
ATOM      7  C   UNL     1       0.748   8.356  21.986  0.00  0.00    +0.000 A 
ATOM      8  C   UNL     1       1.873   6.810  20.229  0.00  0.00    +0.000 A 
ATOM      9  C   UNL     1       2.233   7.044  18.916  0.00  0.00    +0.000 A 
ATOM     10  N   UNL     1       1.887   8.334  18.605  0.00  0.00    +0.000 N 
ATOM     11  C   UNL     1       2.096   9.000  17.337  0.00  0.00    +0.000 C 
ATOM     12  C   UNL     1       2.895   6.062  18.002  0.00  0.00    +0.000 C 
ATOM     13  N   UNL     1       3.375   4.927  18.806  0.00  0.00    +0.000 N 
ATOM     14  C   UNL     1       4.681   4.428  18.801  0.00  0.00    +0.000 C 
ATOM     15  O   UNL     1       5.033   3.567  19.609  0.00  0.00    +0.000 OA
ATOM     16  C   UNL     1       2.436   4.427  19.827  0.00  0.00    +0.000 C 
ATOM     17  C   UNL     1       2.140   5.502  20.894  0.00  0.00    +0.000 C 
ENDROOT
BRANCH  14  18
ATOM     18  C   UNL     1       5.652   4.966  17.836  0.00  0.00    +0.000 A 
ATOM     19  N   UNL     1       6.663   5.881  18.122  0.00  0.00    +0.000 NA
ATOM     20  C   UNL     1       7.335   6.019  17.001  0.00  0.00    +0.000 A 
ATOM     21  N   UNL     1       6.787   5.278  15.989  0.00  0.00    +0.000 N 
ATOM     22  C   UNL     1       7.234   5.131  14.693  0.00  0.00    +0.000 A 
ATOM     23  O   UNL     1       8.248   5.710  14.331  0.00  0.00    +0.000 OA
ATOM     24  N   UNL     1       6.411   4.280  13.982  0.00  0.00    +0.000 N 
ATOM     25  C   UNL     1       6.718   3.954  12.606  0.00  0.00    +0.000 C 
ATOM     26  N   UNL     1       5.282   3.673  14.487  0.00  0.00    +0.000 NA
ATOM     27  N   UNL     1       4.953   3.850  15.681  0.00  0.00    +0.000 NA
ATOM     28  C   UNL     1       5.690   4.640  16.489  0.00  0.00    +0.000 A 
ENDBRANCH  14  18
TORSDOF 1
ENDMDL
MODEL 2
REMARK VINA RESULT:      -7.8      1.002      1.067
REMARK  Name = 
REMARK  4 active torsions:
REMARK  status: ('A' for Active; 'I' for Inactive)
REMARK    1  A    between atoms: C_1  and  C_2
REMARK    2  A    between atoms: N_10  and  C_11
REMARK    3  A    between atoms: C_14  and  C_16
REMARK    4  A    between atoms: N_22  and  C_23
REMARK                            x       y       z     vdW  Elec       q    Type
REMARK                         _______ _______ _______ _____ _____    ______ ____
ROOT
ATOM      1  C   UNL     1      -0.876  11.022  23.093  0.00  0.00    +0.000 C 
ATOM      2  C   UNL     1      -0.155  10.465  21.902  0.00  0.00    +0.000 A 
ATOM      3  C   UNL     1       0.206  11.280  20.826  0.00  0.00    +0.000 A 
ATOM      4  C   UNL     1       0.874  10.761  19.710  0.00  0.00    +0.000 A 
ATOM      5  C   UNL     1       1.175   9.391  19.697  0.00  0.00    +0.000 A 
ATOM      6  C   UNL     1       0.827   8.551  20.758  0.00  0.00    +0.000 A 
ATOM      7  C   UNL     1       0.159   9.097  21.871  0.00  0.00    +0.000 A 
ATOM      8  C   UNL     1       1.275   7.249  20.428  0.00  0.00    +0.000 A 
ATOM      9  C   UNL     1       1.881   7.310  19.188  0.00  0.00    +0.000 A 
ATOM     10  N   UNL     1       1.819   8.609  18.749  0.00  0.00    +0.000 N 
ATOM     11  C   UNL     1       2.344   9.124  17.504  0.00  0.00    +0.000 C 
ATOM     12  C   UNL     1       2.505   6.163  18.460  0.00  0.00    +0.000 C 
ATOM     13  N   UNL     1       2.644   5.037  19.397  0.00  0.00    +0.000 N 
ATOM     14  C   UNL     1       3.828   4.337  19.650  0.00  0.00    +0.000 C 
ATOM     15  O   UNL     1       3.888   3.501  20.554  0.00  0.00    +0.000 OA
ATOM     16  C   UNL     1       1.478   4.781  20.263  0.00  0.00    +0.000 C 
ATOM     17  C   UNL     1       1.200   5.975  21.200  0.00  0.00    +0.000 C 
ENDROOT
BRANCH  14  18
ATOM     18  C   UNL     1       5.022   4.629  18.844  0.00  0.00    +0.000 A 
ATOM     19  N   UNL     1       6.221   5.150  19.324  0.00  0.00    +0.000 NA
ATOM     20  C   UNL     1       7.030   5.173  18.288  0.00  0.00    +0.000 A 
ATOM     21  N   UNL     1       6.406   4.738  17.150  0.00  0.00    +0.000 N 
ATOM     22  C   UNL     1       6.937   4.579  15.888  0.00  0.00    +0.000 A 
ATOM     23  O   UNL     1       8.113   4.841  15.686  0.00  0.00    +0.000 OA
ATOM     24  N   UNL     1       5.984   4.099  15.010  0.00  0.00    +0.000 N 
ATOM     25  C   UNL     1       6.338   3.822  13.634  0.00  0.00    +0.000 C 
ATOM     26  N   UNL     1       4.673   3.834  15.340  0.00  0.00    +0.000 NA
ATOM     27  N   UNL     1       4.276   3.993  16.516  0.00  0.00    +0.000 NA
ATOM     28  C   UNL     1       5.117   4.434  17.475  0.00  0.00    +0.000 A 
ENDBRANCH  14  18
TORSDOF 1
ENDMDL
MODEL 3
REMARK VINA RESULT:      -7.2      7.195     12.042
REMARK  Name = 
REMARK  4 active torsions:
REMARK  status: ('A' for Active; 'I' for Inactive)
REMARK    1  A    between atoms: C_1  and  C_2
REMARK    2  A    between atoms: N_10  and  C_11
REMARK    3  A    between atoms: C_14  and  C_16
REMARK    4  A    between atoms: N_22  and  C_23
REMARK                            x       y       z     vdW  Elec       q    Type
REMARK                         _______ _______ _______ _____ _____    ______ ____
ROOT
ATOM      1  C   UNL     1       2.544   6.861  19.736  0.00  0.00    +0.000 C 
ATOM      2  C   UNL     1       1.720   8.094  19.511  0.00  0.00    +0.000 A 
ATOM      3  C   UNL     1       1.595   8.660  18.240  0.00  0.00    +0.000 A 
ATOM      4  C   UNL     1       0.830   9.815  18.028  0.00  0.00    +0.000 A 
ATOM      5  C   UNL     1       0.188  10.394  19.132  0.00  0.00    +0.000 A 
ATOM      6  C   UNL     1       0.295   9.850  20.416  0.00  0.00    +0.000 A 
ATOM      7  C   UNL     1       1.066   8.687  20.602  0.00  0.00    +0.000 A 
ATOM      8  C   UNL     1      -0.468  10.668  21.284  0.00  0.00    +0.000 A 
ATOM      9  C   UNL     1      -1.023  11.686  20.531  0.00  0.00    +0.000 A 
ATOM     10  N   UNL     1      -0.623  11.515  19.229  0.00  0.00    +0.000 N 
ATOM     11  C   UNL     1      -0.982  12.348  18.102  0.00  0.00    +0.000 C 
ATOM     12  C   UNL     1      -1.911  12.773  21.046  0.00  0.00    +0.000 C 
ATOM     13  N   UNL     1      -2.346  12.414  22.405  0.00  0.00    +0.000 N 
ATOM     14  C   UNL     1      -3.673  12.371  22.844  0.00  0.00    +0.000 C 
ATOM     15  O   UNL     1      -3.958  11.923  23.956  0.00  0.00    +0.000 OA
ATOM     16  C   UNL     1      -1.296  11.874  23.289  0.00  0.00    +0.000 C 
ATOM     17  C   UNL     1      -0.733  10.543  22.747  0.00  0.00    +0.000 C 
ENDROOT
BRANCH  14  18
ATOM     18  C   UNL     1      -4.742  12.839  21.949  0.00  0.00    +0.000 A 
ATOM     19  N   UNL     1      -5.505  12.038  21.104  0.00  0.00    +0.000 NA
ATOM     20  C   UNL     1      -6.384  12.847  20.557  0.00  0.00    +0.000 A 
ATOM     21  N   UNL     1      -6.203  14.140  20.966  0.00  0.00    +0.000 N 
ATOM     22  C   UNL     1      -6.950  15.254  20.647  0.00  0.00    +0.000 A 
ATOM     23  O   UNL     1      -7.917  15.146  19.907  0.00  0.00    +0.000 OA
ATOM     24  N   UNL     1      -6.453  16.378  21.279  0.00  0.00    +0.000 N 
ATOM     25  C   UNL     1      -7.112  17.655  21.113  0.00  0.00    +0.000 C 
ATOM     26  N   UNL     1      -5.348  16.394  22.101  0.00  0.00    +0.000 NA
ATOM     27  N   UNL     1      -4.733  15.332  22.350  0.00  0.00    +0.000 NA
ATOM     28  C   UNL     1      -5.135  14.161  21.813  0.00  0.00    +0.000 A 
ENDBRANCH  14  18
TORSDOF 1
ENDMDL
MODEL 4
REMARK VINA RESULT:      -7.0      7.027     11.248
REMARK  Name = 
REMARK  4 active torsions:
REMARK  status: ('A' for Active; 'I' for Inactive)
REMARK    1  A    between atoms: C_1  and  C_2
REMARK    2  A    between atoms: N_10  and  C_11
REMARK    3  A    between atoms: C_14  and  C_16
REMARK    4  A    between atoms: N_22  and  C_23
REMARK                            x       y       z     vdW  Elec       q    Type
REMARK                         _______ _______ _______ _____ _____    ______ ____
ROOT
ATOM      1  C   UNL     1       2.284   7.219  19.409  0.00  0.00    +0.000 C 
ATOM      2  C   UNL     1       1.674   8.589  19.369  0.00  0.00    +0.000 A 
ATOM      3  C   UNL     1       1.862   9.434  18.273  0.00  0.00    +0.000 A 
ATOM      4  C   UNL     1       1.299  10.716  18.236  0.00  0.00    +0.000 A 
ATOM      5  C   UNL     1       0.536  11.135  19.336  0.00  0.00    +0.000 A 
ATOM      6  C   UNL     1       0.331  10.311  20.447  0.00  0.00    +0.000 A 
ATOM      7  C   UNL     1       0.904   9.025  20.458  0.00  0.00    +0.000 A 
ATOM      8  C   UNL     1      -0.476  11.032  21.361  0.00  0.00    +0.000 A 
ATOM      9  C   UNL     1      -0.748  12.267  20.805  0.00  0.00    +0.000 A 
ATOM     10  N   UNL     1      -0.134  12.325  19.579  0.00  0.00    +0.000 N 
ATOM     11  C   UNL     1      -0.170  13.433  18.650  0.00  0.00    +0.000 C 
ATOM     12  C   UNL     1      -1.577  13.344  21.428  0.00  0.00    +0.000 C 
ATOM     13  N   UNL     1      -2.302  12.771  22.573  0.00  0.00    +0.000 N 
ATOM     14  C   UNL     1      -3.683  12.850  22.778  0.00  0.00    +0.000 C 
ATOM     15  O   UNL     1      -4.225  12.221  23.688  0.00  0.00    +0.000 OA
ATOM     16  C   UNL     1      -1.512  11.884  23.448  0.00  0.00    +0.000 C 
ATOM     17  C   UNL     1      -1.025  10.633  22.690  0.00  0.00    +0.000 C 
ENDROOT
BRANCH  14  18
ATOM     18  C   UNL     1      -4.498  13.673  21.872  0.00  0.00    +0.000 A 
ATOM     19  N   UNL     1      -4.798  15.021  22.045  0.00  0.00    +0.000 NA
ATOM     20  C   UNL     1      -5.474  15.368  20.972  0.00  0.00    +0.000 A 
ATOM     21  N   UNL     1      -5.670  14.305  20.133  0.00  0.00    +0.000 N 
ATOM     22  C   UNL     1      -6.288  14.287  18.901  0.00  0.00    +0.000 A 
ATOM     23  O   UNL     1      -6.745  15.320  18.435  0.00  0.00    +0.000 OA
ATOM     24  N   UNL     1      -6.266  13.016  18.358  0.00  0.00    +0.000 N 
ATOM     25  C   UNL     1      -6.830  12.777  17.047  0.00  0.00    +0.000 C 
ATOM     26  N   UNL     1      -5.721  11.909  18.970  0.00  0.00    +0.000 NA
ATOM     27  N   UNL     1      -5.165  12.016  20.086  0.00  0.00    +0.000 NA
ATOM     28  C   UNL     1      -5.097  13.211  20.711  0.00  0.00    +0.000 A 
ENDBRANCH  14  18
TORSDOF 1
ENDMDL
MODEL 5
REMARK VINA RESULT:      -6.8      6.816      9.086
REMARK  Name = 
REMARK  4 active torsions:
REMARK  status: ('A' for Active; 'I' for Inactive)
REMARK    1  A    between atoms: C_1  and  C_2
REMARK    2  A    between atoms: N_10  and  C_11
REMARK    3  A    between atoms: C_14  and  C_16
REMARK    4  A    between atoms: N_22  and  C_23
REMARK                            x       y       z     vdW  Elec       q    Type
REMARK                         _______ _______ _______ _____ _____    ______ ____
ROOT
ATOM      1  C   UNL     1      -5.349  11.051  17.855  0.00  0.00    +0.000 C 
ATOM      2  C   UNL     1      -3.860  10.978  18.023  0.00  0.00    +0.000 A 
ATOM      3  C   UNL     1      -3.107   9.982  17.396  0.00  0.00    +0.000 A 
ATOM      4  C   UNL     1      -1.718   9.908  17.556  0.00  0.00    +0.000 A 
ATOM      5  C   UNL     1      -1.094  10.866  18.368  0.00  0.00    +0.000 A 
ATOM      6  C   UNL     1      -1.821  11.875  19.009  0.00  0.00    +0.000 A 
ATOM      7  C   UNL     1      -3.216  11.930  18.829  0.00  0.00    +0.000 A 
ATOM      8  C   UNL     1      -0.895  12.662  19.736  0.00  0.00    +0.000 A 
ATOM      9  C   UNL     1       0.365  12.132  19.534  0.00  0.00    +0.000 A 
ATOM     10  N   UNL     1       0.239  11.046  18.705  0.00  0.00    +0.000 N 
ATOM     11  C   UNL     1       1.311  10.202  18.224  0.00  0.00    +0.000 C 
ATOM     12  C   UNL     1       1.639  12.660  20.110  0.00  0.00    +0.000 C 
ATOM     13  N   UNL     1       1.381  13.997  20.666  0.00  0.00    +0.000 N 
ATOM     14  C   UNL     1       2.105  15.154  20.361  0.00  0.00    +0.000 C 
ATOM     15  O   UNL     1       1.732  16.258  20.762  0.00  0.00    +0.000 OA
ATOM     16  C   UNL     1       0.137  14.133  21.447  0.00  0.00    +0.000 C 
ATOM     17  C   UNL     1      -1.108  13.879  20.572  0.00  0.00    +0.000 C 
ENDROOT
BRANCH  14  18
ATOM     18  C   UNL     1       3.308  15.049  19.524  0.00  0.00    +0.000 A 
ATOM     19  N   UNL     1       3.334  15.048  18.132  0.00  0.00    +0.000 NA
ATOM     20  C   UNL     1       4.608  15.018  17.807  0.00  0.00    +0.000 A 
ATOM     21  N   UNL     1       5.410  14.952  18.914  0.00  0.00    +0.000 N 
ATOM     22  C   UNL     1       6.787  14.951  18.977  0.00  0.00    +0.000 A 
ATOM     23  O   UNL     1       7.442  15.016  17.947  0.00  0.00    +0.000 OA
ATOM     24  N   UNL     1       7.219  14.892  20.288  0.00  0.00    +0.000 N 
ATOM     25  C   UNL     1       8.635  14.918  20.587  0.00  0.00    +0.000 C 
ATOM     26  N   UNL     1       6.392  14.821  21.387  0.00  0.00    +0.000 NA
ATOM     27  N   UNL     1       5.149  14.841  21.241  0.00  0.00    +0.000 NA
ATOM     28  C   UNL     1       4.600  14.923  20.011  0.00  0.00    +0.000 A 
ENDBRANCH  14  18
TORSDOF 1
ENDMDL
MODEL 6
REMARK VINA RESULT:      -6.7      2.557      7.410
REMARK  Name = 
REMARK  4 active torsions:
REMARK  status: ('A' for Active; 'I' for Inactive)
REMARK    1  A    between atoms: C_1  and  C_2
REMARK    2  A    between atoms: N_10  and  C_11
REMARK    3  A    between atoms: C_14  and  C_16
REMARK    4  A    between atoms: N_22  and  C_23
REMARK                            x       y       z     vdW  Elec       q    Type
REMARK                         _______ _______ _______ _____ _____    ______ ____
ROOT
ATOM      1  C   UNL     1       6.423   3.083  12.358  0.00  0.00    +0.000 C 
ATOM      2  C   UNL     1       6.316   3.920  13.598  0.00  0.00    +0.000 A 
ATOM      3  C   UNL     1       7.040   5.107  13.736  0.00  0.00    +0.000 A 
ATOM      4  C   UNL     1       6.947   5.888  14.895  0.00  0.00    +0.000 A 
ATOM      5  C   UNL     1       6.101   5.446  15.924  0.00  0.00    +0.000 A 
ATOM      6  C   UNL     1       5.365   4.263  15.814  0.00  0.00    +0.000 A 
ATOM      7  C   UNL     1       5.473   3.498  14.637  0.00  0.00    +0.000 A 
ATOM      8  C   UNL     1       4.624   4.117  17.012  0.00  0.00    +0.000 A 
ATOM      9  C   UNL     1       4.914   5.196  17.825  0.00  0.00    +0.000 A 
ATOM     10  N   UNL     1       5.808   5.998  17.162  0.00  0.00    +0.000 N 
ATOM     11  C   UNL     1       6.370   7.242  17.642  0.00  0.00    +0.000 C 
ATOM     12  C   UNL     1       4.342   5.448  19.183  0.00  0.00    +0.000 C 
ATOM     13  N   UNL     1       3.203   4.539  19.385  0.00  0.00    +0.000 N 
ATOM     14  C   UNL     1       1.916   4.928  19.771  0.00  0.00    +0.000 C 
ATOM     15  O   UNL     1       0.986   4.120  19.779  0.00  0.00    +0.000 OA
ATOM     16  C   UNL     1       3.414   3.146  18.949  0.00  0.00    +0.000 C 
ATOM     17  C   UNL     1       3.653   3.063  17.427  0.00  0.00    +0.000 C 
ENDROOT
BRANCH  14  18
ATOM     18  C   UNL     1       1.670   6.329  20.142  0.00  0.00    +0.000 A 
ATOM     19  N   UNL     1       1.265   6.781  21.395  0.00  0.00    +0.000 NA
ATOM     20  C   UNL     1       1.246   8.092  21.303  0.00  0.00    +0.000 A 
ATOM     21  N   UNL     1       1.572   8.515  20.043  0.00  0.00    +0.000 N 
ATOM     22  C   UNL     1       1.701   9.807  19.578  0.00  0.00    +0.000 A 
ATOM     23  O   UNL     1       1.516  10.747  20.336  0.00  0.00    +0.000 OA
ATOM     24  N   UNL     1       2.063   9.815  18.245  0.00  0.00    +0.000 N 
ATOM     25  C   UNL     1       2.291  11.071  17.563  0.00  0.00    +0.000 C 
ATOM     26  N   UNL     1       2.249   8.689  17.473  0.00  0.00    +0.000 NA
ATOM     27  N   UNL     1       2.124   7.552  17.979  0.00  0.00    +0.000 NA
ATOM     28  C   UNL     1       1.798   7.408  19.281  0.00  0.00    +0.000 A 
ENDBRANCH  14  18
TORSDOF 1
ENDMDL
MODEL 7
REMARK VINA RESULT:      -6.7      1.261      2.272
REMARK  Name = 
REMARK  4 active torsions:
REMARK  status: ('A' for Active; 'I' for Inactive)
REMARK    1  A    between atoms: C_1  and  C_2
REMARK    2  A    between atoms: N_10  and  C_11
REMARK    3  A    between atoms: C_14  and  C_16
REMARK    4  A    between atoms: N_22  and  C_23
REMARK                            x       y       z     vdW  Elec       q    Type
REMARK                         _______ _______ _______ _____ _____    ______ ____
ROOT
ATOM      1  C   UNL     1      -0.013   9.631  23.730  0.00  0.00    +0.000 C 
ATOM      2  C   UNL     1       0.467   9.243  22.363  0.00  0.00    +0.000 A 
ATOM      3  C   UNL     1       0.694  10.204  21.374  0.00  0.00    +0.000 A 
ATOM      4  C   UNL     1       1.136   9.843  20.095  0.00  0.00    +0.000 A 
ATOM      5  C   UNL     1       1.347   8.483  19.827  0.00  0.00    +0.000 A 
ATOM      6  C   UNL     1       1.128   7.499  20.796  0.00  0.00    +0.000 A 
ATOM      7  C   UNL     1       0.688   7.887  22.076  0.00  0.00    +0.000 A 
ATOM      8  C   UNL     1       1.436   6.250  20.203  0.00  0.00    +0.000 A 
ATOM      9  C   UNL     1       1.832   6.484  18.901  0.00  0.00    +0.000 A 
ATOM     10  N   UNL     1       1.777   7.837  18.678  0.00  0.00    +0.000 N 
ATOM     11  C   UNL     1       2.120   8.522  17.450  0.00  0.00    +0.000 C 
ATOM     12  C   UNL     1       2.257   5.444  17.914  0.00  0.00    +0.000 C 
ATOM     13  N   UNL     1       2.480   4.181  18.635  0.00  0.00    +0.000 N 
ATOM     14  C   UNL     1       3.644   3.409  18.574  0.00  0.00    +0.000 C 
ATOM     15  O   UNL     1       3.802   2.441  19.319  0.00  0.00    +0.000 OA
ATOM     16  C   UNL     1       1.459   3.833  19.642  0.00  0.00    +0.000 C 
ATOM     17  C   UNL     1       1.412   4.874  20.779  0.00  0.00    +0.000 C 
ENDROOT
BRANCH  14  18
ATOM     18  C   UNL     1       4.705   3.782  17.626  0.00  0.00    +0.000 A 
ATOM     19  N   UNL     1       5.002   3.124  16.436  0.00  0.00    +0.000 NA
ATOM     20  C   UNL     1       5.954   3.835  15.873  0.00  0.00    +0.000 A 
ATOM     21  N   UNL     1       6.324   4.893  16.657  0.00  0.00    +0.000 N 
ATOM     22  C   UNL     1       7.249   5.879  16.386  0.00  0.00    +0.000 A 
ATOM     23  O   UNL     1       7.855   5.869  15.325  0.00  0.00    +0.000 OA
ATOM     24  N   UNL     1       7.323   6.784  17.428  0.00  0.00    +0.000 N 
ATOM     25  C   UNL     1       8.207   7.926  17.336  0.00  0.00    +0.000 C 
ATOM     26  N   UNL     1       6.590   6.706  18.591  0.00  0.00    +0.000 NA
ATOM     27  N   UNL     1       5.760   5.783  18.751  0.00  0.00    +0.000 NA
ATOM     28  C   UNL     1       5.575   4.849  17.795  0.00  0.00    +0.000 A 
ENDBRANCH  14  18
TORSDOF 1
ENDMDL
MODEL 8
REMARK VINA RESULT:      -6.6      6.892      9.362
REMARK  Name = 
REMARK  4 active torsions:
REMARK  status: ('A' for Active; 'I' for Inactive)
REMARK    1  A    between atoms: C_1  and  C_2
REMARK    2  A    between atoms: N_10  and  C_11
REMARK    3  A    between atoms: C_14  and  C_16
REMARK    4  A    between atoms: N_22  and  C_23
REMARK                            x       y       z     vdW  Elec       q    Type
REMARK                         _______ _______ _______ _____ _____    ______ ____
ROOT
ATOM      1  C   UNL     1      -5.268  11.050  17.210  0.00  0.00    +0.000 C 
ATOM      2  C   UNL     1      -3.823  10.974  17.604  0.00  0.00    +0.000 A 
ATOM      3  C   UNL     1      -2.930  10.137  16.930  0.00  0.00    +0.000 A 
ATOM      4  C   UNL     1      -1.581  10.059  17.301  0.00  0.00    +0.000 A 
ATOM      5  C   UNL     1      -1.145  10.849  18.375  0.00  0.00    +0.000 A 
ATOM      6  C   UNL     1      -2.015  11.695  19.069  0.00  0.00    +0.000 A 
ATOM      7  C   UNL     1      -3.365  11.758  18.674  0.00  0.00    +0.000 A 
ATOM      8  C   UNL     1      -1.258  12.340  20.077  0.00  0.00    +0.000 A 
ATOM      9  C   UNL     1       0.044  11.885  19.988  0.00  0.00    +0.000 A 
ATOM     10  N   UNL     1       0.107  10.983  18.956  0.00  0.00    +0.000 N 
ATOM     11  C   UNL     1       1.284  10.272  18.505  0.00  0.00    +0.000 C 
ATOM     12  C   UNL     1       1.182  12.312  20.858  0.00  0.00    +0.000 C 
ATOM     13  N   UNL     1       0.770  13.507  21.612  0.00  0.00    +0.000 N 
ATOM     14  C   UNL     1       1.472  14.715  21.660  0.00  0.00    +0.000 C 
ATOM     15  O   UNL     1       0.985  15.710  22.199  0.00  0.00    +0.000 OA
ATOM     16  C   UNL     1      -0.587  13.460  22.187  0.00  0.00    +0.000 C 
ATOM     17  C   UNL     1      -1.663  13.361  21.086  0.00  0.00    +0.000 C 
ENDROOT
BRANCH  14  18
ATOM     18  C   UNL     1       2.797  14.802  21.029  0.00  0.00    +0.000 A 
ATOM     19  N   UNL     1       3.048  15.169  19.710  0.00  0.00    +0.000 NA
ATOM     20  C   UNL     1       4.358  15.190  19.597  0.00  0.00    +0.000 A 
ATOM     21  N   UNL     1       4.971  14.811  20.760  0.00  0.00    +0.000 N 
ATOM     22  C   UNL     1       6.320  14.754  21.041  0.00  0.00    +0.000 A 
ATOM     23  O   UNL     1       7.132  15.071  20.185  0.00  0.00    +0.000 OA
ATOM     24  N   UNL     1       6.535  14.337  22.341  0.00  0.00    +0.000 N 
ATOM     25  C   UNL     1       7.883  14.243  22.859  0.00  0.00    +0.000 C 
ATOM     26  N   UNL     1       5.541  14.001  23.234  0.00  0.00    +0.000 NA
ATOM     27  N   UNL     1       4.338  14.094  22.901  0.00  0.00    +0.000 NA
ATOM     28  C   UNL     1       3.995  14.515  21.665  0.00  0.00    +0.000 A 
ENDBRANCH  14  18
TORSDOF 1
ENDMDL
MODEL 9
REMARK VINA RESULT:      -6.6      3.206      5.384
REMARK  Name = 
REMARK  4 active torsions:
REMARK  status: ('A' for Active; 'I' for Inactive)
REMARK    1  A    between atoms: C_1  and  C_2
REMARK    2  A    between atoms: N_10  and  C_11
REMARK    3  A    between atoms: C_14  and  C_16
REMARK    4  A    between atoms: N_22  and  C_23
REMARK                            x       y       z     vdW  Elec       q    Type
REMARK                         _______ _______ _______ _____ _____    ______ ____
ROOT
ATOM      1  C   UNL     1      -4.233  13.881  20.852  0.00  0.00    +0.000 C 
ATOM      2  C   UNL     1      -3.189  12.912  21.321  0.00  0.00    +0.000 A 
ATOM      3  C   UNL     1      -3.152  12.471  22.646  0.00  0.00    +0.000 A 
ATOM      4  C   UNL     1      -2.174  11.571  23.088  0.00  0.00    +0.000 A 
ATOM      5  C   UNL     1      -1.224  11.120  22.161  0.00  0.00    +0.000 A 
ATOM      6  C   UNL     1      -1.235  11.543  20.828  0.00  0.00    +0.000 A 
ATOM      7  C   UNL     1      -2.231  12.445  20.408  0.00  0.00    +0.000 A 
ATOM      8  C   UNL     1      -0.156  10.901  20.174  0.00  0.00    +0.000 A 
ATOM      9  C   UNL     1       0.491  10.107  21.101  0.00  0.00    +0.000 A 
ATOM     10  N   UNL     1      -0.159  10.242  22.302  0.00  0.00    +0.000 N 
ATOM     11  C   UNL     1       0.176   9.577  23.543  0.00  0.00    +0.000 C 
ATOM     12  C   UNL     1       1.683   9.244  20.835  0.00  0.00    +0.000 C 
ATOM     13  N   UNL     1       1.865   9.137  19.379  0.00  0.00    +0.000 N 
ATOM     14  C   UNL     1       1.980   7.942  18.664  0.00  0.00    +0.000 C 
ATOM     15  O   UNL     1       1.987   7.939  17.432  0.00  0.00    +0.000 OA
ATOM     16  C   UNL     1       1.715  10.396  18.624  0.00  0.00    +0.000 C 
ATOM     17  C   UNL     1       0.285  10.960  18.750  0.00  0.00    +0.000 C 
ENDROOT
BRANCH  14  18
ATOM     18  C   UNL     1       2.059   6.670  19.398  0.00  0.00    +0.000 A 
ATOM     19  N   UNL     1       1.621   6.453  20.702  0.00  0.00    +0.000 NA
ATOM     20  C   UNL     1       1.809   5.171  20.924  0.00  0.00    +0.000 A 
ATOM     21  N   UNL     1       2.389   4.553  19.850  0.00  0.00    +0.000 N 
ATOM     22  C   UNL     1       2.696   3.218  19.692  0.00  0.00    +0.000 A 
ATOM     23  O   UNL     1       2.444   2.426  20.587  0.00  0.00    +0.000 OA
ATOM     24  N   UNL     1       3.259   2.986  18.451  0.00  0.00    +0.000 N 
ATOM     25  C   UNL     1       3.624   1.642  18.059  0.00  0.00    +0.000 C 
ATOM     26  N   UNL     1       3.504   3.957  17.505  0.00  0.00    +0.000 NA
ATOM     27  N   UNL     1       3.181   5.146  17.725  0.00  0.00    +0.000 NA
ATOM     28  C   UNL     1       2.599   5.498  18.890  0.00  0.00    +0.000 A 
ENDBRANCH  14  18
TORSDOF 1
ENDMDL
