MODEL 1
REMARK VINA RESULT:      -8.4      0.000      0.000
REMARK  Name = 
REMARK  5 active torsions:
REMARK  status: ('A' for Active; 'I' for Inactive)
REMARK    1  A    between atoms: C_1  and  C_2
REMARK    2  A    between atoms: C_8  and  C_9
REMARK    3  A    between atoms: C_9  and  C_10
REMARK    4  A    between atoms: C_10  and  O_12
REMARK    5  A    between atoms: N_20  and  C_21
REMARK                            x       y       z     vdW  Elec       q    Type
REMARK                         _______ _______ _______ _____ _____    ______ ____
ROOT
ATOM      1  C   UNL     1      -3.954  13.105  19.969  0.00  0.00    +0.000 C 
ATOM      2  C   UNL     1      -3.397  11.942  19.210  0.00  0.00    +0.000 A 
ATOM      3  C   UNL     1      -4.221  11.204  18.344  0.00  0.00    +0.000 A 
ATOM      4  C   UNL     1      -3.751  10.073  17.677  0.00  0.00    +0.000 A 
ATOM      5  C   UNL     1      -2.434   9.643  17.873  0.00  0.00    +0.000 A 
ATOM      6  C   UNL     1      -1.608  10.371  18.719  0.00  0.00    +0.000 A 
ATOM      7  C   UNL     1      -2.066  11.530  19.359  0.00  0.00    +0.000 A 
ATOM      8  C   UNL     1      -1.015  12.141  20.240  0.00  0.00    +0.000 C 
ATOM      9  C   UNL     1       0.143  11.136  20.143  0.00  0.00    +0.000 C 
ATOM     10  C   UNL     1      -0.192  10.028  19.109  0.00  0.00    +0.000 C 
ATOM     11  C   UNL     1      -0.089   8.658  19.799  0.00  0.00    +0.000 C 
ATOM     12  C   UNL     1       1.349   8.429  20.254  0.00  0.00    +0.000 C 
ATOM     13  N   UNL     1       2.250   8.463  19.103  0.00  0.00    +0.000 N 
ATOM     14  C   UNL     1       2.997   7.395  18.647  0.00  0.00    +0.000 C 
ATOM     15  O   UNL     1       3.659   7.423  17.613  0.00  0.00    +0.000 OA
ATOM     16  N   UNL     1       2.867   6.262  19.397  0.00  0.00    +0.000 N 
ATOM     17  C   UNL     1       2.206   9.683  18.297  0.00  0.00    +0.000 C 
ATOM     18  C   UNL     1       0.767  10.042  17.900  0.00  0.00    +0.000 C 
ATOM     19  H   UNL     1       2.692   6.354  20.381  0.00  0.00    +0.000 HD
ENDROOT
BRANCH  16  20
ATOM     20  C   UNL     1       3.278   4.970  18.920  0.00  0.00    +0.000 C 
ATOM     21  C   UNL     1       3.339   3.886  20.015  0.00  0.00    +0.000 C 
ATOM     22  C   UNL     1       3.994   2.650  19.364  0.00  0.00    +0.000 C 
ATOM     23  C   UNL     1       3.139   2.162  18.177  0.00  0.00    +0.000 C 
ATOM     24  C   UNL     1       1.745   1.786  18.704  0.00  0.00    +0.000 C 
ATOM     25  C   UNL     1       1.067   3.014  19.339  0.00  0.00    +0.000 C 
ATOM     26  C   UNL     1       1.924   3.527  20.507  0.00  0.00    +0.000 C 
ATOM     27  C   UNL     1       0.952   4.129  18.289  0.00  0.00    +0.000 C 
ATOM     28  C   UNL     1       2.352   4.516  17.772  0.00  0.00    +0.000 C 
ATOM     29  C   UNL     1       2.998   3.283  17.127  0.00  0.00    +0.000 C 
ENDBRANCH  16  20
BRANCH   8  30
ATOM     30  C   UNL     1      -0.542  13.541  19.843  0.00  0.00    +0.000 C 
BRANCH  30  31
ATOM     31  C   UNL     1       0.167  13.521  18.502  0.00  0.00    +0.000 C 
ATOM     32  O   UNL     1       1.374  13.633  18.337  0.00  0.00    +0.000 OA
BRANCH  31  33
ATOM     33  O   UNL     1      -0.687  13.363  17.470  0.00  0.00    +0.000 OA
ATOM     34  H   UNL     1      -1.201  12.534  17.506  0.00  0.00    +0.000 HD
ENDBRANCH  31  33
ENDBRANCH  30  31
ENDBRANCH   8  30
TORSDOF 4
ENDMDL
MODEL 2
REMARK VINA RESULT:      -8.4      0.882      1.064
REMARK  Name = 
REMARK  5 active torsions:
REMARK  status: ('A' for Active; 'I' for Inactive)
REMARK    1  A    between atoms: C_1  and  C_2
REMARK    2  A    between atoms: C_8  and  C_9
REMARK    3  A    between atoms: C_9  and  C_10
REMARK    4  A    between atoms: C_10  and  O_12
REMARK    5  A    between atoms: N_20  and  C_21
REMARK                            x       y       z     vdW  Elec       q    Type
REMARK                         _______ _______ _______ _____ _____    ______ ____
ROOT
ATOM      1  C   UNL     1      -3.742  13.364  20.186  0.00  0.00    +0.000 C 
ATOM      2  C   UNL     1      -3.261  12.194  19.387  0.00  0.00    +0.000 A 
ATOM      3  C   UNL     1      -4.145  11.505  18.540  0.00  0.00    +0.000 A 
ATOM      4  C   UNL     1      -3.745  10.368  17.837  0.00  0.00    +0.000 A 
ATOM      5  C   UNL     1      -2.440   9.883  17.977  0.00  0.00    +0.000 A 
ATOM      6  C   UNL     1      -1.556  10.562  18.804  0.00  0.00    +0.000 A 
ATOM      7  C   UNL     1      -1.943  11.727  19.479  0.00  0.00    +0.000 A 
ATOM      8  C   UNL     1      -0.837  12.279  20.331  0.00  0.00    +0.000 C 
ATOM      9  C   UNL     1       0.276  11.231  20.175  0.00  0.00    +0.000 C 
ATOM     10  C   UNL     1      -0.142  10.156  19.135  0.00  0.00    +0.000 C 
ATOM     11  C   UNL     1      -0.068   8.771  19.798  0.00  0.00    +0.000 C 
ATOM     12  C   UNL     1       1.374   8.476  20.196  0.00  0.00    +0.000 C 
ATOM     13  N   UNL     1       2.233   8.496  19.012  0.00  0.00    +0.000 N 
ATOM     14  C   UNL     1       2.920   7.407  18.512  0.00  0.00    +0.000 C 
ATOM     15  O   UNL     1       3.544   7.428  17.454  0.00  0.00    +0.000 OA
ATOM     16  N   UNL     1       2.771   6.267  19.246  0.00  0.00    +0.000 N 
ATOM     17  C   UNL     1       2.209   9.730  18.229  0.00  0.00    +0.000 C 
ATOM     18  C   UNL     1       0.773  10.154  17.892  0.00  0.00    +0.000 C 
ATOM     19  H   UNL     1       2.637   6.348  20.238  0.00  0.00    +0.000 HD
ENDROOT
BRANCH  16  20
ATOM     20  C   UNL     1       3.113   4.968  18.734  0.00  0.00    +0.000 C 
ATOM     21  C   UNL     1       3.663   3.997  19.797  0.00  0.00    +0.000 C 
ATOM     22  C   UNL     1       4.163   2.755  19.031  0.00  0.00    +0.000 C 
ATOM     23  C   UNL     1       2.996   2.101  18.263  0.00  0.00    +0.000 C 
ATOM     24  C   UNL     1       1.922   1.679  19.279  0.00  0.00    +0.000 C 
ATOM     25  C   UNL     1       1.396   2.910  20.040  0.00  0.00    +0.000 C 
ATOM     26  C   UNL     1       2.555   3.587  20.787  0.00  0.00    +0.000 C 
ATOM     27  C   UNL     1       0.808   3.912  19.036  0.00  0.00    +0.000 C 
ATOM     28  C   UNL     1       1.889   4.346  18.026  0.00  0.00    +0.000 C 
ATOM     29  C   UNL     1       2.384   3.108  17.269  0.00  0.00    +0.000 C 
ENDBRANCH  16  20
BRANCH   8  30
ATOM     30  C   UNL     1      -0.322  13.666  19.940  0.00  0.00    +0.000 C 
BRANCH  30  31
ATOM     31  C   UNL     1       1.008  13.966  20.605  0.00  0.00    +0.000 C 
ATOM     32  O   UNL     1       2.063  14.167  20.020  0.00  0.00    +0.000 OA
BRANCH  31  33
ATOM     33  O   UNL     1       0.916  13.991  21.950  0.00  0.00    +0.000 OA
ATOM     34  H   UNL     1       1.319  14.780  22.360  0.00  0.00    +0.000 HD
ENDBRANCH  31  33
ENDBRANCH  30  31
ENDBRANCH   8  30
TORSDOF 4
ENDMDL
MODEL 3
REMARK VINA RESULT:      -8.4      1.234      1.744
REMARK  Name = 
REMARK  5 active torsions:
REMARK  status: ('A' for Active; 'I' for Inactive)
REMARK    1  A    between atoms: C_1  and  C_2
REMARK    2  A    between atoms: C_8  and  C_9
REMARK    3  A    between atoms: C_9  and  C_10
REMARK    4  A    between atoms: C_10  and  O_12
REMARK    5  A    between atoms: N_20  and  C_21
REMARK                            x       y       z     vdW  Elec       q    Type
REMARK                         _______ _______ _______ _____ _____    ______ ____
ROOT
ATOM      1  C   UNL     1      -4.392  13.891  21.160  0.00  0.00    +0.000 C 
ATOM      2  C   UNL     1      -3.900  12.914  20.139  0.00  0.00    +0.000 A 
ATOM      3  C   UNL     1      -4.780  12.399  19.172  0.00  0.00    +0.000 A 
ATOM      4  C   UNL     1      -4.370  11.435  18.252  0.00  0.00    +0.000 A 
ATOM      5  C   UNL     1      -3.057  10.949  18.286  0.00  0.00    +0.000 A 
ATOM      6  C   UNL     1      -2.177  11.458  19.231  0.00  0.00    +0.000 A 
ATOM      7  C   UNL     1      -2.575  12.456  20.130  0.00  0.00    +0.000 A 
ATOM      8  C   UNL     1      -1.472  12.840  21.073  0.00  0.00    +0.000 C 
ATOM      9  C   UNL     1      -0.346  11.861  20.703  0.00  0.00    +0.000 C 
ATOM     10  C   UNL     1      -0.756  11.014  19.469  0.00  0.00    +0.000 C 
ATOM     11  C   UNL     1      -0.660   9.524  19.836  0.00  0.00    +0.000 C 
ATOM     12  C   UNL     1       0.789   9.175  20.161  0.00  0.00    +0.000 C 
ATOM     13  N   UNL     1       1.640   9.447  19.003  0.00  0.00    +0.000 N 
ATOM     14  C   UNL     1       2.338   8.492  18.290  0.00  0.00    +0.000 C 
ATOM     15  O   UNL     1       2.955   8.736  17.257  0.00  0.00    +0.000 OA
ATOM     16  N   UNL     1       2.209   7.224  18.778  0.00  0.00    +0.000 N 
ATOM     17  C   UNL     1       1.595  10.814  18.488  0.00  0.00    +0.000 C 
ATOM     18  C   UNL     1       0.151  11.277  18.248  0.00  0.00    +0.000 C 
ATOM     19  H   UNL     1       2.079   7.100  19.766  0.00  0.00    +0.000 HD
ENDROOT
BRANCH  16  20
ATOM     20  C   UNL     1       2.564   6.062  18.011  0.00  0.00    +0.000 C 
ATOM     21  C   UNL     1       4.073   5.748  18.008  0.00  0.00    +0.000 C 
ATOM     22  C   UNL     1       4.278   4.618  16.978  0.00  0.00    +0.000 C 
ATOM     23  C   UNL     1       3.474   3.370  17.396  0.00  0.00    +0.000 C 
ATOM     24  C   UNL     1       3.977   2.906  18.773  0.00  0.00    +0.000 C 
ATOM     25  C   UNL     1       3.761   4.016  19.819  0.00  0.00    +0.000 C 
ATOM     26  C   UNL     1       4.536   5.275  19.400  0.00  0.00    +0.000 C 
ATOM     27  C   UNL     1       2.267   4.361  19.891  0.00  0.00    +0.000 C 
ATOM     28  C   UNL     1       1.766   4.839  18.513  0.00  0.00    +0.000 C 
ATOM     29  C   UNL     1       1.974   3.712  17.494  0.00  0.00    +0.000 C 
ENDBRANCH  16  20
BRANCH   8  30
ATOM     30  C   UNL     1      -0.977  14.285  20.970  0.00  0.00    +0.000 C 
BRANCH  30  31
ATOM     31  C   UNL     1      -0.052  14.465  19.782  0.00  0.00    +0.000 C 
ATOM     32  O   UNL     1       1.170  14.446  19.826  0.00  0.00    +0.000 OA
BRANCH  31  33
ATOM     33  O   UNL     1      -0.726  14.657  18.630  0.00  0.00    +0.000 OA
ATOM     34  H   UNL     1      -0.220  14.415  17.830  0.00  0.00    +0.000 HD
ENDBRANCH  31  33
ENDBRANCH  30  31
ENDBRANCH   8  30
TORSDOF 4
ENDMDL
MODEL 4
REMARK VINA RESULT:      -8.4      1.563      2.078
REMARK  Name = 
REMARK  5 active torsions:
REMARK  status: ('A' for Active; 'I' for Inactive)
REMARK    1  A    between atoms: C_1  and  C_2
REMARK    2  A    between atoms: C_8  and  C_9
REMARK    3  A    between atoms: C_9  and  C_10
REMARK    4  A    between atoms: C_10  and  O_12
REMARK    5  A    between atoms: N_20  and  C_21
REMARK                            x       y       z     vdW  Elec       q    Type
REMARK                         _______ _______ _______ _____ _____    ______ ____
ROOT
ATOM      1  C   UNL     1      -2.971  14.249  21.354  0.00  0.00    +0.000 C 
ATOM      2  C   UNL     1      -2.756  13.123  20.392  0.00  0.00    +0.000 A 
ATOM      3  C   UNL     1      -3.815  12.671  19.586  0.00  0.00    +0.000 A 
ATOM      4  C   UNL     1      -3.666  11.579  18.731  0.00  0.00    +0.000 A 
ATOM      5  C   UNL     1      -2.444  10.899  18.672  0.00  0.00    +0.000 A 
ATOM      6  C   UNL     1      -1.389  11.344  19.456  0.00  0.00    +0.000 A 
ATOM      7  C   UNL     1      -1.523  12.465  20.286  0.00  0.00    +0.000 A 
ATOM      8  C   UNL     1      -0.267  12.751  21.057  0.00  0.00    +0.000 C 
ATOM      9  C   UNL     1       0.649  11.580  20.669  0.00  0.00    +0.000 C 
ATOM     10  C   UNL     1      -0.029  10.705  19.582  0.00  0.00    +0.000 C 
ATOM     11  C   UNL     1      -0.105   9.255  20.089  0.00  0.00    +0.000 C 
ATOM     12  C   UNL     1       1.307   8.714  20.287  0.00  0.00    +0.000 C 
ATOM     13  N   UNL     1       2.038   8.749  19.021  0.00  0.00    +0.000 N 
ATOM     14  C   UNL     1       2.497   7.639  18.338  0.00  0.00    +0.000 C 
ATOM     15  O   UNL     1       3.010   7.694  17.224  0.00  0.00    +0.000 OA
ATOM     16  N   UNL     1       2.246   6.454  18.966  0.00  0.00    +0.000 N 
ATOM     17  C   UNL     1       2.129  10.057  18.374  0.00  0.00    +0.000 C 
ATOM     18  C   UNL     1       0.748  10.717  18.248  0.00  0.00    +0.000 C 
ATOM     19  H   UNL     1       2.224   6.437  19.970  0.00  0.00    +0.000 HD
ENDROOT
BRANCH  16  20
ATOM     20  C   UNL     1       2.332   5.189  18.289  0.00  0.00    +0.000 C 
ATOM     21  C   UNL     1       3.773   4.730  17.994  0.00  0.00    +0.000 C 
ATOM     22  C   UNL     1       3.655   3.484  17.092  0.00  0.00    +0.000 C 
ATOM     23  C   UNL     1       2.880   2.371  17.827  0.00  0.00    +0.000 C 
ATOM     24  C   UNL     1       3.650   2.006  19.107  0.00  0.00    +0.000 C 
ATOM     25  C   UNL     1       3.760   3.234  20.030  0.00  0.00    +0.000 C 
ATOM     26  C   UNL     1       4.507   4.361  19.298  0.00  0.00    +0.000 C 
ATOM     27  C   UNL     1       2.351   3.730  20.384  0.00  0.00    +0.000 C 
ATOM     28  C   UNL     1       1.584   4.109  19.101  0.00  0.00    +0.000 C 
ATOM     29  C   UNL     1       1.470   2.868  18.208  0.00  0.00    +0.000 C 
ENDBRANCH  16  20
BRANCH   8  30
ATOM     30  C   UNL     1       0.415  14.087  20.751  0.00  0.00    +0.000 C 
BRANCH  30  31
ATOM     31  C   UNL     1       1.138  14.625  21.971  0.00  0.00    +0.000 C 
ATOM     32  O   UNL     1       2.324  14.460  22.221  0.00  0.00    +0.000 OA
BRANCH  31  33
ATOM     33  O   UNL     1       0.324  15.328  22.784  0.00  0.00    +0.000 OA
ATOM     34  H   UNL     1       0.746  15.613  23.617  0.00  0.00    +0.000 HD
ENDBRANCH  31  33
ENDBRANCH  30  31
ENDBRANCH   8  30
TORSDOF 4
ENDMDL
MODEL 5
REMARK VINA RESULT:      -8.3      1.912      2.406
REMARK  Name = 
REMARK  5 active torsions:
REMARK  status: ('A' for Active; 'I' for Inactive)
REMARK    1  A    between atoms: C_1  and  C_2
REMARK    2  A    between atoms: C_8  and  C_9
REMARK    3  A    between atoms: C_9  and  C_10
REMARK    4  A    between atoms: C_10  and  O_12
REMARK    5  A    between atoms: N_20  and  C_21
REMARK                            x       y       z     vdW  Elec       q    Type
REMARK                         _______ _______ _______ _____ _____    ______ ____
ROOT
ATOM      1  C   UNL     1      -4.424  13.985  21.389  0.00  0.00    +0.000 C 
ATOM      2  C   UNL     1      -3.946  13.020  20.350  0.00  0.00    +0.000 A 
ATOM      3  C   UNL     1      -4.841  12.511  19.394  0.00  0.00    +0.000 A 
ATOM      4  C   UNL     1      -4.443  11.557  18.458  0.00  0.00    +0.000 A 
ATOM      5  C   UNL     1      -3.129  11.076  18.465  0.00  0.00    +0.000 A 
ATOM      6  C   UNL     1      -2.234  11.579  19.399  0.00  0.00    +0.000 A 
ATOM      7  C   UNL     1      -2.620  12.567  20.315  0.00  0.00    +0.000 A 
ATOM      8  C   UNL     1      -1.502  12.946  21.242  0.00  0.00    +0.000 C 
ATOM      9  C   UNL     1      -0.380  11.974  20.844  0.00  0.00    +0.000 C 
ATOM     10  C   UNL     1      -0.807  11.138  19.608  0.00  0.00    +0.000 C 
ATOM     11  C   UNL     1      -0.700   9.645  19.960  0.00  0.00    +0.000 C 
ATOM     12  C   UNL     1       0.755   9.298  20.256  0.00  0.00    +0.000 C 
ATOM     13  N   UNL     1       1.586   9.584  19.087  0.00  0.00    +0.000 N 
ATOM     14  C   UNL     1       2.275   8.639  18.353  0.00  0.00    +0.000 C 
ATOM     15  O   UNL     1       2.874   8.895  17.311  0.00  0.00    +0.000 OA
ATOM     16  N   UNL     1       2.158   7.366  18.831  0.00  0.00    +0.000 N 
ATOM     17  C   UNL     1       1.527  10.956  18.585  0.00  0.00    +0.000 C 
ATOM     18  C   UNL     1       0.078  11.416  18.374  0.00  0.00    +0.000 C 
ATOM     19  H   UNL     1       2.046   7.232  19.819  0.00  0.00    +0.000 HD
ENDROOT
BRANCH  16  20
ATOM     20  C   UNL     1       2.504   6.212  18.047  0.00  0.00    +0.000 C 
ATOM     21  C   UNL     1       4.010   5.880  18.048  0.00  0.00    +0.000 C 
ATOM     22  C   UNL     1       4.208   4.765  17.001  0.00  0.00    +0.000 C 
ATOM     23  C   UNL     1       3.386   3.520  17.393  0.00  0.00    +0.000 C 
ATOM     24  C   UNL     1       3.875   3.028  18.765  0.00  0.00    +0.000 C 
ATOM     25  C   UNL     1       3.666   4.122  19.828  0.00  0.00    +0.000 C 
ATOM     26  C   UNL     1       4.458   5.379  19.434  0.00  0.00    +0.000 C 
ATOM     27  C   UNL     1       2.175   4.484  19.897  0.00  0.00    +0.000 C 
ATOM     28  C   UNL     1       1.689   4.991  18.524  0.00  0.00    +0.000 C 
ATOM     29  C   UNL     1       1.889   3.879  17.487  0.00  0.00    +0.000 C 
ENDBRANCH  16  20
BRANCH   8  30
ATOM     30  C   UNL     1      -1.014  14.393  21.144  0.00  0.00    +0.000 C 
BRANCH  30  31
ATOM     31  C   UNL     1      -1.037  15.073  22.500  0.00  0.00    +0.000 C 
ATOM     32  O   UNL     1      -0.427  14.696  23.492  0.00  0.00    +0.000 OA
BRANCH  31  33
ATOM     33  O   UNL     1      -1.820  16.170  22.513  0.00  0.00    +0.000 OA
ATOM     34  H   UNL     1      -2.451  16.197  23.258  0.00  0.00    +0.000 HD
ENDBRANCH  31  33
ENDBRANCH  30  31
ENDBRANCH   8  30
TORSDOF 4
ENDMDL
MODEL 6
REMARK VINA RESULT:      -8.1      2.441      4.074
REMARK  Name = 
REMARK  5 active torsions:
REMARK  status: ('A' for Active; 'I' for Inactive)
REMARK    1  A    between atoms: C_1  and  C_2
REMARK    2  A    between atoms: C_8  and  C_9
REMARK    3  A    between atoms: C_9  and  C_10
REMARK    4  A    between atoms: C_10  and  O_12
REMARK    5  A    between atoms: N_20  and  C_21
REMARK                            x       y       z     vdW  Elec       q    Type
REMARK                         _______ _______ _______ _____ _____    ______ ____
ROOT
ATOM      1  C   UNL     1      -1.143  15.443  19.383  0.00  0.00    +0.000 C 
ATOM      2  C   UNL     1       0.012  14.570  19.760  0.00  0.00    +0.000 A 
ATOM      3  C   UNL     1       1.159  15.130  20.348  0.00  0.00    +0.000 A 
ATOM      4  C   UNL     1       2.279  14.355  20.646  0.00  0.00    +0.000 A 
ATOM      5  C   UNL     1       2.283  12.987  20.347  0.00  0.00    +0.000 A 
ATOM      6  C   UNL     1       1.151  12.422  19.775  0.00  0.00    +0.000 A 
ATOM      7  C   UNL     1       0.010  13.191  19.512  0.00  0.00    +0.000 A 
ATOM      8  C   UNL     1      -1.081  12.381  18.874  0.00  0.00    +0.000 C 
ATOM      9  C   UNL     1      -0.421  11.007  18.677  0.00  0.00    +0.000 C 
ATOM     10  C   UNL     1       0.991  10.993  19.319  0.00  0.00    +0.000 C 
ATOM     11  C   UNL     1       2.020  10.600  18.247  0.00  0.00    +0.000 C 
ATOM     12  C   UNL     1       1.731   9.182  17.764  0.00  0.00    +0.000 C 
ATOM     13  N   UNL     1       1.814   8.246  18.885  0.00  0.00    +0.000 N 
ATOM     14  C   UNL     1       2.743   7.232  19.004  0.00  0.00    +0.000 C 
ATOM     15  O   UNL     1       2.857   6.532  20.008  0.00  0.00    +0.000 OA
ATOM     16  N   UNL     1       3.596   7.127  17.944  0.00  0.00    +0.000 N 
ATOM     17  C   UNL     1       0.943   8.537  20.023  0.00  0.00    +0.000 C 
ATOM     18  C   UNL     1       1.096   9.992  20.490  0.00  0.00    +0.000 C 
ATOM     19  H   UNL     1       3.262   7.381  17.032  0.00  0.00    +0.000 HD
ENDROOT
BRANCH  16  20
ATOM     20  C   UNL     1       4.822   6.381  18.010  0.00  0.00    +0.000 C 
ATOM     21  C   UNL     1       4.629   4.851  17.991  0.00  0.00    +0.000 C 
ATOM     22  C   UNL     1       6.014   4.237  18.281  0.00  0.00    +0.000 C 
ATOM     23  C   UNL     1       7.020   4.662  17.192  0.00  0.00    +0.000 C 
ATOM     24  C   UNL     1       6.509   4.155  15.834  0.00  0.00    +0.000 C 
ATOM     25  C   UNL     1       5.135   4.775  15.517  0.00  0.00    +0.000 C 
ATOM     26  C   UNL     1       4.129   4.381  16.611  0.00  0.00    +0.000 C 
ATOM     27  C   UNL     1       5.262   6.305  15.496  0.00  0.00    +0.000 C 
ATOM     28  C   UNL     1       5.761   6.814  16.864  0.00  0.00    +0.000 C 
ATOM     29  C   UNL     1       7.137   6.199  17.147  0.00  0.00    +0.000 C 
ENDBRANCH  16  20
BRANCH   8  30
ATOM     30  C   UNL     1      -2.372  12.242  19.685  0.00  0.00    +0.000 C 
BRANCH  30  31
ATOM     31  C   UNL     1      -3.553  11.924  18.788  0.00  0.00    +0.000 C 
ATOM     32  O   UNL     1      -3.640  10.953  18.049  0.00  0.00    +0.000 OA
BRANCH  31  33
ATOM     33  O   UNL     1      -4.533  12.845  18.883  0.00  0.00    +0.000 OA
ATOM     34  H   UNL     1      -5.415  12.467  19.065  0.00  0.00    +0.000 HD
ENDBRANCH  31  33
ENDBRANCH  30  31
ENDBRANCH   8  30
TORSDOF 4
ENDMDL
MODEL 7
REMARK VINA RESULT:      -8.0      1.028      1.727
REMARK  Name = 
REMARK  5 active torsions:
REMARK  status: ('A' for Active; 'I' for Inactive)
REMARK    1  A    between atoms: C_1  and  C_2
REMARK    2  A    between atoms: C_8  and  C_9
REMARK    3  A    between atoms: C_9  and  C_10
REMARK    4  A    between atoms: C_10  and  O_12
REMARK    5  A    between atoms: N_20  and  C_21
REMARK                            x       y       z     vdW  Elec       q    Type
REMARK                         _______ _______ _______ _____ _____    ______ ____
ROOT
ATOM      1  C   UNL     1      -2.574  14.309  21.566  0.00  0.00    +0.000 C 
ATOM      2  C   UNL     1      -2.448  13.172  20.601  0.00  0.00    +0.000 A 
ATOM      3  C   UNL     1      -3.561  12.756  19.851  0.00  0.00    +0.000 A 
ATOM      4  C   UNL     1      -3.495  11.655  18.997  0.00  0.00    +0.000 A 
ATOM      5  C   UNL     1      -2.303  10.931  18.881  0.00  0.00    +0.000 A 
ATOM      6  C   UNL     1      -1.195  11.340  19.610  0.00  0.00    +0.000 A 
ATOM      7  C   UNL     1      -1.247  12.469  20.438  0.00  0.00    +0.000 A 
ATOM      8  C   UNL     1       0.055  12.711  21.144  0.00  0.00    +0.000 C 
ATOM      9  C   UNL     1       0.908  11.506  20.720  0.00  0.00    +0.000 C 
ATOM     10  C   UNL     1       0.145  10.651  19.672  0.00  0.00    +0.000 C 
ATOM     11  C   UNL     1       0.041   9.208  20.191  0.00  0.00    +0.000 C 
ATOM     12  C   UNL     1       1.440   8.615  20.323  0.00  0.00    +0.000 C 
ATOM     13  N   UNL     1       2.109   8.618  19.023  0.00  0.00    +0.000 N 
ATOM     14  C   UNL     1       2.491   7.489  18.325  0.00  0.00    +0.000 C 
ATOM     15  O   UNL     1       2.951   7.520  17.186  0.00  0.00    +0.000 OA
ATOM     16  N   UNL     1       2.229   6.316  18.972  0.00  0.00    +0.000 N 
ATOM     17  C   UNL     1       2.215   9.919  18.364  0.00  0.00    +0.000 C 
ATOM     18  C   UNL     1       0.855  10.629  18.301  0.00  0.00    +0.000 C 
ATOM     19  H   UNL     1       2.256   6.305  19.976  0.00  0.00    +0.000 HD
ENDROOT
BRANCH  16  20
ATOM     20  C   UNL     1       2.235   5.046  18.300  0.00  0.00    +0.000 C 
ATOM     21  C   UNL     1       3.644   4.517  17.966  0.00  0.00    +0.000 C 
ATOM     22  C   UNL     1       3.440   3.275  17.075  0.00  0.00    +0.000 C 
ATOM     23  C   UNL     1       2.633   2.203  17.837  0.00  0.00    +0.000 C 
ATOM     24  C   UNL     1       3.421   1.807  19.096  0.00  0.00    +0.000 C 
ATOM     25  C   UNL     1       3.617   3.032  20.009  0.00  0.00    +0.000 C 
ATOM     26  C   UNL     1       4.396   4.118  19.251  0.00  0.00    +0.000 C 
ATOM     27  C   UNL     1       2.244   3.596  20.401  0.00  0.00    +0.000 C 
ATOM     28  C   UNL     1       1.460   4.007  19.138  0.00  0.00    +0.000 C 
ATOM     29  C   UNL     1       1.261   2.768  18.255  0.00  0.00    +0.000 C 
ENDBRANCH  16  20
BRANCH   8  30
ATOM     30  C   UNL     1       0.770  14.020  20.798  0.00  0.00    +0.000 C 
BRANCH  30  31
ATOM     31  C   UNL     1       0.863  14.212  19.296  0.00  0.00    +0.000 C 
ATOM     32  O   UNL     1      -0.042  14.609  18.575  0.00  0.00    +0.000 OA
BRANCH  31  33
ATOM     33  O   UNL     1       2.081  13.895  18.811  0.00  0.00    +0.000 OA
ATOM     34  H   UNL     1       2.075  13.622  17.874  0.00  0.00    +0.000 HD
ENDBRANCH  31  33
ENDBRANCH  30  31
ENDBRANCH   8  30
TORSDOF 4
ENDMDL
MODEL 8
REMARK VINA RESULT:      -7.8      2.464      4.057
REMARK  Name = 
REMARK  5 active torsions:
REMARK  status: ('A' for Active; 'I' for Inactive)
REMARK    1  A    between atoms: C_1  and  C_2
REMARK    2  A    between atoms: C_8  and  C_9
REMARK    3  A    between atoms: C_9  and  C_10
REMARK    4  A    between atoms: C_10  and  O_12
REMARK    5  A    between atoms: N_20  and  C_21
REMARK                            x       y       z     vdW  Elec       q    Type
REMARK                         _______ _______ _______ _____ _____    ______ ____
ROOT
ATOM      1  C   UNL     1      -0.819  15.812  19.033  0.00  0.00    +0.000 C 
ATOM      2  C   UNL     1       0.281  14.895  19.468  0.00  0.00    +0.000 A 
ATOM      3  C   UNL     1       1.456  15.419  20.034  0.00  0.00    +0.000 A 
ATOM      4  C   UNL     1       2.527  14.596  20.383  0.00  0.00    +0.000 A 
ATOM      5  C   UNL     1       2.451  13.217  20.161  0.00  0.00    +0.000 A 
ATOM      6  C   UNL     1       1.291  12.688  19.611  0.00  0.00    +0.000 A 
ATOM      7  C   UNL     1       0.198  13.506  19.297  0.00  0.00    +0.000 A 
ATOM      8  C   UNL     1      -0.936  12.728  18.696  0.00  0.00    +0.000 C 
ATOM      9  C   UNL     1      -0.357  11.309  18.580  0.00  0.00    +0.000 C 
ATOM     10  C   UNL     1       1.049  11.248  19.235  0.00  0.00    +0.000 C 
ATOM     11  C   UNL     1       2.058  10.735  18.194  0.00  0.00    +0.000 C 
ATOM     12  C   UNL     1       1.688   9.312  17.789  0.00  0.00    +0.000 C 
ATOM     13  N   UNL     1       1.710   8.437  18.960  0.00  0.00    +0.000 N 
ATOM     14  C   UNL     1       2.577   7.378  19.143  0.00  0.00    +0.000 C 
ATOM     15  O   UNL     1       2.644   6.730  20.185  0.00  0.00    +0.000 OA
ATOM     16  N   UNL     1       3.427   7.164  18.097  0.00  0.00    +0.000 N 
ATOM     17  C   UNL     1       0.852   8.842  20.073  0.00  0.00    +0.000 C 
ATOM     18  C   UNL     1       1.088  10.309  20.459  0.00  0.00    +0.000 C 
ATOM     19  H   UNL     1       3.113   7.386  17.169  0.00  0.00    +0.000 HD
ENDROOT
BRANCH  16  20
ATOM     20  C   UNL     1       4.607   6.352  18.215  0.00  0.00    +0.000 C 
ATOM     21  C   UNL     1       4.343   4.838  18.093  0.00  0.00    +0.000 C 
ATOM     22  C   UNL     1       5.668   4.137  18.453  0.00  0.00    +0.000 C 
ATOM     23  C   UNL     1       6.778   4.567  17.471  0.00  0.00    +0.000 C 
ATOM     24  C   UNL     1       6.353   4.161  16.051  0.00  0.00    +0.000 C 
ATOM     25  C   UNL     1       5.040   4.868  15.665  0.00  0.00    +0.000 C 
ATOM     26  C   UNL     1       3.933   4.469  16.653  0.00  0.00    +0.000 C 
ATOM     27  C   UNL     1       5.242   6.388  15.742  0.00  0.00    +0.000 C 
ATOM     28  C   UNL     1       5.654   6.796  17.171  0.00  0.00    +0.000 C 
ATOM     29  C   UNL     1       6.972   6.096  17.525  0.00  0.00    +0.000 C 
ENDBRANCH  16  20
BRANCH   8  30
ATOM     30  C   UNL     1      -2.236  12.710  19.503  0.00  0.00    +0.000 C 
BRANCH  30  31
ATOM     31  C   UNL     1      -1.957  12.665  20.993  0.00  0.00    +0.000 C 
ATOM     32  O   UNL     1      -1.573  11.681  21.612  0.00  0.00    +0.000 OA
BRANCH  31  33
ATOM     33  O   UNL     1      -2.178  13.851  21.595  0.00  0.00    +0.000 OA
ATOM     34  H   UNL     1      -1.636  13.997  22.393  0.00  0.00    +0.000 HD
ENDBRANCH  31  33
ENDBRANCH  30  31
ENDBRANCH   8  30
TORSDOF 4
ENDMDL
MODEL 9
REMARK VINA RESULT:      -7.7      2.270      8.673
REMARK  Name = 
REMARK  5 active torsions:
REMARK  status: ('A' for Active; 'I' for Inactive)
REMARK    1  A    between atoms: C_1  and  C_2
REMARK    2  A    between atoms: C_8  and  C_9
REMARK    3  A    between atoms: C_9  and  C_10
REMARK    4  A    between atoms: C_10  and  O_12
REMARK    5  A    between atoms: N_20  and  C_21
REMARK                            x       y       z     vdW  Elec       q    Type
REMARK                         _______ _______ _______ _____ _____    ______ ____
ROOT
ATOM      1  C   UNL     1       5.933   3.396  16.472  0.00  0.00    +0.000 C 
ATOM      2  C   UNL     1       4.570   3.700  17.010  0.00  0.00    +0.000 A 
ATOM      3  C   UNL     1       3.572   2.710  17.005  0.00  0.00    +0.000 A 
ATOM      4  C   UNL     1       2.273   2.983  17.433  0.00  0.00    +0.000 A 
ATOM      5  C   UNL     1       1.936   4.269  17.871  0.00  0.00    +0.000 A 
ATOM      6  C   UNL     1       2.917   5.250  17.889  0.00  0.00    +0.000 A 
ATOM      7  C   UNL     1       4.233   4.969  17.498  0.00  0.00    +0.000 A 
ATOM      8  C   UNL     1       5.116   6.180  17.576  0.00  0.00    +0.000 C 
ATOM      9  C   UNL     1       4.138   7.296  17.978  0.00  0.00    +0.000 C 
ATOM     10  C   UNL     1       2.732   6.701  18.257  0.00  0.00    +0.000 C 
ATOM     11  C   UNL     1       1.707   7.409  17.356  0.00  0.00    +0.000 C 
ATOM     12  C   UNL     1       1.650   8.889  17.720  0.00  0.00    +0.000 C 
ATOM     13  N   UNL     1       1.258   9.045  19.120  0.00  0.00    +0.000 N 
ATOM     14  C   UNL     1       0.093   9.645  19.556  0.00  0.00    +0.000 C 
ATOM     15  O   UNL     1      -0.261   9.663  20.732  0.00  0.00    +0.000 OA
ATOM     16  N   UNL     1      -0.689  10.141  18.553  0.00  0.00    +0.000 N 
ATOM     17  C   UNL     1       2.101   8.358  20.098  0.00  0.00    +0.000 C 
ATOM     18  C   UNL     1       2.299   6.881  19.728  0.00  0.00    +0.000 C 
ATOM     19  H   UNL     1      -0.244  10.482  17.720  0.00  0.00    +0.000 HD
ENDROOT
BRANCH  16  20
ATOM     20  C   UNL     1      -2.068  10.494  18.752  0.00  0.00    +0.000 C 
ATOM     21  C   UNL     1      -2.413  11.939  18.342  0.00  0.00    +0.000 C 
ATOM     22  C   UNL     1      -3.858  12.191  18.821  0.00  0.00    +0.000 C 
ATOM     23  C   UNL     1      -4.822  11.199  18.140  0.00  0.00    +0.000 C 
ATOM     24  C   UNL     1      -4.742  11.409  16.619  0.00  0.00    +0.000 C 
ATOM     25  C   UNL     1      -3.310  11.142  16.120  0.00  0.00    +0.000 C 
ATOM     26  C   UNL     1      -2.335  12.107  16.812  0.00  0.00    +0.000 C 
ATOM     27  C   UNL     1      -2.910   9.702  16.475  0.00  0.00    +0.000 C 
ATOM     28  C   UNL     1      -2.977   9.496  18.002  0.00  0.00    +0.000 C 
ATOM     29  C   UNL     1      -4.414   9.749  18.472  0.00  0.00    +0.000 C 
ENDBRANCH  16  20
BRANCH   8  30
ATOM     30  C   UNL     1       6.273   6.100  18.575  0.00  0.00    +0.000 C 
BRANCH  30  31
ATOM     31  C   UNL     1       7.530   6.735  18.012  0.00  0.00    +0.000 C 
ATOM     32  O   UNL     1       7.743   6.954  16.828  0.00  0.00    +0.000 OA
BRANCH  31  33
ATOM     33  O   UNL     1       8.424   7.046  18.973  0.00  0.00    +0.000 OA
ATOM     34  H   UNL     1       8.186   7.837  19.494  0.00  0.00    +0.000 HD
ENDBRANCH  31  33
ENDBRANCH  30  31
ENDBRANCH   8  30
TORSDOF 4
ENDMDL
