MODEL 1
REMARK VINA RESULT:      -7.7      0.000      0.000
REMARK  Name = 
REMARK  5 active torsions:
REMARK  status: ('A' for Active; 'I' for Inactive)
REMARK    1  A    between atoms: C_1  and  C_2
REMARK    2  A    between atoms: C_4  and  C_5
REMARK    3  A    between atoms: C_6  and  C_7
REMARK    4  A    between atoms: C_10  and  C_11
REMARK    5  A    between atoms: C_16  and  C_17
REMARK                            x       y       z     vdW  Elec       q    Type
REMARK                         _______ _______ _______ _____ _____    ______ ____
ROOT
ATOM      1  C   UNL     1       9.015  10.358  18.651  0.00  0.00    +0.000 A 
ATOM      2  C   UNL     1       9.648  10.415  19.884  0.00  0.00    +0.000 A 
ATOM      3  C   UNL     1      10.184  11.625  20.326  0.00  0.00    +0.000 A 
ATOM      4  C   UNL     1      10.076  12.773  19.534  0.00  0.00    +0.000 A 
ATOM      5  N   UNL     1       9.482  12.725  18.314  0.00  0.00    +0.000 NA
ATOM      6  C   UNL     1       8.977  11.530  17.900  0.00  0.00    +0.000 A 
ENDROOT
BRANCH   4   7
ATOM      7  C   UNL     1      10.508  14.103  20.026  0.00  0.00    +0.000 A 
ATOM      8  C   UNL     1      11.395  14.913  19.289  0.00  0.00    +0.000 A 
ATOM      9  C   UNL     1      11.915  16.098  19.820  0.00  0.00    +0.000 A 
ATOM     10  C   UNL     1      11.553  16.496  21.099  0.00  0.00    +0.000 A 
ATOM     11  F   UNL     1      12.096  17.612  21.603  0.00  0.00    +0.000 F 
ATOM     12  C   UNL     1      10.657  15.746  21.858  0.00  0.00    +0.000 A 
ATOM     13  C   UNL     1      10.298  16.157  23.254  0.00  0.00    +0.000 C 
ATOM     14  C   UNL     1      10.119  14.569  21.302  0.00  0.00    +0.000 A 
ENDBRANCH   4   7
BRANCH   1  16
ATOM     15  C   UNL     1       7.900   8.114  17.837  0.00  0.00    +0.000 C 
ATOM     16  C   UNL     1       8.388   9.153  18.204  0.00  0.00    +0.000 C 
BRANCH  15  20
ATOM     17  C   UNL     1       6.704   4.381  14.878  0.00  0.00    +0.000 C 
ATOM     18  C   UNL     1       6.827   5.206  16.115  0.00  0.00    +0.000 A 
ATOM     19  N   UNL     1       7.407   6.388  16.190  0.00  0.00    +0.000 NA
ATOM     20  C   UNL     1       7.329   6.852  17.490  0.00  0.00    +0.000 A 
ATOM     21  C   UNL     1       6.697   6.022  18.387  0.00  0.00    +0.000 A 
ATOM     22  S   UNL     1       6.169   4.605  17.589  0.00  0.00    +0.000 S 
ENDBRANCH  15  20
ENDBRANCH   1  16
TORSDOF 3
ENDMDL
MODEL 2
REMARK VINA RESULT:      -7.5      5.232     10.561
REMARK  Name = 
REMARK  5 active torsions:
REMARK  status: ('A' for Active; 'I' for Inactive)
REMARK    1  A    between atoms: C_1  and  C_2
REMARK    2  A    between atoms: C_4  and  C_5
REMARK    3  A    between atoms: C_6  and  C_7
REMARK    4  A    between atoms: C_10  and  C_11
REMARK    5  A    between atoms: C_16  and  C_17
REMARK                            x       y       z     vdW  Elec       q    Type
REMARK                         _______ _______ _______ _____ _____    ______ ____
ROOT
ATOM      1  C   UNL     1       7.750   7.951  18.019  0.00  0.00    +0.000 A 
ATOM      2  C   UNL     1       6.628   7.922  17.203  0.00  0.00    +0.000 A 
ATOM      3  C   UNL     1       5.833   6.776  17.166  0.00  0.00    +0.000 A 
ATOM      4  C   UNL     1       6.163   5.667  17.952  0.00  0.00    +0.000 A 
ATOM      5  N   UNL     1       7.273   5.671  18.734  0.00  0.00    +0.000 NA
ATOM      6  C   UNL     1       8.038   6.798  18.744  0.00  0.00    +0.000 A 
ENDROOT
BRANCH   4   7
ATOM      7  C   UNL     1       5.271   4.486  18.046  0.00  0.00    +0.000 A 
ATOM      8  C   UNL     1       4.733   3.872  16.898  0.00  0.00    +0.000 A 
ATOM      9  C   UNL     1       3.779   2.854  16.993  0.00  0.00    +0.000 A 
ATOM     10  C   UNL     1       3.348   2.429  18.242  0.00  0.00    +0.000 A 
ATOM     11  F   UNL     1       2.402   1.482  18.307  0.00  0.00    +0.000 F 
ATOM     12  C   UNL     1       3.870   2.985  19.408  0.00  0.00    +0.000 A 
ATOM     13  C   UNL     1       3.373   2.552  20.755  0.00  0.00    +0.000 C 
ATOM     14  C   UNL     1       4.850   3.990  19.299  0.00  0.00    +0.000 A 
ENDBRANCH   4   7
BRANCH   1  16
ATOM     15  C   UNL     1       9.182  10.147  18.275  0.00  0.00    +0.000 C 
ATOM     16  C   UNL     1       8.540   9.136  18.137  0.00  0.00    +0.000 C 
BRANCH  15  20
ATOM     17  C   UNL     1      11.198  14.509  17.257  0.00  0.00    +0.000 C 
ATOM     18  C   UNL     1      10.841  13.270  18.008  0.00  0.00    +0.000 A 
ATOM     19  N   UNL     1      10.079  12.293  17.553  0.00  0.00    +0.000 NA
ATOM     20  C   UNL     1       9.970  11.312  18.520  0.00  0.00    +0.000 A 
ATOM     21  C   UNL     1      10.643  11.551  19.697  0.00  0.00    +0.000 A 
ATOM     22  S   UNL     1      11.453  13.055  19.604  0.00  0.00    +0.000 S 
ENDBRANCH  15  20
ENDBRANCH   1  16
TORSDOF 3
ENDMDL
MODEL 3
REMARK VINA RESULT:      -7.5      9.147     12.235
REMARK  Name = 
REMARK  5 active torsions:
REMARK  status: ('A' for Active; 'I' for Inactive)
REMARK    1  A    between atoms: C_1  and  C_2
REMARK    2  A    between atoms: C_4  and  C_5
REMARK    3  A    between atoms: C_6  and  C_7
REMARK    4  A    between atoms: C_10  and  C_11
REMARK    5  A    between atoms: C_16  and  C_17
REMARK                            x       y       z     vdW  Elec       q    Type
REMARK                         _______ _______ _______ _____ _____    ______ ____
ROOT
ATOM      1  C   UNL     1       0.768   9.661  20.457  0.00  0.00    +0.000 A 
ATOM      2  C   UNL     1       1.054   9.890  19.119  0.00  0.00    +0.000 A 
ATOM      3  C   UNL     1       1.753   8.928  18.390  0.00  0.00    +0.000 A 
ATOM      4  C   UNL     1       2.156   7.737  19.004  0.00  0.00    +0.000 A 
ATOM      5  N   UNL     1       1.906   7.511  20.319  0.00  0.00    +0.000 NA
ATOM      6  C   UNL     1       1.232   8.471  21.011  0.00  0.00    +0.000 A 
ENDROOT
BRANCH   4   7
ATOM      7  C   UNL     1       2.776   6.634  18.232  0.00  0.00    +0.000 A 
ATOM      8  C   UNL     1       2.248   5.327  18.255  0.00  0.00    +0.000 A 
ATOM      9  C   UNL     1       2.916   4.259  17.646  0.00  0.00    +0.000 A 
ATOM     10  C   UNL     1       4.124   4.480  17.001  0.00  0.00    +0.000 A 
ATOM     11  F   UNL     1       4.766   3.435  16.462  0.00  0.00    +0.000 F 
ATOM     12  C   UNL     1       4.674   5.759  16.926  0.00  0.00    +0.000 A 
ATOM     13  C   UNL     1       5.999   5.988  16.263  0.00  0.00    +0.000 C 
ATOM     14  C   UNL     1       3.979   6.830  17.519  0.00  0.00    +0.000 A 
ENDBRANCH   4   7
BRANCH   1  16
ATOM     15  C   UNL     1      -0.707  11.347  21.843  0.00  0.00    +0.000 C 
ATOM     16  C   UNL     1      -0.013  10.592  21.211  0.00  0.00    +0.000 C 
BRANCH  15  20
ATOM     17  C   UNL     1      -4.540  12.437  24.714  0.00  0.00    +0.000 C 
ATOM     18  C   UNL     1      -3.274  12.603  23.943  0.00  0.00    +0.000 A 
ATOM     19  N   UNL     1      -2.684  11.662  23.231  0.00  0.00    +0.000 NA
ATOM     20  C   UNL     1      -1.537  12.177  22.657  0.00  0.00    +0.000 A 
ATOM     21  C   UNL     1      -1.264  13.495  22.939  0.00  0.00    +0.000 A 
ATOM     22  S   UNL     1      -2.483  14.133  23.955  0.00  0.00    +0.000 S 
ENDBRANCH  15  20
ENDBRANCH   1  16
TORSDOF 3
ENDMDL
MODEL 4
REMARK VINA RESULT:      -7.5      1.271      2.111
REMARK  Name = 
REMARK  5 active torsions:
REMARK  status: ('A' for Active; 'I' for Inactive)
REMARK    1  A    between atoms: C_1  and  C_2
REMARK    2  A    between atoms: C_4  and  C_5
REMARK    3  A    between atoms: C_6  and  C_7
REMARK    4  A    between atoms: C_10  and  C_11
REMARK    5  A    between atoms: C_16  and  C_17
REMARK                            x       y       z     vdW  Elec       q    Type
REMARK                         _______ _______ _______ _____ _____    ______ ____
ROOT
ATOM      1  C   UNL     1       8.939  10.652  18.370  0.00  0.00    +0.000 A 
ATOM      2  C   UNL     1       8.419  11.723  17.659  0.00  0.00    +0.000 A 
ATOM      3  C   UNL     1       8.934  13.002  17.866  0.00  0.00    +0.000 A 
ATOM      4  C   UNL     1       9.973  13.201  18.781  0.00  0.00    +0.000 A 
ATOM      5  N   UNL     1      10.474  12.167  19.504  0.00  0.00    +0.000 NA
ATOM      6  C   UNL     1       9.946  10.929  19.291  0.00  0.00    +0.000 A 
ENDROOT
BRANCH   4   7
ATOM      7  C   UNL     1      10.640  14.517  18.929  0.00  0.00    +0.000 A 
ATOM      8  C   UNL     1      11.536  14.778  19.985  0.00  0.00    +0.000 A 
ATOM      9  C   UNL     1      12.050  16.060  20.207  0.00  0.00    +0.000 A 
ATOM     10  C   UNL     1      11.677  17.105  19.374  0.00  0.00    +0.000 A 
ATOM     11  F   UNL     1      12.149  18.332  19.631  0.00  0.00    +0.000 F 
ATOM     12  C   UNL     1      10.817  16.893  18.298  0.00  0.00    +0.000 A 
ATOM     13  C   UNL     1      10.385  18.031  17.423  0.00  0.00    +0.000 C 
ATOM     14  C   UNL     1      10.328  15.593  18.068  0.00  0.00    +0.000 A 
ENDBRANCH   4   7
BRANCH   1  16
ATOM     15  C   UNL     1       8.060   8.208  17.927  0.00  0.00    +0.000 C 
ATOM     16  C   UNL     1       8.486   9.318  18.125  0.00  0.00    +0.000 C 
BRANCH  15  20
ATOM     17  C   UNL     1       6.632   4.499  15.041  0.00  0.00    +0.000 C 
ATOM     18  C   UNL     1       6.892   5.295  16.276  0.00  0.00    +0.000 A 
ATOM     19  N   UNL     1       7.418   6.505  16.308  0.00  0.00    +0.000 NA
ATOM     20  C   UNL     1       7.508   6.927  17.622  0.00  0.00    +0.000 A 
ATOM     21  C   UNL     1       7.055   6.040  18.570  0.00  0.00    +0.000 A 
ATOM     22  S   UNL     1       6.486   4.619  17.807  0.00  0.00    +0.000 S 
ENDBRANCH  15  20
ENDBRANCH   1  16
TORSDOF 3
ENDMDL
MODEL 5
REMARK VINA RESULT:      -7.5      0.930      1.795
REMARK  Name = 
REMARK  5 active torsions:
REMARK  status: ('A' for Active; 'I' for Inactive)
REMARK    1  A    between atoms: C_1  and  C_2
REMARK    2  A    between atoms: C_4  and  C_5
REMARK    3  A    between atoms: C_6  and  C_7
REMARK    4  A    between atoms: C_10  and  C_11
REMARK    5  A    between atoms: C_16  and  C_17
REMARK                            x       y       z     vdW  Elec       q    Type
REMARK                         _______ _______ _______ _____ _____    ______ ____
ROOT
ATOM      1  C   UNL     1       9.365  10.603  18.901  0.00  0.00    +0.000 A 
ATOM      2  C   UNL     1       9.451  11.011  20.224  0.00  0.00    +0.000 A 
ATOM      3  C   UNL     1      10.002  12.257  20.525  0.00  0.00    +0.000 A 
ATOM      4  C   UNL     1      10.457  13.090  19.498  0.00  0.00    +0.000 A 
ATOM      5  N   UNL     1      10.404  12.693  18.202  0.00  0.00    +0.000 NA
ATOM      6  C   UNL     1       9.872  11.468  17.935  0.00  0.00    +0.000 A 
ENDROOT
BRANCH   4   7
ATOM      7  C   UNL     1      10.920  14.474  19.766  0.00  0.00    +0.000 A 
ATOM      8  C   UNL     1      10.807  15.058  21.044  0.00  0.00    +0.000 A 
ATOM      9  C   UNL     1      11.106  16.406  21.259  0.00  0.00    +0.000 A 
ATOM     10  C   UNL     1      11.527  17.196  20.199  0.00  0.00    +0.000 A 
ATOM     11  F   UNL     1      11.768  18.496  20.420  0.00  0.00    +0.000 F 
ATOM     12  C   UNL     1      11.682  16.660  18.922  0.00  0.00    +0.000 A 
ATOM     13  C   UNL     1      12.099  17.525  17.770  0.00  0.00    +0.000 C 
ATOM     14  C   UNL     1      11.404  15.294  18.723  0.00  0.00    +0.000 A 
ENDBRANCH   4   7
BRANCH   1  16
ATOM     15  C   UNL     1       8.233   8.323  18.222  0.00  0.00    +0.000 C 
ATOM     16  C   UNL     1       8.737   9.367  18.554  0.00  0.00    +0.000 C 
BRANCH  15  20
ATOM     17  C   UNL     1       6.605   4.886  15.114  0.00  0.00    +0.000 C 
ATOM     18  C   UNL     1       7.005   5.546  16.391  0.00  0.00    +0.000 A 
ATOM     19  N   UNL     1       7.454   6.781  16.504  0.00  0.00    +0.000 NA
ATOM     20  C   UNL     1       7.720   7.048  17.834  0.00  0.00    +0.000 A 
ATOM     21  C   UNL     1       7.476   6.019  18.714  0.00  0.00    +0.000 A 
ATOM     22  S   UNL     1       6.885   4.659  17.862  0.00  0.00    +0.000 S 
ENDBRANCH  15  20
ENDBRANCH   1  16
TORSDOF 3
ENDMDL
MODEL 6
REMARK VINA RESULT:      -7.4      9.172     12.243
REMARK  Name = 
REMARK  5 active torsions:
REMARK  status: ('A' for Active; 'I' for Inactive)
REMARK    1  A    between atoms: C_1  and  C_2
REMARK    2  A    between atoms: C_4  and  C_5
REMARK    3  A    between atoms: C_6  and  C_7
REMARK    4  A    between atoms: C_10  and  C_11
REMARK    5  A    between atoms: C_16  and  C_17
REMARK                            x       y       z     vdW  Elec       q    Type
REMARK                         _______ _______ _______ _____ _____    ______ ____
ROOT
ATOM      1  C   UNL     1       0.670   9.700  19.782  0.00  0.00    +0.000 A 
ATOM      2  C   UNL     1       1.023   9.808  18.445  0.00  0.00    +0.000 A 
ATOM      3  C   UNL     1       1.869   8.855  17.878  0.00  0.00    +0.000 A 
ATOM      4  C   UNL     1       2.351   7.795  18.652  0.00  0.00    +0.000 A 
ATOM      5  N   UNL     1       2.036   7.692  19.968  0.00  0.00    +0.000 NA
ATOM      6  C   UNL     1       1.217   8.641  20.501  0.00  0.00    +0.000 A 
ENDROOT
BRANCH   4   7
ATOM      7  C   UNL     1       3.137   6.688  18.054  0.00  0.00    +0.000 A 
ATOM      8  C   UNL     1       4.306   6.932  17.305  0.00  0.00    +0.000 A 
ATOM      9  C   UNL     1       4.962   5.904  16.621  0.00  0.00    +0.000 A 
ATOM     10  C   UNL     1       4.462   4.610  16.677  0.00  0.00    +0.000 A 
ATOM     11  F   UNL     1       5.083   3.650  15.979  0.00  0.00    +0.000 F 
ATOM     12  C   UNL     1       3.327   4.312  17.428  0.00  0.00    +0.000 A 
ATOM     13  C   UNL     1       2.766   2.922  17.455  0.00  0.00    +0.000 C 
ATOM     14  C   UNL     1       2.690   5.351  18.134  0.00  0.00    +0.000 A 
ENDBRANCH   4   7
BRANCH   1  16
ATOM     15  C   UNL     1      -1.025  11.370  20.913  0.00  0.00    +0.000 C 
ATOM     16  C   UNL     1      -0.255  10.616  20.373  0.00  0.00    +0.000 C 
BRANCH  15  20
ATOM     17  C   UNL     1      -4.003  12.949  24.486  0.00  0.00    +0.000 C 
ATOM     18  C   UNL     1      -3.191  12.951  23.234  0.00  0.00    +0.000 A 
ATOM     19  N   UNL     1      -2.483  11.933  22.782  0.00  0.00    +0.000 NA
ATOM     20  C   UNL     1      -1.866  12.298  21.600  0.00  0.00    +0.000 A 
ATOM     21  C   UNL     1      -2.106  13.581  21.168  0.00  0.00    +0.000 A 
ATOM     22  S   UNL     1      -3.146  14.376  22.269  0.00  0.00    +0.000 S 
ENDBRANCH  15  20
ENDBRANCH   1  16
TORSDOF 3
ENDMDL
MODEL 7
REMARK VINA RESULT:      -7.4      9.142     12.146
REMARK  Name = 
REMARK  5 active torsions:
REMARK  status: ('A' for Active; 'I' for Inactive)
REMARK    1  A    between atoms: C_1  and  C_2
REMARK    2  A    between atoms: C_4  and  C_5
REMARK    3  A    between atoms: C_6  and  C_7
REMARK    4  A    between atoms: C_10  and  C_11
REMARK    5  A    between atoms: C_16  and  C_17
REMARK                            x       y       z     vdW  Elec       q    Type
REMARK                         _______ _______ _______ _____ _____    ______ ____
ROOT
ATOM      1  C   UNL     1       0.840   9.513  20.415  0.00  0.00    +0.000 A 
ATOM      2  C   UNL     1       1.125   9.748  19.079  0.00  0.00    +0.000 A 
ATOM      3  C   UNL     1       1.829   8.792  18.346  0.00  0.00    +0.000 A 
ATOM      4  C   UNL     1       2.240   7.602  18.956  0.00  0.00    +0.000 A 
ATOM      5  N   UNL     1       1.992   7.370  20.270  0.00  0.00    +0.000 NA
ATOM      6  C   UNL     1       1.312   8.324  20.966  0.00  0.00    +0.000 A 
ENDROOT
BRANCH   4   7
ATOM      7  C   UNL     1       2.867   6.505  18.180  0.00  0.00    +0.000 A 
ATOM      8  C   UNL     1       2.355   5.192  18.209  0.00  0.00    +0.000 A 
ATOM      9  C   UNL     1       3.029   4.132  17.596  0.00  0.00    +0.000 A 
ATOM     10  C   UNL     1       4.230   4.366  16.940  0.00  0.00    +0.000 A 
ATOM     11  F   UNL     1       4.879   3.328  16.397  0.00  0.00    +0.000 F 
ATOM     12  C   UNL     1       4.763   5.651  16.858  0.00  0.00    +0.000 A 
ATOM     13  C   UNL     1       6.079   5.895  16.183  0.00  0.00    +0.000 C 
ATOM     14  C   UNL     1       4.061   6.715  17.456  0.00  0.00    +0.000 A 
ENDBRANCH   4   7
BRANCH   1  16
ATOM     15  C   UNL     1      -0.569  11.227  21.835  0.00  0.00    +0.000 C 
ATOM     16  C   UNL     1       0.055  10.436  21.172  0.00  0.00    +0.000 C 
BRANCH  15  20
ATOM     17  C   UNL     1      -1.018  15.322  24.509  0.00  0.00    +0.000 C 
ATOM     18  C   UNL     1      -1.393  14.079  23.774  0.00  0.00    +0.000 A 
ATOM     19  N   UNL     1      -0.552  13.279  23.148  0.00  0.00    +0.000 NA
ATOM     20  C   UNL     1      -1.255  12.231  22.584  0.00  0.00    +0.000 A 
ATOM     21  C   UNL     1      -2.616  12.245  22.782  0.00  0.00    +0.000 A 
ATOM     22  S   UNL     1      -3.050  13.613  23.713  0.00  0.00    +0.000 S 
ENDBRANCH  15  20
ENDBRANCH   1  16
TORSDOF 3
ENDMDL
MODEL 8
REMARK VINA RESULT:      -7.4      0.619      1.539
REMARK  Name = 
REMARK  5 active torsions:
REMARK  status: ('A' for Active; 'I' for Inactive)
REMARK    1  A    between atoms: C_1  and  C_2
REMARK    2  A    between atoms: C_4  and  C_5
REMARK    3  A    between atoms: C_6  and  C_7
REMARK    4  A    between atoms: C_10  and  C_11
REMARK    5  A    between atoms: C_16  and  C_17
REMARK                            x       y       z     vdW  Elec       q    Type
REMARK                         _______ _______ _______ _____ _____    ______ ____
ROOT
ATOM      1  C   UNL     1       8.890  10.094  18.581  0.00  0.00    +0.000 A 
ATOM      2  C   UNL     1       9.345  10.104  19.891  0.00  0.00    +0.000 A 
ATOM      3  C   UNL     1       9.906  11.268  20.417  0.00  0.00    +0.000 A 
ATOM      4  C   UNL     1      10.001  12.419  19.627  0.00  0.00    +0.000 A 
ATOM      5  N   UNL     1       9.584  12.416  18.336  0.00  0.00    +0.000 NA
ATOM      6  C   UNL     1       9.051  11.264  17.844  0.00  0.00    +0.000 A 
ENDROOT
BRANCH   4   7
ATOM      7  C   UNL     1      10.461  13.713  20.189  0.00  0.00    +0.000 A 
ATOM      8  C   UNL     1      10.048  14.155  21.462  0.00  0.00    +0.000 A 
ATOM      9  C   UNL     1      10.363  15.436  21.927  0.00  0.00    +0.000 A 
ATOM     10  C   UNL     1      11.100  16.297  21.127  0.00  0.00    +0.000 A 
ATOM     11  F   UNL     1      11.354  17.534  21.577  0.00  0.00    +0.000 F 
ATOM     12  C   UNL     1      11.556  15.897  19.873  0.00  0.00    +0.000 A 
ATOM     13  C   UNL     1      12.318  16.844  18.994  0.00  0.00    +0.000 C 
ATOM     14  C   UNL     1      11.256  14.596  19.426  0.00  0.00    +0.000 A 
ENDBRANCH   4   7
BRANCH   1  16
ATOM     15  C   UNL     1       7.676   7.961  17.623  0.00  0.00    +0.000 C 
ATOM     16  C   UNL     1       8.241   8.941  18.038  0.00  0.00    +0.000 C 
BRANCH  15  20
ATOM     17  C   UNL     1       6.547   4.257  14.602  0.00  0.00    +0.000 C 
ATOM     18  C   UNL     1       6.474   5.193  15.761  0.00  0.00    +0.000 A 
ATOM     19  N   UNL     1       7.302   6.195  15.988  0.00  0.00    +0.000 NA
ATOM     20  C   UNL     1       6.925   6.842  17.150  0.00  0.00    +0.000 A 
ATOM     21  C   UNL     1       5.824   6.328  17.795  0.00  0.00    +0.000 A 
ATOM     22  S   UNL     1       5.220   4.986  16.924  0.00  0.00    +0.000 S 
ENDBRANCH  15  20
ENDBRANCH   1  16
TORSDOF 3
ENDMDL
MODEL 9
REMARK VINA RESULT:      -7.3      9.112     12.127
REMARK  Name = 
REMARK  5 active torsions:
REMARK  status: ('A' for Active; 'I' for Inactive)
REMARK    1  A    between atoms: C_1  and  C_2
REMARK    2  A    between atoms: C_4  and  C_5
REMARK    3  A    between atoms: C_6  and  C_7
REMARK    4  A    between atoms: C_10  and  C_11
REMARK    5  A    between atoms: C_16  and  C_17
REMARK                            x       y       z     vdW  Elec       q    Type
REMARK                         _______ _______ _______ _____ _____    ______ ____
ROOT
ATOM      1  C   UNL     1       0.820   9.370  20.552  0.00  0.00    +0.000 A 
ATOM      2  C   UNL     1       1.146   8.161  21.149  0.00  0.00    +0.000 A 
ATOM      3  C   UNL     1       1.854   7.203  20.423  0.00  0.00    +0.000 A 
ATOM      4  C   UNL     1       2.237   7.464  19.103  0.00  0.00    +0.000 A 
ATOM      5  N   UNL     1       1.901   8.631  18.497  0.00  0.00    +0.000 NA
ATOM      6  C   UNL     1       1.201   9.545  19.224  0.00  0.00    +0.000 A 
ENDROOT
BRANCH   4   7
ATOM      7  C   UNL     1       3.107   6.532  18.345  0.00  0.00    +0.000 A 
ATOM      8  C   UNL     1       4.078   6.999  17.437  0.00  0.00    +0.000 A 
ATOM      9  C   UNL     1       4.794   6.121  16.618  0.00  0.00    +0.000 A 
ATOM     10  C   UNL     1       4.553   4.757  16.694  0.00  0.00    +0.000 A 
ATOM     11  F   UNL     1       5.220   3.938  15.870  0.00  0.00    +0.000 F 
ATOM     12  C   UNL     1       3.624   4.242  17.596  0.00  0.00    +0.000 A 
ATOM     13  C   UNL     1       3.337   2.771  17.649  0.00  0.00    +0.000 C 
ATOM     14  C   UNL     1       2.929   5.134  18.435  0.00  0.00    +0.000 A 
ENDBRANCH   4   7
BRANCH   1  16
ATOM     15  C   UNL     1      -0.431  11.258  21.896  0.00  0.00    +0.000 C 
ATOM     16  C   UNL     1       0.164  10.401  21.292  0.00  0.00    +0.000 C 
BRANCH  15  20
ATOM     17  C   UNL     1      -1.168  15.322  24.554  0.00  0.00    +0.000 C 
ATOM     18  C   UNL     1      -1.452  14.047  23.834  0.00  0.00    +0.000 A 
ATOM     19  N   UNL     1      -0.559  13.315  23.196  0.00  0.00    +0.000 NA
ATOM     20  C   UNL     1      -1.183  12.207  22.653  0.00  0.00    +0.000 A 
ATOM     21  C   UNL     1      -2.537  12.109  22.879  0.00  0.00    +0.000 A 
ATOM     22  S   UNL     1      -3.065  13.443  23.810  0.00  0.00    +0.000 S 
ENDBRANCH  15  20
ENDBRANCH   1  16
TORSDOF 3
ENDMDL
