MODEL 1
REMARK VINA RESULT:      -7.9      0.000      0.000
REMARK  Name = 
REMARK  7 active torsions:
REMARK  status: ('A' for Active; 'I' for Inactive)
REMARK    1  A    between atoms: C_1  and  O_2
REMARK    2  A    between atoms: O_2  and  C_3
REMARK    3  A    between atoms: C_6  and  N_7
REMARK    4  A    between atoms: C_11  and  S_12
REMARK    5  A    between atoms: S_12  and  C_13
REMARK    6  A    between atoms: C_13  and  C_14
REMARK    7  A    between atoms: N_19  and  C_20
REMARK                            x       y       z     vdW  Elec       q    Type
REMARK                         _______ _______ _______ _____ _____    ______ ____
ROOT
ATOM      1  S   UNL     1       1.114   2.840  18.503  0.00  0.00    +0.000 S 
ENDROOT
BRANCH   1   6
ATOM      2  N   UNL     1       1.961   4.476  20.575  0.00  0.00    +0.000 N 
ATOM      3  C   UNL     1       2.433   4.209  21.840  0.00  0.00    +0.000 A 
ATOM      4  N   UNL     1       2.156   2.974  22.189  0.00  0.00    +0.000 NA
ATOM      5  N   UNL     1       1.545   2.368  21.119  0.00  0.00    +0.000 NA
ATOM      6  C   UNL     1       1.489   3.249  20.145  0.00  0.00    +0.000 A 
BRANCH   2  10
ATOM      7  C   UNL     1       2.023   8.333  18.842  0.00  0.00    +0.000 A 
ATOM      8  C   UNL     1       2.509   7.230  18.138  0.00  0.00    +0.000 A 
ATOM      9  C   UNL     1       2.456   5.948  18.694  0.00  0.00    +0.000 A 
ATOM     10  C   UNL     1       1.913   5.760  19.970  0.00  0.00    +0.000 A 
ATOM     11  C   UNL     1       1.417   6.866  20.672  0.00  0.00    +0.000 A 
ATOM     12  C   UNL     1       1.476   8.146  20.110  0.00  0.00    +0.000 A 
BRANCH   7  14
ATOM     13  C   UNL     1       1.193  10.521  18.480  0.00  0.00    +0.000 C 
ATOM     14  O   UNL     1       2.181   9.534  18.209  0.00  0.00    +0.000 OA
ENDBRANCH   7  14
ENDBRANCH   2  10
ENDBRANCH   1   6
BRANCH   1  15
ATOM     15  C   UNL     1       2.613   1.942  18.020  0.00  0.00    +0.000 C 
BRANCH  15  16
ATOM     16  C   UNL     1       3.800   2.882  18.030  0.00  0.00    +0.000 C 
ATOM     17  O   UNL     1       4.519   3.000  19.026  0.00  0.00    +0.000 OA
ATOM     18  N   UNL     1       3.985   3.602  16.862  0.00  0.00    +0.000 N 
ATOM     19  C   UNL     1       4.971   4.522  16.581  0.00  0.00    +0.000 C 
ATOM     20  O   UNL     1       5.024   5.050  15.477  0.00  0.00    +0.000 OA
ATOM     21  N   UNL     1       5.829   4.794  17.604  0.00  0.00    +0.000 N 
ATOM     22  H   UNL     1       3.337   3.478  16.093  0.00  0.00    +0.000 HD
ATOM     23  H   UNL     1       5.789   4.162  18.401  0.00  0.00    +0.000 HD
BRANCH  21  24
ATOM     24  C   UNL     1       6.964   5.676  17.486  0.00  0.00    +0.000 C 
ATOM     25  C   UNL     1       6.536   7.107  17.177  0.00  0.00    +0.000 C 
ATOM     26  C   UNL     1       7.764   7.928  17.535  0.00  0.00    +0.000 C 
ATOM     27  C   UNL     1       8.418   7.193  18.704  0.00  0.00    +0.000 C 
ATOM     28  C   UNL     1       7.737   5.827  18.794  0.00  0.00    +0.000 C 
ENDBRANCH  21  24
ENDBRANCH  15  16
ENDBRANCH   1  15
TORSDOF 6
ENDMDL
MODEL 2
REMARK VINA RESULT:      -7.6      0.568      1.099
REMARK  Name = 
REMARK  7 active torsions:
REMARK  status: ('A' for Active; 'I' for Inactive)
REMARK    1  A    between atoms: C_1  and  O_2
REMARK    2  A    between atoms: O_2  and  C_3
REMARK    3  A    between atoms: C_6  and  N_7
REMARK    4  A    between atoms: C_11  and  S_12
REMARK    5  A    between atoms: S_12  and  C_13
REMARK    6  A    between atoms: C_13  and  C_14
REMARK    7  A    between atoms: N_19  and  C_20
REMARK                            x       y       z     vdW  Elec       q    Type
REMARK                         _______ _______ _______ _____ _____    ______ ____
ROOT
ATOM      1  S   UNL     1       1.435   3.092  18.163  0.00  0.00    +0.000 S 
ENDROOT
BRANCH   1   6
ATOM      2  N   UNL     1       2.053   4.407  20.524  0.00  0.00    +0.000 N 
ATOM      3  C   UNL     1       2.418   3.958  21.774  0.00  0.00    +0.000 A 
ATOM      4  N   UNL     1       2.143   2.681  21.907  0.00  0.00    +0.000 NA
ATOM      5  N   UNL     1       1.644   2.236  20.708  0.00  0.00    +0.000 NA
ATOM      6  C   UNL     1       1.652   3.253  19.876  0.00  0.00    +0.000 A 
BRANCH   2  10
ATOM      7  C   UNL     1       1.766   8.425  19.237  0.00  0.00    +0.000 A 
ATOM      8  C   UNL     1       1.313   8.050  20.504  0.00  0.00    +0.000 A 
ATOM      9  C   UNL     1       1.441   6.730  20.946  0.00  0.00    +0.000 A 
ATOM     10  C   UNL     1       2.025   5.766  20.116  0.00  0.00    +0.000 A 
ATOM     11  C   UNL     1       2.487   6.146  18.848  0.00  0.00    +0.000 A 
ATOM     12  C   UNL     1       2.354   7.468  18.413  0.00  0.00    +0.000 A 
BRANCH   7  14
ATOM     13  C   UNL     1       2.310  10.254  17.836  0.00  0.00    +0.000 C 
ATOM     14  O   UNL     1       1.536   9.731  18.908  0.00  0.00    +0.000 OA
ENDBRANCH   7  14
ENDBRANCH   2  10
ENDBRANCH   1   6
BRANCH   1  15
ATOM     15  C   UNL     1       2.991   2.291  17.691  0.00  0.00    +0.000 C 
BRANCH  15  16
ATOM     16  C   UNL     1       4.129   3.286  17.784  0.00  0.00    +0.000 C 
ATOM     17  O   UNL     1       4.761   3.446  18.831  0.00  0.00    +0.000 OA
ATOM     18  N   UNL     1       4.372   4.004  16.625  0.00  0.00    +0.000 N 
ATOM     19  C   UNL     1       5.334   4.967  16.412  0.00  0.00    +0.000 C 
ATOM     20  O   UNL     1       5.449   5.489  15.309  0.00  0.00    +0.000 OA
ATOM     21  N   UNL     1       6.094   5.287  17.497  0.00  0.00    +0.000 N 
ATOM     22  H   UNL     1       3.793   3.845  15.809  0.00  0.00    +0.000 HD
ATOM     23  H   UNL     1       6.020   4.661  18.295  0.00  0.00    +0.000 HD
BRANCH  21  24
ATOM     24  C   UNL     1       7.193   6.222  17.458  0.00  0.00    +0.000 C 
ATOM     25  C   UNL     1       6.714   7.645  17.194  0.00  0.00    +0.000 C 
ATOM     26  C   UNL     1       7.892   8.501  17.631  0.00  0.00    +0.000 C 
ATOM     27  C   UNL     1       8.536   7.744  18.791  0.00  0.00    +0.000 C 
ATOM     28  C   UNL     1       7.912   6.348  18.798  0.00  0.00    +0.000 C 
ENDBRANCH  21  24
ENDBRANCH  15  16
ENDBRANCH   1  15
TORSDOF 6
ENDMDL
MODEL 3
REMARK VINA RESULT:      -7.5      3.259      4.676
REMARK  Name = 
REMARK  7 active torsions:
REMARK  status: ('A' for Active; 'I' for Inactive)
REMARK    1  A    between atoms: C_1  and  O_2
REMARK    2  A    between atoms: O_2  and  C_3
REMARK    3  A    between atoms: C_6  and  N_7
REMARK    4  A    between atoms: C_11  and  S_12
REMARK    5  A    between atoms: S_12  and  C_13
REMARK    6  A    between atoms: C_13  and  C_14
REMARK    7  A    between atoms: N_19  and  C_20
REMARK                            x       y       z     vdW  Elec       q    Type
REMARK                         _______ _______ _______ _____ _____    ______ ____
ROOT
ATOM      1  S   UNL     1       6.112   6.158  18.398  0.00  0.00    +0.000 S 
ENDROOT
BRANCH   1   6
ATOM      2  N   UNL     1       3.607   5.596  19.445  0.00  0.00    +0.000 N 
ATOM      3  C   UNL     1       3.100   4.506  20.117  0.00  0.00    +0.000 A 
ATOM      4  N   UNL     1       3.885   3.464  19.972  0.00  0.00    +0.000 NA
ATOM      5  N   UNL     1       4.978   3.866  19.245  0.00  0.00    +0.000 NA
ATOM      6  C   UNL     1       4.833   5.147  18.989  0.00  0.00    +0.000 A 
BRANCH   2  10
ATOM      7  C   UNL     1       1.384   9.124  18.741  0.00  0.00    +0.000 A 
ATOM      8  C   UNL     1       1.326   8.482  19.980  0.00  0.00    +0.000 A 
ATOM      9  C   UNL     1       2.088   7.337  20.228  0.00  0.00    +0.000 A 
ATOM     10  C   UNL     1       2.920   6.819  19.228  0.00  0.00    +0.000 A 
ATOM     11  C   UNL     1       2.985   7.470  17.988  0.00  0.00    +0.000 A 
ATOM     12  C   UNL     1       2.217   8.614  17.748  0.00  0.00    +0.000 A 
BRANCH   7  14
ATOM     13  C   UNL     1      -0.426  10.364  19.631  0.00  0.00    +0.000 C 
ATOM     14  O   UNL     1       0.553  10.201  18.613  0.00  0.00    +0.000 OA
ENDBRANCH   7  14
ENDBRANCH   2  10
ENDBRANCH   1   6
BRANCH   1  15
ATOM     15  C   UNL     1       7.283   4.915  17.792  0.00  0.00    +0.000 C 
BRANCH  15  16
ATOM     16  C   UNL     1       6.863   4.441  16.417  0.00  0.00    +0.000 C 
ATOM     17  O   UNL     1       6.055   3.520  16.271  0.00  0.00    +0.000 OA
ATOM     18  N   UNL     1       7.473   5.098  15.361  0.00  0.00    +0.000 N 
ATOM     19  C   UNL     1       7.289   4.887  14.012  0.00  0.00    +0.000 C 
ATOM     20  O   UNL     1       7.878   5.582  13.194  0.00  0.00    +0.000 OA
ATOM     21  N   UNL     1       6.448   3.865  13.688  0.00  0.00    +0.000 N 
ATOM     22  H   UNL     1       8.152   5.825  15.553  0.00  0.00    +0.000 HD
ATOM     23  H   UNL     1       5.888   3.487  14.449  0.00  0.00    +0.000 HD
BRANCH  21  24
ATOM     24  C   UNL     1       6.077   3.531  12.334  0.00  0.00    +0.000 C 
ATOM     25  C   UNL     1       6.311   2.055  12.032  0.00  0.00    +0.000 C 
ATOM     26  C   UNL     1       5.473   1.810  10.789  0.00  0.00    +0.000 C 
ATOM     27  C   UNL     1       4.266   2.737  10.923  0.00  0.00    +0.000 C 
ATOM     28  C   UNL     1       4.583   3.699  12.069  0.00  0.00    +0.000 C 
ENDBRANCH  21  24
ENDBRANCH  15  16
ENDBRANCH   1  15
TORSDOF 6
ENDMDL
MODEL 4
REMARK VINA RESULT:      -7.4      2.606      6.649
REMARK  Name = 
REMARK  7 active torsions:
REMARK  status: ('A' for Active; 'I' for Inactive)
REMARK    1  A    between atoms: C_1  and  O_2
REMARK    2  A    between atoms: O_2  and  C_3
REMARK    3  A    between atoms: C_6  and  N_7
REMARK    4  A    between atoms: C_11  and  S_12
REMARK    5  A    between atoms: S_12  and  C_13
REMARK    6  A    between atoms: C_13  and  C_14
REMARK    7  A    between atoms: N_19  and  C_20
REMARK                            x       y       z     vdW  Elec       q    Type
REMARK                         _______ _______ _______ _____ _____    ______ ____
ROOT
ATOM      1  S   UNL     1       1.758   5.318  18.542  0.00  0.00    +0.000 S 
ENDROOT
BRANCH   1   6
ATOM      2  N   UNL     1       3.780   3.481  18.069  0.00  0.00    +0.000 N 
ATOM      3  C   UNL     1       3.811   2.104  18.079  0.00  0.00    +0.000 A 
ATOM      4  N   UNL     1       2.758   1.621  18.697  0.00  0.00    +0.000 NA
ATOM      5  N   UNL     1       1.963   2.681  19.054  0.00  0.00    +0.000 NA
ATOM      6  C   UNL     1       2.549   3.777  18.623  0.00  0.00    +0.000 A 
BRANCH   2  10
ATOM      7  C   UNL     1       6.843   6.162  16.920  0.00  0.00    +0.000 A 
ATOM      8  C   UNL     1       6.740   5.724  18.242  0.00  0.00    +0.000 A 
ATOM      9  C   UNL     1       5.751   4.809  18.617  0.00  0.00    +0.000 A 
ATOM     10  C   UNL     1       4.849   4.323  17.663  0.00  0.00    +0.000 A 
ATOM     11  C   UNL     1       4.959   4.756  16.335  0.00  0.00    +0.000 A 
ATOM     12  C   UNL     1       5.949   5.674  15.969  0.00  0.00    +0.000 A 
BRANCH   7  14
ATOM     13  C   UNL     1       7.888   8.164  17.630  0.00  0.00    +0.000 C 
ATOM     14  O   UNL     1       7.818   7.093  16.698  0.00  0.00    +0.000 OA
ENDBRANCH   7  14
ENDBRANCH   2  10
ENDBRANCH   1   6
BRANCH   1  15
ATOM     15  C   UNL     1       2.522   6.173  19.945  0.00  0.00    +0.000 C 
BRANCH  15  16
ATOM     16  C   UNL     1       1.961   7.575  20.060  0.00  0.00    +0.000 C 
ATOM     17  O   UNL     1       1.790   8.283  19.064  0.00  0.00    +0.000 OA
ATOM     18  N   UNL     1       1.691   7.992  21.352  0.00  0.00    +0.000 N 
ATOM     19  C   UNL     1       1.179   9.203  21.761  0.00  0.00    +0.000 C 
ATOM     20  O   UNL     1       0.958   9.409  22.949  0.00  0.00    +0.000 OA
ATOM     21  N   UNL     1       0.972  10.117  20.772  0.00  0.00    +0.000 N 
ATOM     22  H   UNL     1       1.886   7.369  22.127  0.00  0.00    +0.000 HD
ATOM     23  H   UNL     1       1.024   9.764  19.819  0.00  0.00    +0.000 HD
BRANCH  21  24
ATOM     24  C   UNL     1       0.381  11.416  20.990  0.00  0.00    +0.000 C 
ATOM     25  C   UNL     1       1.241  12.532  20.408  0.00  0.00    +0.000 C 
ATOM     26  C   UNL     1       0.284  13.710  20.326  0.00  0.00    +0.000 C 
ATOM     27  C   UNL     1      -1.087  13.100  20.038  0.00  0.00    +0.000 C 
ATOM     28  C   UNL     1      -0.947  11.594  20.260  0.00  0.00    +0.000 C 
ENDBRANCH  21  24
ENDBRANCH  15  16
ENDBRANCH   1  15
TORSDOF 6
ENDMDL
MODEL 5
REMARK VINA RESULT:      -7.3      2.681      7.206
REMARK  Name = 
REMARK  7 active torsions:
REMARK  status: ('A' for Active; 'I' for Inactive)
REMARK    1  A    between atoms: C_1  and  O_2
REMARK    2  A    between atoms: O_2  and  C_3
REMARK    3  A    between atoms: C_6  and  N_7
REMARK    4  A    between atoms: C_11  and  S_12
REMARK    5  A    between atoms: S_12  and  C_13
REMARK    6  A    between atoms: C_13  and  C_14
REMARK    7  A    between atoms: N_19  and  C_20
REMARK                            x       y       z     vdW  Elec       q    Type
REMARK                         _______ _______ _______ _____ _____    ______ ____
ROOT
ATOM      1  S   UNL     1       3.738   4.737  18.329  0.00  0.00    +0.000 S 
ENDROOT
BRANCH   1   6
ATOM      2  N   UNL     1       6.426   4.846  17.658  0.00  0.00    +0.000 N 
ATOM      3  C   UNL     1       7.573   4.945  18.414  0.00  0.00    +0.000 A 
ATOM      4  N   UNL     1       7.291   5.333  19.636  0.00  0.00    +0.000 NA
ATOM      5  N   UNL     1       5.926   5.436  19.735  0.00  0.00    +0.000 NA
ATOM      6  C   UNL     1       5.418   5.087  18.574  0.00  0.00    +0.000 A 
BRANCH   2  10
ATOM      7  C   UNL     1       6.427   4.077  13.499  0.00  0.00    +0.000 A 
ATOM      8  C   UNL     1       5.503   3.451  14.338  0.00  0.00    +0.000 A 
ATOM      9  C   UNL     1       5.476   3.731  15.707  0.00  0.00    +0.000 A 
ATOM     10  C   UNL     1       6.383   4.647  16.253  0.00  0.00    +0.000 A 
ATOM     11  C   UNL     1       7.304   5.283  15.409  0.00  0.00    +0.000 A 
ATOM     12  C   UNL     1       7.326   4.994  14.040  0.00  0.00    +0.000 A 
BRANCH   7  14
ATOM     13  C   UNL     1       5.167   3.074  11.763  0.00  0.00    +0.000 C 
ATOM     14  O   UNL     1       6.381   3.678  12.194  0.00  0.00    +0.000 OA
ENDBRANCH   7  14
ENDBRANCH   2  10
ENDBRANCH   1   6
BRANCH   1  15
ATOM     15  C   UNL     1       3.034   5.297  19.902  0.00  0.00    +0.000 C 
BRANCH  15  16
ATOM     16  C   UNL     1       2.407   6.664  19.726  0.00  0.00    +0.000 C 
ATOM     17  O   UNL     1       2.428   7.247  18.639  0.00  0.00    +0.000 OA
ATOM     18  N   UNL     1       1.847   7.201  20.873  0.00  0.00    +0.000 N 
ATOM     19  C   UNL     1       1.211   8.415  21.016  0.00  0.00    +0.000 C 
ATOM     20  O   UNL     1       0.729   8.734  22.096  0.00  0.00    +0.000 OA
ATOM     21  N   UNL     1       1.187   9.200  19.902  0.00  0.00    +0.000 N 
ATOM     22  H   UNL     1       1.893   6.681  21.741  0.00  0.00    +0.000 HD
ATOM     23  H   UNL     1       1.459   8.749  19.031  0.00  0.00    +0.000 HD
BRANCH  21  24
ATOM     24  C   UNL     1       0.513  10.474  19.833  0.00  0.00    +0.000 C 
ATOM     25  C   UNL     1       1.202  11.425  18.861  0.00  0.00    +0.000 C 
ATOM     26  C   UNL     1       0.142  12.479  18.587  0.00  0.00    +0.000 C 
ATOM     27  C   UNL     1      -1.194  11.741  18.658  0.00  0.00    +0.000 C 
ATOM     28  C   UNL     1      -0.899  10.367  19.262  0.00  0.00    +0.000 C 
ENDBRANCH  21  24
ENDBRANCH  15  16
ENDBRANCH   1  15
TORSDOF 6
ENDMDL
MODEL 6
REMARK VINA RESULT:      -7.3      2.951      6.894
REMARK  Name = 
REMARK  7 active torsions:
REMARK  status: ('A' for Active; 'I' for Inactive)
REMARK    1  A    between atoms: C_1  and  O_2
REMARK    2  A    between atoms: O_2  and  C_3
REMARK    3  A    between atoms: C_6  and  N_7
REMARK    4  A    between atoms: C_11  and  S_12
REMARK    5  A    between atoms: S_12  and  C_13
REMARK    6  A    between atoms: C_13  and  C_14
REMARK    7  A    between atoms: N_19  and  C_20
REMARK                            x       y       z     vdW  Elec       q    Type
REMARK                         _______ _______ _______ _____ _____    ______ ____
ROOT
ATOM      1  S   UNL     1       5.139   6.843  17.546  0.00  0.00    +0.000 S 
ENDROOT
BRANCH   1   6
ATOM      2  N   UNL     1       5.107   4.237  16.602  0.00  0.00    +0.000 N 
ATOM      3  C   UNL     1       5.818   3.594  15.613  0.00  0.00    +0.000 A 
ATOM      4  N   UNL     1       6.398   4.463  14.818  0.00  0.00    +0.000 NA
ATOM      5  N   UNL     1       6.134   5.717  15.311  0.00  0.00    +0.000 NA
ATOM      6  C   UNL     1       5.418   5.569  16.403  0.00  0.00    +0.000 A 
BRANCH   2  10
ATOM      7  C   UNL     1       2.373   2.573  19.367  0.00  0.00    +0.000 A 
ATOM      8  C   UNL     1       1.937   3.024  18.120  0.00  0.00    +0.000 A 
ATOM      9  C   UNL     1       2.844   3.541  17.189  0.00  0.00    +0.000 A 
ATOM     10  C   UNL     1       4.206   3.612  17.504  0.00  0.00    +0.000 A 
ATOM     11  C   UNL     1       4.644   3.150  18.753  0.00  0.00    +0.000 A 
ATOM     12  C   UNL     1       3.729   2.637  19.678  0.00  0.00    +0.000 A 
BRANCH   7  14
ATOM     13  C   UNL     1       1.303   2.779  21.469  0.00  0.00    +0.000 C 
ATOM     14  O   UNL     1       1.381   2.140  20.200  0.00  0.00    +0.000 OA
ENDBRANCH   7  14
ENDBRANCH   2  10
ENDBRANCH   1   6
BRANCH   1  15
ATOM     15  C   UNL     1       3.713   7.674  16.797  0.00  0.00    +0.000 C 
BRANCH  15  16
ATOM     16  C   UNL     1       2.768   8.148  17.881  0.00  0.00    +0.000 C 
ATOM     17  O   UNL     1       2.265   9.275  17.849  0.00  0.00    +0.000 OA
ATOM     18  N   UNL     1       2.547   7.239  18.901  0.00  0.00    +0.000 N 
ATOM     19  C   UNL     1       1.742   7.389  20.010  0.00  0.00    +0.000 C 
ATOM     20  O   UNL     1       1.619   6.470  20.811  0.00  0.00    +0.000 OA
ATOM     21  N   UNL     1       1.143   8.606  20.140  0.00  0.00    +0.000 N 
ATOM     22  H   UNL     1       3.018   6.342  18.881  0.00  0.00    +0.000 HD
ATOM     23  H   UNL     1       1.182   9.213  19.324  0.00  0.00    +0.000 HD
BRANCH  21  24
ATOM     24  C   UNL     1       0.215   8.935  21.194  0.00  0.00    +0.000 C 
ATOM     25  C   UNL     1       0.925   9.138  22.528  0.00  0.00    +0.000 C 
ATOM     26  C   UNL     1      -0.097   9.892  23.362  0.00  0.00    +0.000 C 
ATOM     27  C   UNL     1      -0.868  10.763  22.371  0.00  0.00    +0.000 C 
ATOM     28  C   UNL     1      -0.485  10.273  20.974  0.00  0.00    +0.000 C 
ENDBRANCH  21  24
ENDBRANCH  15  16
ENDBRANCH   1  15
TORSDOF 6
ENDMDL
MODEL 7
REMARK VINA RESULT:      -7.3      2.505      6.773
REMARK  Name = 
REMARK  7 active torsions:
REMARK  status: ('A' for Active; 'I' for Inactive)
REMARK    1  A    between atoms: C_1  and  O_2
REMARK    2  A    between atoms: O_2  and  C_3
REMARK    3  A    between atoms: C_6  and  N_7
REMARK    4  A    between atoms: C_11  and  S_12
REMARK    5  A    between atoms: S_12  and  C_13
REMARK    6  A    between atoms: C_13  and  C_14
REMARK    7  A    between atoms: N_19  and  C_20
REMARK                            x       y       z     vdW  Elec       q    Type
REMARK                         _______ _______ _______ _____ _____    ______ ____
ROOT
ATOM      1  S   UNL     1       1.993   5.233  18.304  0.00  0.00    +0.000 S 
ENDROOT
BRANCH   1   6
ATOM      2  N   UNL     1       4.235   3.661  18.739  0.00  0.00    +0.000 N 
ATOM      3  C   UNL     1       4.478   2.593  19.574  0.00  0.00    +0.000 A 
ATOM      4  N   UNL     1       3.557   2.515  20.507  0.00  0.00    +0.000 NA
ATOM      5  N   UNL     1       2.636   3.503  20.266  0.00  0.00    +0.000 NA
ATOM      6  C   UNL     1       3.014   4.139  19.180  0.00  0.00    +0.000 A 
BRANCH   2  10
ATOM      7  C   UNL     1       6.987   4.923  15.787  0.00  0.00    +0.000 A 
ATOM      8  C   UNL     1       5.760   4.366  15.423  0.00  0.00    +0.000 A 
ATOM      9  C   UNL     1       4.833   3.982  16.396  0.00  0.00    +0.000 A 
ATOM     10  C   UNL     1       5.130   4.152  17.753  0.00  0.00    +0.000 A 
ATOM     11  C   UNL     1       6.359   4.721  18.117  0.00  0.00    +0.000 A 
ATOM     12  C   UNL     1       7.282   5.099  17.137  0.00  0.00    +0.000 A 
BRANCH   7  14
ATOM     13  C   UNL     1       7.335   4.888  13.445  0.00  0.00    +0.000 C 
ATOM     14  O   UNL     1       7.821   5.208  14.743  0.00  0.00    +0.000 OA
ENDBRANCH   7  14
ENDBRANCH   2  10
ENDBRANCH   1   6
BRANCH   1  15
ATOM     15  C   UNL     1       3.090   6.664  18.127  0.00  0.00    +0.000 C 
BRANCH  15  16
ATOM     16  C   UNL     1       2.320   7.939  18.403  0.00  0.00    +0.000 C 
ATOM     17  O   UNL     1       2.151   8.792  17.527  0.00  0.00    +0.000 OA
ATOM     18  N   UNL     1       1.859   8.073  19.701  0.00  0.00    +0.000 N 
ATOM     19  C   UNL     1       1.133   9.113  20.239  0.00  0.00    +0.000 C 
ATOM     20  O   UNL     1       0.762   9.067  21.406  0.00  0.00    +0.000 OA
ATOM     21  N   UNL     1       0.898  10.160  19.400  0.00  0.00    +0.000 N 
ATOM     22  H   UNL     1       2.061   7.347  20.379  0.00  0.00    +0.000 HD
ATOM     23  H   UNL     1       1.101   9.999  18.416  0.00  0.00    +0.000 HD
BRANCH  21  24
ATOM     24  C   UNL     1       0.103  11.311  19.756  0.00  0.00    +0.000 C 
ATOM     25  C   UNL     1       0.534  12.554  18.985  0.00  0.00    +0.000 C 
ATOM     26  C   UNL     1      -0.651  13.493  19.138  0.00  0.00    +0.000 C 
ATOM     27  C   UNL     1      -1.882  12.589  19.188  0.00  0.00    +0.000 C 
ATOM     28  C   UNL     1      -1.365  11.161  19.367  0.00  0.00    +0.000 C 
ENDBRANCH  21  24
ENDBRANCH  15  16
ENDBRANCH   1  15
TORSDOF 6
ENDMDL
MODEL 8
REMARK VINA RESULT:      -7.3      2.576      6.828
REMARK  Name = 
REMARK  7 active torsions:
REMARK  status: ('A' for Active; 'I' for Inactive)
REMARK    1  A    between atoms: C_1  and  O_2
REMARK    2  A    between atoms: O_2  and  C_3
REMARK    3  A    between atoms: C_6  and  N_7
REMARK    4  A    between atoms: C_11  and  S_12
REMARK    5  A    between atoms: S_12  and  C_13
REMARK    6  A    between atoms: C_13  and  C_14
REMARK    7  A    between atoms: N_19  and  C_20
REMARK                            x       y       z     vdW  Elec       q    Type
REMARK                         _______ _______ _______ _____ _____    ______ ____
ROOT
ATOM      1  S   UNL     1       2.106   5.185  18.202  0.00  0.00    +0.000 S 
ENDROOT
BRANCH   1   6
ATOM      2  N   UNL     1       4.275   3.566  18.801  0.00  0.00    +0.000 N 
ATOM      3  C   UNL     1       4.469   2.574  19.736  0.00  0.00    +0.000 A 
ATOM      4  N   UNL     1       3.544   2.626  20.666  0.00  0.00    +0.000 NA
ATOM      5  N   UNL     1       2.668   3.626  20.326  0.00  0.00    +0.000 NA
ATOM      6  C   UNL     1       3.076   4.137  19.185  0.00  0.00    +0.000 A 
BRANCH   2  10
ATOM      7  C   UNL     1       6.918   4.820  15.746  0.00  0.00    +0.000 A 
ATOM      8  C   UNL     1       7.205   5.082  17.087  0.00  0.00    +0.000 A 
ATOM      9  C   UNL     1       6.352   4.637  18.101  0.00  0.00    +0.000 A 
ATOM     10  C   UNL     1       5.194   3.920  17.778  0.00  0.00    +0.000 A 
ATOM     11  C   UNL     1       4.911   3.649  16.432  0.00  0.00    +0.000 A 
ATOM     12  C   UNL     1       5.769   4.101  15.424  0.00  0.00    +0.000 A 
BRANCH   7  14
ATOM     13  C   UNL     1       7.542   5.098  13.479  0.00  0.00    +0.000 C 
ATOM     14  O   UNL     1       7.804   5.353  14.854  0.00  0.00    +0.000 OA
ENDBRANCH   7  14
ENDBRANCH   2  10
ENDBRANCH   1   6
BRANCH   1  15
ATOM     15  C   UNL     1       3.098   6.702  18.230  0.00  0.00    +0.000 C 
BRANCH  15  16
ATOM     16  C   UNL     1       2.245   7.864  18.691  0.00  0.00    +0.000 C 
ATOM     17  O   UNL     1       1.888   8.752  17.912  0.00  0.00    +0.000 OA
ATOM     18  N   UNL     1       1.933   7.860  20.041  0.00  0.00    +0.000 N 
ATOM     19  C   UNL     1       1.179   8.778  20.739  0.00  0.00    +0.000 C 
ATOM     20  O   UNL     1       0.959   8.613  21.933  0.00  0.00    +0.000 OA
ATOM     21  N   UNL     1       0.742   9.848  20.018  0.00  0.00    +0.000 N 
ATOM     22  H   UNL     1       2.286   7.116  20.631  0.00  0.00    +0.000 HD
ATOM     23  H   UNL     1       0.839   9.776  19.007  0.00  0.00    +0.000 HD
BRANCH  21  24
ATOM     24  C   UNL     1      -0.113  10.880  20.552  0.00  0.00    +0.000 C 
ATOM     25  C   UNL     1       0.664  12.156  20.857  0.00  0.00    +0.000 C 
ATOM     26  C   UNL     1      -0.421  13.215  20.961  0.00  0.00    +0.000 C 
ATOM     27  C   UNL     1      -1.505  12.784  19.974  0.00  0.00    +0.000 C 
ATOM     28  C   UNL     1      -1.167  11.353  19.555  0.00  0.00    +0.000 C 
ENDBRANCH  21  24
ENDBRANCH  15  16
ENDBRANCH   1  15
TORSDOF 6
ENDMDL
MODEL 9
REMARK VINA RESULT:      -7.3      2.550      6.602
REMARK  Name = 
REMARK  7 active torsions:
REMARK  status: ('A' for Active; 'I' for Inactive)
REMARK    1  A    between atoms: C_1  and  O_2
REMARK    2  A    between atoms: O_2  and  C_3
REMARK    3  A    between atoms: C_6  and  N_7
REMARK    4  A    between atoms: C_11  and  S_12
REMARK    5  A    between atoms: S_12  and  C_13
REMARK    6  A    between atoms: C_13  and  C_14
REMARK    7  A    between atoms: N_19  and  C_20
REMARK                            x       y       z     vdW  Elec       q    Type
REMARK                         _______ _______ _______ _____ _____    ______ ____
ROOT
ATOM      1  S   UNL     1       3.826   5.479  19.714  0.00  0.00    +0.000 S 
ENDROOT
BRANCH   1   6
ATOM      2  N   UNL     1       4.185   3.449  17.861  0.00  0.00    +0.000 N 
ATOM      3  C   UNL     1       3.584   2.221  17.694  0.00  0.00    +0.000 A 
ATOM      4  N   UNL     1       2.935   1.871  18.780  0.00  0.00    +0.000 NA
ATOM      5  N   UNL     1       3.039   2.903  19.678  0.00  0.00    +0.000 NA
ATOM      6  C   UNL     1       3.731   3.860  19.100  0.00  0.00    +0.000 A 
BRANCH   2  10
ATOM      7  C   UNL     1       7.027   4.987  15.132  0.00  0.00    +0.000 A 
ATOM      8  C   UNL     1       5.723   4.707  14.718  0.00  0.00    +0.000 A 
ATOM      9  C   UNL     1       4.771   4.233  15.626  0.00  0.00    +0.000 A 
ATOM     10  C   UNL     1       5.121   4.033  16.967  0.00  0.00    +0.000 A 
ATOM     11  C   UNL     1       6.427   4.324  17.384  0.00  0.00    +0.000 A 
ATOM     12  C   UNL     1       7.374   4.795  16.468  0.00  0.00    +0.000 A 
BRANCH   7  14
ATOM     13  C   UNL     1       7.553   4.952  12.824  0.00  0.00    +0.000 C 
ATOM     14  O   UNL     1       7.870   5.394  14.138  0.00  0.00    +0.000 OA
ENDBRANCH   7  14
ENDBRANCH   2  10
ENDBRANCH   1   6
BRANCH   1  15
ATOM     15  C   UNL     1       2.136   5.719  20.323  0.00  0.00    +0.000 C 
BRANCH  15  16
ATOM     16  C   UNL     1       1.734   7.170  20.164  0.00  0.00    +0.000 C 
ATOM     17  O   UNL     1       1.167   7.784  21.071  0.00  0.00    +0.000 OA
ATOM     18  N   UNL     1       2.026   7.724  18.929  0.00  0.00    +0.000 N 
ATOM     19  C   UNL     1       1.782   9.011  18.500  0.00  0.00    +0.000 C 
ATOM     20  O   UNL     1       2.138   9.364  17.382  0.00  0.00    +0.000 OA
ATOM     21  N   UNL     1       1.118   9.808  19.383  0.00  0.00    +0.000 N 
ATOM     22  H   UNL     1       2.466   7.153  18.218  0.00  0.00    +0.000 HD
ATOM     23  H   UNL     1       1.041   9.455  20.334  0.00  0.00    +0.000 HD
BRANCH  21  24
ATOM     24  C   UNL     1       0.829  11.202  19.144  0.00  0.00    +0.000 C 
ATOM     25  C   UNL     1      -0.586  11.401  18.614  0.00  0.00    +0.000 C 
ATOM     26  C   UNL     1      -0.849  12.879  18.856  0.00  0.00    +0.000 C 
ATOM     27  C   UNL     1      -0.083  13.224  20.131  0.00  0.00    +0.000 C 
ATOM     28  C   UNL     1       0.835  12.037  20.422  0.00  0.00    +0.000 C 
ENDBRANCH  21  24
ENDBRANCH  15  16
ENDBRANCH   1  15
TORSDOF 6
ENDMDL
