MODEL 1
REMARK VINA RESULT:      -8.4      0.000      0.000
REMARK  Name = 
REMARK  7 active torsions:
REMARK  status: ('A' for Active; 'I' for Inactive)
REMARK    1  A    between atoms: C_2  and  C_15
REMARK    2  A    between atoms: N_3  and  C_4
REMARK    3  A    between atoms: C_7  and  S_8
REMARK    4  A    between atoms: S_8  and  C_9
REMARK    5  A    between atoms: C_18  and  N_19
REMARK    6  A    between atoms: C_22  and  O_23
REMARK    7  A    between atoms: C_25  and  C_26
REMARK                            x       y       z     vdW  Elec       q    Type
REMARK                         _______ _______ _______ _____ _____    ______ ____
ROOT
ATOM      1  C   UNL     1       2.081   8.257  18.478  0.00  0.00    +0.000 A 
ATOM      2  C   UNL     1       3.199   8.554  17.739  0.00  0.00    +0.000 A 
ATOM      3  N   UNL     1       4.052   7.607  17.273  0.00  0.00    +0.000 NA
ATOM      4  C   UNL     1       3.849   6.291  17.573  0.00  0.00    +0.000 A 
ATOM      5  C   UNL     1       2.741   5.887  18.357  0.00  0.00    +0.000 A 
ATOM      6  C   UNL     1       1.862   6.911  18.777  0.00  0.00    +0.000 A 
ENDROOT
BRANCH   5   7
ATOM      7  C   UNL     1       2.405   4.492  18.729  0.00  0.00    +0.000 A 
ATOM      8  C   UNL     1       2.853   3.892  19.901  0.00  0.00    +0.000 A 
ATOM      9  N   UNL     1       2.555   2.635  20.301  0.00  0.00    +0.000 NA
ATOM     10  C   UNL     1       1.772   1.938  19.473  0.00  0.00    +0.000 A 
ATOM     11  N   UNL     1       1.269   2.382  18.315  0.00  0.00    +0.000 NA
ATOM     12  C   UNL     1       1.587   3.656  17.986  0.00  0.00    +0.000 A 
ENDBRANCH   5   7
BRANCH   4  13
ATOM     13  N   UNL     1       4.749   5.368  17.030  0.00  0.00    +0.000 N 
ATOM     14  C   UNL     1       5.235   5.659  15.671  0.00  0.00    +0.000 C 
ATOM     15  C   UNL     1       6.570   4.937  15.577  0.00  0.00    +0.000 C 
ATOM     16  C   UNL     1       7.129   5.072  16.983  0.00  0.00    +0.000 C 
ATOM     17  C   UNL     1       5.883   4.946  17.876  0.00  0.00    +0.000 C 
BRANCH  16  18
ATOM     18  O   UNL     1       8.101   4.065  17.235  0.00  0.00    +0.000 OA
ATOM     19  H   UNL     1       8.023   3.789  18.166  0.00  0.00    +0.000 HD
ENDBRANCH  16  18
ENDBRANCH   4  13
BRANCH   1  21
ATOM     20  O   UNL     1       0.357   9.766  18.268  0.00  0.00    +0.000 OA
ATOM     21  C   UNL     1       1.152   9.259  19.052  0.00  0.00    +0.000 C 
ATOM     22  N   UNL     1       1.287   9.588  20.394  0.00  0.00    +0.000 N 
ATOM     23  H   UNL     1       2.113   9.272  20.886  0.00  0.00    +0.000 HD
BRANCH  22  24
ATOM     24  C   UNL     1       0.468  10.522  21.081  0.00  0.00    +0.000 A 
ATOM     25  C   UNL     1       0.428  11.882  20.757  0.00  0.00    +0.000 A 
ATOM     26  C   UNL     1      -0.347  12.781  21.499  0.00  0.00    +0.000 A 
ATOM     27  C   UNL     1      -1.118  12.334  22.571  0.00  0.00    +0.000 A 
ATOM     28  C   UNL     1      -1.102  10.972  22.889  0.00  0.00    +0.000 A 
ATOM     29  C   UNL     1      -0.327  10.070  22.140  0.00  0.00    +0.000 A 
BRANCH  27  30
ATOM     30  S   UNL     1      -1.993  13.528  23.558  0.00  0.00    +0.000 S 
BRANCH  30  31
ATOM     31  C   UNL     1      -3.666  12.873  23.523  0.00  0.00    +0.000 C 
ATOM     32  F   UNL     1      -4.621  13.792  23.798  0.00  0.00    +0.000 F 
ATOM     33  F   UNL     1      -3.949  12.365  22.298  0.00  0.00    +0.000 F 
ATOM     34  F   UNL     1      -3.813  11.864  24.415  0.00  0.00    +0.000 F 
ENDBRANCH  30  31
ENDBRANCH  27  30
ENDBRANCH  22  24
ENDBRANCH   1  21
TORSDOF 7
ENDMDL
MODEL 2
REMARK VINA RESULT:      -8.4      0.742      1.073
REMARK  Name = 
REMARK  7 active torsions:
REMARK  status: ('A' for Active; 'I' for Inactive)
REMARK    1  A    between atoms: C_2  and  C_15
REMARK    2  A    between atoms: N_3  and  C_4
REMARK    3  A    between atoms: C_7  and  S_8
REMARK    4  A    between atoms: S_8  and  C_9
REMARK    5  A    between atoms: C_18  and  N_19
REMARK    6  A    between atoms: C_22  and  O_23
REMARK    7  A    between atoms: C_25  and  C_26
REMARK                            x       y       z     vdW  Elec       q    Type
REMARK                         _______ _______ _______ _____ _____    ______ ____
ROOT
ATOM      1  C   UNL     1       2.055   8.145  18.906  0.00  0.00    +0.000 A 
ATOM      2  C   UNL     1       3.054   8.295  17.978  0.00  0.00    +0.000 A 
ATOM      3  N   UNL     1       3.884   7.285  17.612  0.00  0.00    +0.000 NA
ATOM      4  C   UNL     1       3.783   6.061  18.208  0.00  0.00    +0.000 A 
ATOM      5  C   UNL     1       2.803   5.816  19.201  0.00  0.00    +0.000 A 
ATOM      6  C   UNL     1       1.939   6.891  19.509  0.00  0.00    +0.000 A 
ENDROOT
BRANCH   5   7
ATOM      7  C   UNL     1       2.583   4.528  19.901  0.00  0.00    +0.000 A 
ATOM      8  C   UNL     1       2.428   4.433  21.280  0.00  0.00    +0.000 A 
ATOM      9  N   UNL     1       2.197   3.290  21.965  0.00  0.00    +0.000 NA
ATOM     10  C   UNL     1       2.129   2.179  21.225  0.00  0.00    +0.000 A 
ATOM     11  N   UNL     1       2.260   2.118  19.895  0.00  0.00    +0.000 NA
ATOM     12  C   UNL     1       2.465   3.301  19.269  0.00  0.00    +0.000 A 
ENDBRANCH   5   7
BRANCH   4  13
ATOM     13  N   UNL     1       4.648   5.059  17.755  0.00  0.00    +0.000 N 
ATOM     14  C   UNL     1       4.820   4.961  16.297  0.00  0.00    +0.000 C 
ATOM     15  C   UNL     1       6.177   4.301  16.112  0.00  0.00    +0.000 C 
ATOM     16  C   UNL     1       6.988   4.865  17.267  0.00  0.00    +0.000 C 
ATOM     17  C   UNL     1       5.965   4.952  18.413  0.00  0.00    +0.000 C 
BRANCH  16  18
ATOM     18  O   UNL     1       8.091   4.019  17.565  0.00  0.00    +0.000 OA
ATOM     19  H   UNL     1       7.776   3.295  18.136  0.00  0.00    +0.000 HD
ENDBRANCH  16  18
ENDBRANCH   4  13
BRANCH   1  21
ATOM     20  O   UNL     1       0.600   9.880  18.499  0.00  0.00    +0.000 OA
ATOM     21  C   UNL     1       1.161   9.230  19.375  0.00  0.00    +0.000 C 
ATOM     22  N   UNL     1       1.073   9.465  20.740  0.00  0.00    +0.000 N 
ATOM     23  H   UNL     1       1.743   9.015  21.351  0.00  0.00    +0.000 HD
BRANCH  22  24
ATOM     24  C   UNL     1       0.257  10.462  21.335  0.00  0.00    +0.000 A 
ATOM     25  C   UNL     1       0.218  11.785  20.882  0.00  0.00    +0.000 A 
ATOM     26  C   UNL     1      -0.555  12.752  21.535  0.00  0.00    +0.000 A 
ATOM     27  C   UNL     1      -1.325  12.412  22.646  0.00  0.00    +0.000 A 
ATOM     28  C   UNL     1      -1.311  11.087  23.093  0.00  0.00    +0.000 A 
ATOM     29  C   UNL     1      -0.538  10.115  22.434  0.00  0.00    +0.000 A 
BRANCH  27  30
ATOM     30  S   UNL     1      -2.197  13.696  23.515  0.00  0.00    +0.000 S 
BRANCH  30  31
ATOM     31  C   UNL     1      -3.854  13.008  23.615  0.00  0.00    +0.000 C 
ATOM     32  F   UNL     1      -4.009  12.091  24.598  0.00  0.00    +0.000 F 
ATOM     33  F   UNL     1      -4.760  13.990  23.845  0.00  0.00    +0.000 F 
ATOM     34  F   UNL     1      -4.204  12.410  22.451  0.00  0.00    +0.000 F 
ENDBRANCH  30  31
ENDBRANCH  27  30
ENDBRANCH  22  24
ENDBRANCH   1  21
TORSDOF 7
ENDMDL
MODEL 3
REMARK VINA RESULT:      -8.4      0.126      1.071
REMARK  Name = 
REMARK  7 active torsions:
REMARK  status: ('A' for Active; 'I' for Inactive)
REMARK    1  A    between atoms: C_2  and  C_15
REMARK    2  A    between atoms: N_3  and  C_4
REMARK    3  A    between atoms: C_7  and  S_8
REMARK    4  A    between atoms: S_8  and  C_9
REMARK    5  A    between atoms: C_18  and  N_19
REMARK    6  A    between atoms: C_22  and  O_23
REMARK    7  A    between atoms: C_25  and  C_26
REMARK                            x       y       z     vdW  Elec       q    Type
REMARK                         _______ _______ _______ _____ _____    ______ ____
ROOT
ATOM      1  C   UNL     1       2.106   8.244  18.529  0.00  0.00    +0.000 A 
ATOM      2  C   UNL     1       3.197   8.518  17.742  0.00  0.00    +0.000 A 
ATOM      3  N   UNL     1       4.044   7.558  17.289  0.00  0.00    +0.000 NA
ATOM      4  C   UNL     1       3.863   6.254  17.652  0.00  0.00    +0.000 A 
ATOM      5  C   UNL     1       2.784   5.876  18.488  0.00  0.00    +0.000 A 
ATOM      6  C   UNL     1       1.910   6.910  18.891  0.00  0.00    +0.000 A 
ENDROOT
BRANCH   5   7
ATOM      7  C   UNL     1       2.473   4.495  18.929  0.00  0.00    +0.000 A 
ATOM      8  C   UNL     1       1.662   3.632  18.201  0.00  0.00    +0.000 A 
ATOM      9  N   UNL     1       1.369   2.357  18.542  0.00  0.00    +0.000 NA
ATOM     10  C   UNL     1       1.912   1.928  19.685  0.00  0.00    +0.000 A 
ATOM     11  N   UNL     1       2.707   2.644  20.489  0.00  0.00    +0.000 NA
ATOM     12  C   UNL     1       2.980   3.905  20.075  0.00  0.00    +0.000 A 
ENDBRANCH   5   7
BRANCH   4  13
ATOM     13  N   UNL     1       4.753   5.316  17.120  0.00  0.00    +0.000 N 
ATOM     14  C   UNL     1       5.197   5.554  15.737  0.00  0.00    +0.000 C 
ATOM     15  C   UNL     1       6.534   4.838  15.631  0.00  0.00    +0.000 C 
ATOM     16  C   UNL     1       7.133   5.034  17.014  0.00  0.00    +0.000 C 
ATOM     17  C   UNL     1       5.915   4.937  17.948  0.00  0.00    +0.000 C 
BRANCH  16  18
ATOM     18  O   UNL     1       8.120   4.045  17.277  0.00  0.00    +0.000 OA
ATOM     19  H   UNL     1       7.669   3.230  17.560  0.00  0.00    +0.000 HD
ENDBRANCH  16  18
ENDBRANCH   4  13
BRANCH   1  21
ATOM     20  O   UNL     1       0.462   9.834  18.281  0.00  0.00    +0.000 OA
ATOM     21  C   UNL     1       1.187   9.262  19.089  0.00  0.00    +0.000 C 
ATOM     22  N   UNL     1       1.254   9.531  20.449  0.00  0.00    +0.000 N 
ATOM     23  H   UNL     1       2.035   9.160  20.975  0.00  0.00    +0.000 HD
BRANCH  22  24
ATOM     24  C   UNL     1       0.435  10.473  21.125  0.00  0.00    +0.000 A 
ATOM     25  C   UNL     1       0.370  11.823  20.766  0.00  0.00    +0.000 A 
ATOM     26  C   UNL     1      -0.404  12.731  21.498  0.00  0.00    +0.000 A 
ATOM     27  C   UNL     1      -1.149  12.303  22.595  0.00  0.00    +0.000 A 
ATOM     28  C   UNL     1      -1.109  10.950  22.949  0.00  0.00    +0.000 A 
ATOM     29  C   UNL     1      -0.336  10.039  22.210  0.00  0.00    +0.000 A 
BRANCH  27  30
ATOM     30  S   UNL     1      -2.023  13.511  23.566  0.00  0.00    +0.000 S 
BRANCH  30  31
ATOM     31  C   UNL     1      -3.693  12.846  23.557  0.00  0.00    +0.000 C 
ATOM     32  F   UNL     1      -3.891  11.850  24.451  0.00  0.00    +0.000 F 
ATOM     33  F   UNL     1      -4.590  13.821  23.846  0.00  0.00    +0.000 F 
ATOM     34  F   UNL     1      -4.017  12.359  22.335  0.00  0.00    +0.000 F 
ENDBRANCH  30  31
ENDBRANCH  27  30
ENDBRANCH  22  24
ENDBRANCH   1  21
TORSDOF 7
ENDMDL
MODEL 4
REMARK VINA RESULT:      -8.3      1.307      1.475
REMARK  Name = 
REMARK  7 active torsions:
REMARK  status: ('A' for Active; 'I' for Inactive)
REMARK    1  A    between atoms: C_2  and  C_15
REMARK    2  A    between atoms: N_3  and  C_4
REMARK    3  A    between atoms: C_7  and  S_8
REMARK    4  A    between atoms: S_8  and  C_9
REMARK    5  A    between atoms: C_18  and  N_19
REMARK    6  A    between atoms: C_22  and  O_23
REMARK    7  A    between atoms: C_25  and  C_26
REMARK                            x       y       z     vdW  Elec       q    Type
REMARK                         _______ _______ _______ _____ _____    ______ ____
ROOT
ATOM      1  C   UNL     1       2.242   8.282  18.348  0.00  0.00    +0.000 A 
ATOM      2  C   UNL     1       3.360   8.325  17.552  0.00  0.00    +0.000 A 
ATOM      3  N   UNL     1       4.171   7.255  17.355  0.00  0.00    +0.000 NA
ATOM      4  C   UNL     1       3.923   6.076  17.998  0.00  0.00    +0.000 A 
ATOM      5  C   UNL     1       2.811   5.941  18.865  0.00  0.00    +0.000 A 
ATOM      6  C   UNL     1       1.977   7.075  18.997  0.00  0.00    +0.000 A 
ENDROOT
BRANCH   5   7
ATOM      7  C   UNL     1       2.428   4.711  19.598  0.00  0.00    +0.000 A 
ATOM      8  C   UNL     1       2.467   4.614  20.985  0.00  0.00    +0.000 A 
ATOM      9  N   UNL     1       2.103   3.529  21.705  0.00  0.00    +0.000 NA
ATOM     10  C   UNL     1       1.689   2.478  20.991  0.00  0.00    +0.000 A 
ATOM     11  N   UNL     1       1.601   2.425  19.657  0.00  0.00    +0.000 NA
ATOM     12  C   UNL     1       1.958   3.554  18.999  0.00  0.00    +0.000 A 
ENDBRANCH   5   7
BRANCH   4  13
ATOM     13  N   UNL     1       4.780   5.006  17.719  0.00  0.00    +0.000 N 
ATOM     14  C   UNL     1       4.908   4.630  16.302  0.00  0.00    +0.000 C 
ATOM     15  C   UNL     1       6.263   3.948  16.205  0.00  0.00    +0.000 C 
ATOM     16  C   UNL     1       7.105   4.723  17.204  0.00  0.00    +0.000 C 
ATOM     17  C   UNL     1       6.118   5.028  18.343  0.00  0.00    +0.000 C 
BRANCH  16  18
ATOM     18  O   UNL     1       8.223   3.951  17.624  0.00  0.00    +0.000 OA
ATOM     19  H   UNL     1       9.035   4.433  17.386  0.00  0.00    +0.000 HD
ENDBRANCH  16  18
ENDBRANCH   4  13
BRANCH   1  21
ATOM     20  O   UNL     1       1.512  10.421  17.918  0.00  0.00    +0.000 OA
ATOM     21  C   UNL     1       1.359   9.437  18.634  0.00  0.00    +0.000 C 
ATOM     22  N   UNL     1       0.484   9.345  19.708  0.00  0.00    +0.000 N 
ATOM     23  H   UNL     1       0.598   8.577  20.358  0.00  0.00    +0.000 HD
BRANCH  22  24
ATOM     24  C   UNL     1      -0.423  10.365  20.098  0.00  0.00    +0.000 A 
ATOM     25  C   UNL     1      -1.374  10.911  19.230  0.00  0.00    +0.000 A 
ATOM     26  C   UNL     1      -2.209  11.958  19.636  0.00  0.00    +0.000 A 
ATOM     27  C   UNL     1      -2.125  12.469  20.930  0.00  0.00    +0.000 A 
ATOM     28  C   UNL     1      -1.192  11.915  21.813  0.00  0.00    +0.000 A 
ATOM     29  C   UNL     1      -0.358  10.860  21.405  0.00  0.00    +0.000 A 
BRANCH  27  30
ATOM     30  S   UNL     1      -3.122  13.877  21.366  0.00  0.00    +0.000 S 
BRANCH  30  31
ATOM     31  C   UNL     1      -4.508  13.097  22.203  0.00  0.00    +0.000 C 
ATOM     32  F   UNL     1      -4.165  12.432  23.330  0.00  0.00    +0.000 F 
ATOM     33  F   UNL     1      -5.429  14.027  22.558  0.00  0.00    +0.000 F 
ATOM     34  F   UNL     1      -5.132  12.212  21.389  0.00  0.00    +0.000 F 
ENDBRANCH  30  31
ENDBRANCH  27  30
ENDBRANCH  22  24
ENDBRANCH   1  21
TORSDOF 7
ENDMDL
MODEL 5
REMARK VINA RESULT:      -8.2      1.509      1.938
REMARK  Name = 
REMARK  7 active torsions:
REMARK  status: ('A' for Active; 'I' for Inactive)
REMARK    1  A    between atoms: C_2  and  C_15
REMARK    2  A    between atoms: N_3  and  C_4
REMARK    3  A    between atoms: C_7  and  S_8
REMARK    4  A    between atoms: S_8  and  C_9
REMARK    5  A    between atoms: C_18  and  N_19
REMARK    6  A    between atoms: C_22  and  O_23
REMARK    7  A    between atoms: C_25  and  C_26
REMARK                            x       y       z     vdW  Elec       q    Type
REMARK                         _______ _______ _______ _____ _____    ______ ____
ROOT
ATOM      1  C   UNL     1       2.284   8.485  18.272  0.00  0.00    +0.000 A 
ATOM      2  C   UNL     1       3.427   8.459  17.512  0.00  0.00    +0.000 A 
ATOM      3  N   UNL     1       4.193   7.348  17.363  0.00  0.00    +0.000 NA
ATOM      4  C   UNL     1       3.869   6.197  18.022  0.00  0.00    +0.000 A 
ATOM      5  C   UNL     1       2.725   6.133  18.854  0.00  0.00    +0.000 A 
ATOM      6  C   UNL     1       1.942   7.306  18.936  0.00  0.00    +0.000 A 
ENDROOT
BRANCH   5   7
ATOM      7  C   UNL     1       2.263   4.938  19.600  0.00  0.00    +0.000 A 
ATOM      8  C   UNL     1       1.535   3.911  19.007  0.00  0.00    +0.000 A 
ATOM      9  N   UNL     1       1.113   2.788  19.632  0.00  0.00    +0.000 NA
ATOM     10  C   UNL     1       1.429   2.698  20.927  0.00  0.00    +0.000 A 
ATOM     11  N   UNL     1       2.119   3.605  21.628  0.00  0.00    +0.000 NA
ATOM     12  C   UNL     1       2.532   4.693  20.936  0.00  0.00    +0.000 A 
ENDBRANCH   5   7
BRANCH   4  13
ATOM     13  N   UNL     1       4.684   5.083  17.793  0.00  0.00    +0.000 N 
ATOM     14  C   UNL     1       4.714   4.574  16.412  0.00  0.00    +0.000 C 
ATOM     15  C   UNL     1       6.045   3.849  16.297  0.00  0.00    +0.000 C 
ATOM     16  C   UNL     1       6.965   4.689  17.166  0.00  0.00    +0.000 C 
ATOM     17  C   UNL     1       6.058   5.125  18.329  0.00  0.00    +0.000 C 
BRANCH  16  18
ATOM     18  O   UNL     1       8.090   3.928  17.588  0.00  0.00    +0.000 OA
ATOM     19  H   UNL     1       8.729   4.532  18.007  0.00  0.00    +0.000 HD
ENDBRANCH  16  18
ENDBRANCH   4  13
BRANCH   1  21
ATOM     20  O   UNL     1       1.785  10.701  17.905  0.00  0.00    +0.000 OA
ATOM     21  C   UNL     1       1.448   9.686  18.506  0.00  0.00    +0.000 C 
ATOM     22  N   UNL     1       0.403   9.592  19.415  0.00  0.00    +0.000 N 
ATOM     23  H   UNL     1       0.355   8.775  20.010  0.00  0.00    +0.000 HD
BRANCH  22  24
ATOM     24  C   UNL     1      -0.483  10.653  19.736  0.00  0.00    +0.000 A 
ATOM     25  C   UNL     1      -0.322  11.466  20.862  0.00  0.00    +0.000 A 
ATOM     26  C   UNL     1      -1.253  12.463  21.176  0.00  0.00    +0.000 A 
ATOM     27  C   UNL     1      -2.358  12.683  20.356  0.00  0.00    +0.000 A 
ATOM     28  C   UNL     1      -2.517  11.891  19.215  0.00  0.00    +0.000 A 
ATOM     29  C   UNL     1      -1.579  10.893  18.898  0.00  0.00    +0.000 A 
BRANCH  27  30
ATOM     30  S   UNL     1      -3.577  13.879  20.856  0.00  0.00    +0.000 S 
BRANCH  30  31
ATOM     31  C   UNL     1      -4.703  12.869  21.826  0.00  0.00    +0.000 C 
ATOM     32  F   UNL     1      -5.382  11.952  21.099  0.00  0.00    +0.000 F 
ATOM     33  F   UNL     1      -4.023  12.190  22.782  0.00  0.00    +0.000 F 
ATOM     34  F   UNL     1      -5.621  13.637  22.461  0.00  0.00    +0.000 F 
ENDBRANCH  30  31
ENDBRANCH  27  30
ENDBRANCH  22  24
ENDBRANCH   1  21
TORSDOF 7
ENDMDL
MODEL 6
REMARK VINA RESULT:      -8.1      1.216      1.491
REMARK  Name = 
REMARK  7 active torsions:
REMARK  status: ('A' for Active; 'I' for Inactive)
REMARK    1  A    between atoms: C_2  and  C_15
REMARK    2  A    between atoms: N_3  and  C_4
REMARK    3  A    between atoms: C_7  and  S_8
REMARK    4  A    between atoms: S_8  and  C_9
REMARK    5  A    between atoms: C_18  and  N_19
REMARK    6  A    between atoms: C_22  and  O_23
REMARK    7  A    between atoms: C_25  and  C_26
REMARK                            x       y       z     vdW  Elec       q    Type
REMARK                         _______ _______ _______ _____ _____    ______ ____
ROOT
ATOM      1  C   UNL     1       2.208   8.335  18.530  0.00  0.00    +0.000 A 
ATOM      2  C   UNL     1       3.310   8.368  17.713  0.00  0.00    +0.000 A 
ATOM      3  N   UNL     1       4.111   7.291  17.505  0.00  0.00    +0.000 NA
ATOM      4  C   UNL     1       3.868   6.117  18.158  0.00  0.00    +0.000 A 
ATOM      5  C   UNL     1       2.772   5.993  19.047  0.00  0.00    +0.000 A 
ATOM      6  C   UNL     1       1.948   7.133  19.190  0.00  0.00    +0.000 A 
ENDROOT
BRANCH   5   7
ATOM      7  C   UNL     1       2.396   4.769  19.793  0.00  0.00    +0.000 A 
ATOM      8  C   UNL     1       1.960   3.606  19.168  0.00  0.00    +0.000 A 
ATOM      9  N   UNL     1       1.632   2.454  19.796  0.00  0.00    +0.000 NA
ATOM     10  C   UNL     1       1.736   2.477  21.129  0.00  0.00    +0.000 A 
ATOM     11  N   UNL     1       2.138   3.520  21.863  0.00  0.00    +0.000 NA
ATOM     12  C   UNL     1       2.474   4.633  21.169  0.00  0.00    +0.000 A 
ENDBRANCH   5   7
BRANCH   4  13
ATOM     13  N   UNL     1       4.713   5.041  17.868  0.00  0.00    +0.000 N 
ATOM     14  C   UNL     1       4.744   4.602  16.463  0.00  0.00    +0.000 C 
ATOM     15  C   UNL     1       6.095   3.923  16.302  0.00  0.00    +0.000 C 
ATOM     16  C   UNL     1       6.998   4.748  17.204  0.00  0.00    +0.000 C 
ATOM     17  C   UNL     1       6.091   5.098  18.395  0.00  0.00    +0.000 C 
BRANCH  16  18
ATOM     18  O   UNL     1       8.149   4.001  17.578  0.00  0.00    +0.000 OA
ATOM     19  H   UNL     1       8.869   4.627  17.776  0.00  0.00    +0.000 HD
ENDBRANCH  16  18
ENDBRANCH   4  13
BRANCH   1  21
ATOM     20  O   UNL     1       1.392  10.428  18.031  0.00  0.00    +0.000 OA
ATOM     21  C   UNL     1       1.338   9.497  18.829  0.00  0.00    +0.000 C 
ATOM     22  N   UNL     1       0.586   9.473  19.995  0.00  0.00    +0.000 N 
ATOM     23  H   UNL     1       0.786   8.757  20.682  0.00  0.00    +0.000 HD
BRANCH  22  24
ATOM     24  C   UNL     1      -0.293  10.508  20.408  0.00  0.00    +0.000 A 
ATOM     25  C   UNL     1      -1.270  11.057  19.572  0.00  0.00    +0.000 A 
ATOM     26  C   UNL     1      -2.077  12.117  19.998  0.00  0.00    +0.000 A 
ATOM     27  C   UNL     1      -1.938  12.641  21.282  0.00  0.00    +0.000 A 
ATOM     28  C   UNL     1      -0.980  12.084  22.135  0.00  0.00    +0.000 A 
ATOM     29  C   UNL     1      -0.174  11.015  21.707  0.00  0.00    +0.000 A 
BRANCH  27  30
ATOM     30  S   UNL     1      -2.902  14.065  21.740  0.00  0.00    +0.000 S 
BRANCH  30  31
ATOM     31  C   UNL     1      -3.498  13.593  23.369  0.00  0.00    +0.000 C 
ATOM     32  F   UNL     1      -4.616  14.250  23.755  0.00  0.00    +0.000 F 
ATOM     33  F   UNL     1      -3.787  12.269  23.401  0.00  0.00    +0.000 F 
ATOM     34  F   UNL     1      -2.555  13.817  24.316  0.00  0.00    +0.000 F 
ENDBRANCH  30  31
ENDBRANCH  27  30
ENDBRANCH  22  24
ENDBRANCH   1  21
TORSDOF 7
ENDMDL
MODEL 7
REMARK VINA RESULT:      -8.0      1.963      2.284
REMARK  Name = 
REMARK  7 active torsions:
REMARK  status: ('A' for Active; 'I' for Inactive)
REMARK    1  A    between atoms: C_2  and  C_15
REMARK    2  A    between atoms: N_3  and  C_4
REMARK    3  A    between atoms: C_7  and  S_8
REMARK    4  A    between atoms: S_8  and  C_9
REMARK    5  A    between atoms: C_18  and  N_19
REMARK    6  A    between atoms: C_22  and  O_23
REMARK    7  A    between atoms: C_25  and  C_26
REMARK                            x       y       z     vdW  Elec       q    Type
REMARK                         _______ _______ _______ _____ _____    ______ ____
ROOT
ATOM      1  C   UNL     1       2.185   8.474  18.324  0.00  0.00    +0.000 A 
ATOM      2  C   UNL     1       3.320   8.476  17.552  0.00  0.00    +0.000 A 
ATOM      3  N   UNL     1       4.095   7.376  17.372  0.00  0.00    +0.000 NA
ATOM      4  C   UNL     1       3.790   6.208  18.009  0.00  0.00    +0.000 A 
ATOM      5  C   UNL     1       2.656   6.115  18.852  0.00  0.00    +0.000 A 
ATOM      6  C   UNL     1       1.862   7.278  18.967  0.00  0.00    +0.000 A 
ENDROOT
BRANCH   5   7
ATOM      7  C   UNL     1       2.213   4.900  19.577  0.00  0.00    +0.000 A 
ATOM      8  C   UNL     1       2.497   4.674  20.920  0.00  0.00    +0.000 A 
ATOM      9  N   UNL     1       2.095   3.600  21.636  0.00  0.00    +0.000 NA
ATOM     10  C   UNL     1       1.377   2.696  20.963  0.00  0.00    +0.000 A 
ATOM     11  N   UNL     1       1.031   2.778  19.673  0.00  0.00    +0.000 NA
ATOM     12  C   UNL     1       1.445   3.890  19.022  0.00  0.00    +0.000 A 
ENDBRANCH   5   7
BRANCH   4  13
ATOM     13  N   UNL     1       4.613   5.107  17.748  0.00  0.00    +0.000 N 
ATOM     14  C   UNL     1       4.507   4.524  16.401  0.00  0.00    +0.000 C 
ATOM     15  C   UNL     1       5.842   3.832  16.175  0.00  0.00    +0.000 C 
ATOM     16  C   UNL     1       6.823   4.747  16.888  0.00  0.00    +0.000 C 
ATOM     17  C   UNL     1       6.037   5.220  18.123  0.00  0.00    +0.000 C 
BRANCH  16  18
ATOM     18  O   UNL     1       8.014   4.044  17.220  0.00  0.00    +0.000 OA
ATOM     19  H   UNL     1       8.201   4.187  18.165  0.00  0.00    +0.000 HD
ENDBRANCH  16  18
ENDBRANCH   4  13
BRANCH   1  21
ATOM     20  O   UNL     1       1.802  10.741  18.242  0.00  0.00    +0.000 OA
ATOM     21  C   UNL     1       1.339   9.661  18.593  0.00  0.00    +0.000 C 
ATOM     22  N   UNL     1       0.137   9.475  19.261  0.00  0.00    +0.000 N 
ATOM     23  H   UNL     1      -0.038   8.577  19.694  0.00  0.00    +0.000 HD
BRANCH  22  24
ATOM     24  C   UNL     1      -0.776  10.513  19.581  0.00  0.00    +0.000 A 
ATOM     25  C   UNL     1      -0.779  11.172  20.814  0.00  0.00    +0.000 A 
ATOM     26  C   UNL     1      -1.736  12.148  21.113  0.00  0.00    +0.000 A 
ATOM     27  C   UNL     1      -2.702  12.503  20.173  0.00  0.00    +0.000 A 
ATOM     28  C   UNL     1      -2.695  11.865  18.928  0.00  0.00    +0.000 A 
ATOM     29  C   UNL     1      -1.730  10.889  18.628  0.00  0.00    +0.000 A 
BRANCH  27  30
ATOM     30  S   UNL     1      -3.970  13.662  20.636  0.00  0.00    +0.000 S 
BRANCH  30  31
ATOM     31  C   UNL     1      -5.457  12.815  20.086  0.00  0.00    +0.000 C 
ATOM     32  F   UNL     1      -5.471  11.492  20.369  0.00  0.00    +0.000 F 
ATOM     33  F   UNL     1      -6.553  13.356  20.673  0.00  0.00    +0.000 F 
ATOM     34  F   UNL     1      -5.621  12.940  18.747  0.00  0.00    +0.000 F 
ENDBRANCH  30  31
ENDBRANCH  27  30
ENDBRANCH  22  24
ENDBRANCH   1  21
TORSDOF 7
ENDMDL
MODEL 8
REMARK VINA RESULT:      -8.0      0.526      1.222
REMARK  Name = 
REMARK  7 active torsions:
REMARK  status: ('A' for Active; 'I' for Inactive)
REMARK    1  A    between atoms: C_2  and  C_15
REMARK    2  A    between atoms: N_3  and  C_4
REMARK    3  A    between atoms: C_7  and  S_8
REMARK    4  A    between atoms: S_8  and  C_9
REMARK    5  A    between atoms: C_18  and  N_19
REMARK    6  A    between atoms: C_22  and  O_23
REMARK    7  A    between atoms: C_25  and  C_26
REMARK                            x       y       z     vdW  Elec       q    Type
REMARK                         _______ _______ _______ _____ _____    ______ ____
ROOT
ATOM      1  C   UNL     1       2.133   8.217  18.559  0.00  0.00    +0.000 A 
ATOM      2  C   UNL     1       3.218   8.500  17.769  0.00  0.00    +0.000 A 
ATOM      3  N   UNL     1       4.047   7.543  17.277  0.00  0.00    +0.000 NA
ATOM      4  C   UNL     1       3.852   6.232  17.602  0.00  0.00    +0.000 A 
ATOM      5  C   UNL     1       2.777   5.842  18.438  0.00  0.00    +0.000 A 
ATOM      6  C   UNL     1       1.922   6.875  18.883  0.00  0.00    +0.000 A 
ENDROOT
BRANCH   5   7
ATOM      7  C   UNL     1       2.452   4.453  18.841  0.00  0.00    +0.000 A 
ATOM      8  C   UNL     1       3.003   3.842  19.962  0.00  0.00    +0.000 A 
ATOM      9  N   UNL     1       2.721   2.591  20.390  0.00  0.00    +0.000 NA
ATOM     10  C   UNL     1       1.846   1.911  19.643  0.00  0.00    +0.000 A 
ATOM     11  N   UNL     1       1.239   2.367  18.541  0.00  0.00    +0.000 NA
ATOM     12  C   UNL     1       1.548   3.635  18.182  0.00  0.00    +0.000 A 
ENDBRANCH   5   7
BRANCH   4  13
ATOM     13  N   UNL     1       4.724   5.298  17.031  0.00  0.00    +0.000 N 
ATOM     14  C   UNL     1       5.100   5.536  15.628  0.00  0.00    +0.000 C 
ATOM     15  C   UNL     1       6.435   4.829  15.462  0.00  0.00    +0.000 C 
ATOM     16  C   UNL     1       7.097   5.034  16.814  0.00  0.00    +0.000 C 
ATOM     17  C   UNL     1       5.926   4.930  17.805  0.00  0.00    +0.000 C 
BRANCH  16  18
ATOM     18  O   UNL     1       8.104   4.054  17.033  0.00  0.00    +0.000 OA
ATOM     19  H   UNL     1       8.856   4.250  16.446  0.00  0.00    +0.000 HD
ENDBRANCH  16  18
ENDBRANCH   4  13
BRANCH   1  21
ATOM     20  O   UNL     1       0.466   9.793  18.388  0.00  0.00    +0.000 OA
ATOM     21  C   UNL     1       1.234   9.230  19.161  0.00  0.00    +0.000 C 
ATOM     22  N   UNL     1       1.365   9.504  20.515  0.00  0.00    +0.000 N 
ATOM     23  H   UNL     1       2.174   9.141  21.003  0.00  0.00    +0.000 HD
BRANCH  22  24
ATOM     24  C   UNL     1       0.572  10.441  21.228  0.00  0.00    +0.000 A 
ATOM     25  C   UNL     1      -0.351  10.068  22.209  0.00  0.00    +0.000 A 
ATOM     26  C   UNL     1      -1.157  11.018  22.846  0.00  0.00    +0.000 A 
ATOM     27  C   UNL     1      -1.042  12.370  22.528  0.00  0.00    +0.000 A 
ATOM     28  C   UNL     1      -0.105  12.757  21.564  0.00  0.00    +0.000 A 
ATOM     29  C   UNL     1       0.707  11.802  20.929  0.00  0.00    +0.000 A 
BRANCH  27  30
ATOM     30  S   UNL     1      -2.167  13.529  23.275  0.00  0.00    +0.000 S 
BRANCH  30  31
ATOM     31  C   UNL     1      -3.657  13.266  22.307  0.00  0.00    +0.000 C 
ATOM     32  F   UNL     1      -3.425  12.794  21.060  0.00  0.00    +0.000 F 
ATOM     33  F   UNL     1      -4.469  12.371  22.922  0.00  0.00    +0.000 F 
ATOM     34  F   UNL     1      -4.362  14.416  22.175  0.00  0.00    +0.000 F 
ENDBRANCH  30  31
ENDBRANCH  27  30
ENDBRANCH  22  24
ENDBRANCH   1  21
TORSDOF 7
ENDMDL
MODEL 9
REMARK VINA RESULT:      -8.0      1.435      1.569
REMARK  Name = 
REMARK  7 active torsions:
REMARK  status: ('A' for Active; 'I' for Inactive)
REMARK    1  A    between atoms: C_2  and  C_15
REMARK    2  A    between atoms: N_3  and  C_4
REMARK    3  A    between atoms: C_7  and  S_8
REMARK    4  A    between atoms: S_8  and  C_9
REMARK    5  A    between atoms: C_18  and  N_19
REMARK    6  A    between atoms: C_22  and  O_23
REMARK    7  A    between atoms: C_25  and  C_26
REMARK                            x       y       z     vdW  Elec       q    Type
REMARK                         _______ _______ _______ _____ _____    ______ ____
ROOT
ATOM      1  C   UNL     1       2.338   8.470  18.225  0.00  0.00    +0.000 A 
ATOM      2  C   UNL     1       3.488   8.453  17.475  0.00  0.00    +0.000 A 
ATOM      3  N   UNL     1       4.255   7.343  17.320  0.00  0.00    +0.000 NA
ATOM      4  C   UNL     1       3.927   6.185  17.964  0.00  0.00    +0.000 A 
ATOM      5  C   UNL     1       2.776   6.111  18.786  0.00  0.00    +0.000 A 
ATOM      6  C   UNL     1       1.991   7.284  18.874  0.00  0.00    +0.000 A 
ENDROOT
BRANCH   5   7
ATOM      7  C   UNL     1       2.307   4.909  19.514  0.00  0.00    +0.000 A 
ATOM      8  C   UNL     1       2.502   4.727  20.880  0.00  0.00    +0.000 A 
ATOM      9  N   UNL     1       2.071   3.665  21.598  0.00  0.00    +0.000 NA
ATOM     10  C   UNL     1       1.418   2.728  20.904  0.00  0.00    +0.000 A 
ATOM     11  N   UNL     1       1.159   2.766  19.592  0.00  0.00    +0.000 NA
ATOM     12  C   UNL     1       1.597   3.868  18.938  0.00  0.00    +0.000 A 
ENDBRANCH   5   7
BRANCH   4  13
ATOM     13  N   UNL     1       4.743   5.073  17.729  0.00  0.00    +0.000 N 
ATOM     14  C   UNL     1       4.806   4.596  16.338  0.00  0.00    +0.000 C 
ATOM     15  C   UNL     1       6.137   3.869  16.240  0.00  0.00    +0.000 C 
ATOM     16  C   UNL     1       7.038   4.686  17.151  0.00  0.00    +0.000 C 
ATOM     17  C   UNL     1       6.104   5.098  18.301  0.00  0.00    +0.000 C 
BRANCH  16  18
ATOM     18  O   UNL     1       8.149   3.911  17.583  0.00  0.00    +0.000 OA
ATOM     19  H   UNL     1       7.954   2.973  17.411  0.00  0.00    +0.000 HD
ENDBRANCH  16  18
ENDBRANCH   4  13
BRANCH   1  21
ATOM     20  O   UNL     1       1.826  10.683  17.858  0.00  0.00    +0.000 OA
ATOM     21  C   UNL     1       1.500   9.668  18.465  0.00  0.00    +0.000 C 
ATOM     22  N   UNL     1       0.466   9.573  19.385  0.00  0.00    +0.000 N 
ATOM     23  H   UNL     1       0.428   8.758  19.984  0.00  0.00    +0.000 HD
BRANCH  22  24
ATOM     24  C   UNL     1      -0.421  10.632  19.713  0.00  0.00    +0.000 A 
ATOM     25  C   UNL     1      -0.200  11.508  20.780  0.00  0.00    +0.000 A 
ATOM     26  C   UNL     1      -1.130  12.501  21.108  0.00  0.00    +0.000 A 
ATOM     27  C   UNL     1      -2.296  12.653  20.360  0.00  0.00    +0.000 A 
ATOM     28  C   UNL     1      -2.516  11.796  19.276  0.00  0.00    +0.000 A 
ATOM     29  C   UNL     1      -1.579  10.803  18.946  0.00  0.00    +0.000 A 
BRANCH  27  30
ATOM     30  S   UNL     1      -3.505  13.849  20.883  0.00  0.00    +0.000 S 
BRANCH  30  31
ATOM     31  C   UNL     1      -3.730  13.409  22.610  0.00  0.00    +0.000 C 
ATOM     32  F   UNL     1      -4.896  13.845  23.140  0.00  0.00    +0.000 F 
ATOM     33  F   UNL     1      -3.707  12.062  22.761  0.00  0.00    +0.000 F 
ATOM     34  F   UNL     1      -2.730  13.910  23.375  0.00  0.00    +0.000 F 
ENDBRANCH  30  31
ENDBRANCH  27  30
ENDBRANCH  22  24
ENDBRANCH   1  21
TORSDOF 7
ENDMDL
