MODEL 1
REMARK VINA RESULT:      -7.0      0.000      0.000
REMARK  Name = 
REMARK  13 active torsions:
REMARK  status: ('A' for Active; 'I' for Inactive)
REMARK    1  A    between atoms: C_1  and  C_2
REMARK    2  A    between atoms: C_2  and  C_3
REMARK    3  A    between atoms: C_3  and  C_4
REMARK    4  A    between atoms: C_4  and  C_5
REMARK    5  A    between atoms: C_5  and  C_6
REMARK    6  A    between atoms: C_5  and  C_8
REMARK    7  A    between atoms: C_6  and  C_7
REMARK    8  A    between atoms: C_8  and  O_9
REMARK    9  A    between atoms: O_9  and  P_10
REMARK   10  A    between atoms: P_10  and  O_12
REMARK   11  A    between atoms: P_10  and  O_19
REMARK   12  A    between atoms: O_12  and  C_13
REMARK   13  A    between atoms: O_19  and  C_20
REMARK                            x       y       z     vdW  Elec       q    Type
REMARK                         _______ _______ _______ _____ _____    ______ ____
ROOT
ATOM      1  P   UNL     1       3.640   6.481  17.867  0.00  0.00    +0.000 P 
ATOM      2  O   UNL     1       3.934   6.092  19.324  0.00  0.00    +0.000 OA
ENDROOT
BRANCH   1   3
ATOM      3  O   UNL     1       5.223   7.156  17.691  0.00  0.00    +0.000 OA
BRANCH   3   4
ATOM      4  C   UNL     1       6.026   6.616  16.644  0.00  0.00    +0.000 C 
BRANCH   4   5
ATOM      5  C   UNL     1       5.571   5.209  16.226  0.00  0.00    +0.000 C 
BRANCH   5   6
ATOM      6  C   UNL     1       6.411   4.129  16.938  0.00  0.00    +0.000 C 
ATOM      7  C   UNL     1       7.617   4.653  17.710  0.00  0.00    +0.000 C 
ENDBRANCH   5   6
BRANCH   5   8
ATOM      8  C   UNL     1       5.552   5.093  14.682  0.00  0.00    +0.000 C 
BRANCH   8   9
ATOM      9  C   UNL     1       6.173   3.797  14.152  0.00  0.00    +0.000 C 
BRANCH   9  11
ATOM     10  C   UNL     1       5.604   2.804  11.916  0.00  0.00    +0.000 C 
ATOM     11  C   UNL     1       6.411   3.868  12.645  0.00  0.00    +0.000 C 
ENDBRANCH   9  11
ENDBRANCH   8   9
ENDBRANCH   5   8
ENDBRANCH   4   5
ENDBRANCH   3   4
ENDBRANCH   1   3
BRANCH   1  12
ATOM     12  O   UNL     1       3.005   8.001  17.766  0.00  0.00    +0.000 OA
BRANCH  12  13
ATOM     13  C   UNL     1       2.073   8.599  18.567  0.00  0.00    +0.000 A 
ATOM     14  C   UNL     1       1.171   9.449  17.917  0.00  0.00    +0.000 A 
ATOM     15  C   UNL     1       0.097  10.012  18.614  0.00  0.00    +0.000 A 
ATOM     16  C   UNL     1      -0.077   9.722  19.964  0.00  0.00    +0.000 A 
ATOM     17  C   UNL     1       0.832   8.896  20.619  0.00  0.00    +0.000 A 
ATOM     18  C   UNL     1       1.910   8.334  19.921  0.00  0.00    +0.000 A 
ENDBRANCH  12  13
ENDBRANCH   1  12
BRANCH   1  19
ATOM     19  O   UNL     1       2.057   5.806  18.043  0.00  0.00    +0.000 OA
BRANCH  19  20
ATOM     20  C   UNL     1       1.868   4.495  18.387  0.00  0.00    +0.000 A 
ATOM     21  C   UNL     1       2.415   3.554  17.512  0.00  0.00    +0.000 A 
ATOM     22  C   UNL     1       2.361   2.194  17.818  0.00  0.00    +0.000 A 
ATOM     23  C   UNL     1       1.769   1.774  19.007  0.00  0.00    +0.000 A 
ATOM     24  C   UNL     1       1.214   2.711  19.876  0.00  0.00    +0.000 A 
ATOM     25  C   UNL     1       1.255   4.073  19.564  0.00  0.00    +0.000 A 
ENDBRANCH  19  20
ENDBRANCH   1  19
TORSDOF 11
ENDMDL
MODEL 2
REMARK VINA RESULT:      -6.9      1.329      4.714
REMARK  Name = 
REMARK  13 active torsions:
REMARK  status: ('A' for Active; 'I' for Inactive)
REMARK    1  A    between atoms: C_1  and  C_2
REMARK    2  A    between atoms: C_2  and  C_3
REMARK    3  A    between atoms: C_3  and  C_4
REMARK    4  A    between atoms: C_4  and  C_5
REMARK    5  A    between atoms: C_5  and  C_6
REMARK    6  A    between atoms: C_5  and  C_8
REMARK    7  A    between atoms: C_6  and  C_7
REMARK    8  A    between atoms: C_8  and  O_9
REMARK    9  A    between atoms: O_9  and  P_10
REMARK   10  A    between atoms: P_10  and  O_12
REMARK   11  A    between atoms: P_10  and  O_19
REMARK   12  A    between atoms: O_12  and  C_13
REMARK   13  A    between atoms: O_19  and  C_20
REMARK                            x       y       z     vdW  Elec       q    Type
REMARK                         _______ _______ _______ _____ _____    ______ ____
ROOT
ATOM      1  P   UNL     1       3.585   6.638  18.043  0.00  0.00    +0.000 P 
ATOM      2  O   UNL     1       4.129   7.171  16.709  0.00  0.00    +0.000 OA
ENDROOT
BRANCH   1   3
ATOM      3  O   UNL     1       4.853   5.464  18.131  0.00  0.00    +0.000 OA
BRANCH   3   4
ATOM      4  C   UNL     1       5.960   5.793  18.966  0.00  0.00    +0.000 C 
BRANCH   4   5
ATOM      5  C   UNL     1       7.286   5.831  18.190  0.00  0.00    +0.000 C 
BRANCH   5   6
ATOM      6  C   UNL     1       8.070   7.119  18.511  0.00  0.00    +0.000 C 
ATOM      7  C   UNL     1       7.740   8.315  17.625  0.00  0.00    +0.000 C 
ENDBRANCH   5   6
BRANCH   5   8
ATOM      8  C   UNL     1       7.028   5.596  16.682  0.00  0.00    +0.000 C 
BRANCH   8   9
ATOM      9  C   UNL     1       6.899   4.119  16.299  0.00  0.00    +0.000 C 
BRANCH   9  11
ATOM     10  C   UNL     1       7.013   4.886  13.911  0.00  0.00    +0.000 C 
ATOM     11  C   UNL     1       6.323   3.954  14.894  0.00  0.00    +0.000 C 
ENDBRANCH   9  11
ENDBRANCH   8   9
ENDBRANCH   5   8
ENDBRANCH   4   5
ENDBRANCH   3   4
ENDBRANCH   1   3
BRANCH   1  12
ATOM     12  O   UNL     1       2.501   5.417  17.807  0.00  0.00    +0.000 OA
BRANCH  12  13
ATOM     13  C   UNL     1       2.079   4.458  18.685  0.00  0.00    +0.000 A 
ATOM     14  C   UNL     1       2.354   4.709  20.034  0.00  0.00    +0.000 A 
ATOM     15  C   UNL     1       1.856   3.862  21.029  0.00  0.00    +0.000 A 
ATOM     16  C   UNL     1       1.077   2.764  20.676  0.00  0.00    +0.000 A 
ATOM     17  C   UNL     1       0.822   2.499  19.333  0.00  0.00    +0.000 A 
ATOM     18  C   UNL     1       1.324   3.346  18.335  0.00  0.00    +0.000 A 
ENDBRANCH  12  13
ENDBRANCH   1  12
BRANCH   1  19
ATOM     19  O   UNL     1       2.318   7.812  17.956  0.00  0.00    +0.000 OA
BRANCH  19  20
ATOM     20  C   UNL     1       1.831   8.431  19.076  0.00  0.00    +0.000 A 
ATOM     21  C   UNL     1       1.267   9.693  18.872  0.00  0.00    +0.000 A 
ATOM     22  C   UNL     1       0.659  10.370  19.930  0.00  0.00    +0.000 A 
ATOM     23  C   UNL     1       0.602   9.779  21.191  0.00  0.00    +0.000 A 
ATOM     24  C   UNL     1       1.174   8.524  21.396  0.00  0.00    +0.000 A 
ATOM     25  C   UNL     1       1.796   7.851  20.340  0.00  0.00    +0.000 A 
ENDBRANCH  19  20
ENDBRANCH   1  19
TORSDOF 11
ENDMDL
MODEL 3
REMARK VINA RESULT:      -6.7      1.473      4.843
REMARK  Name = 
REMARK  13 active torsions:
REMARK  status: ('A' for Active; 'I' for Inactive)
REMARK    1  A    between atoms: C_1  and  C_2
REMARK    2  A    between atoms: C_2  and  C_3
REMARK    3  A    between atoms: C_3  and  C_4
REMARK    4  A    between atoms: C_4  and  C_5
REMARK    5  A    between atoms: C_5  and  C_6
REMARK    6  A    between atoms: C_5  and  C_8
REMARK    7  A    between atoms: C_6  and  C_7
REMARK    8  A    between atoms: C_8  and  O_9
REMARK    9  A    between atoms: O_9  and  P_10
REMARK   10  A    between atoms: P_10  and  O_12
REMARK   11  A    between atoms: P_10  and  O_19
REMARK   12  A    between atoms: O_12  and  C_13
REMARK   13  A    between atoms: O_19  and  C_20
REMARK                            x       y       z     vdW  Elec       q    Type
REMARK                         _______ _______ _______ _____ _____    ______ ____
ROOT
ATOM      1  P   UNL     1       2.993   6.750  18.751  0.00  0.00    +0.000 P 
ATOM      2  O   UNL     1       2.113   6.203  17.616  0.00  0.00    +0.000 OA
ENDROOT
BRANCH   1   3
ATOM      3  O   UNL     1       1.841   6.242  19.937  0.00  0.00    +0.000 OA
BRANCH   3   4
ATOM      4  C   UNL     1       2.150   5.043  20.643  0.00  0.00    +0.000 C 
BRANCH   4   5
ATOM      5  C   UNL     1       1.086   3.953  20.437  0.00  0.00    +0.000 C 
BRANCH   5   6
ATOM      6  C   UNL     1       1.324   2.770  21.398  0.00  0.00    +0.000 C 
ATOM      7  C   UNL     1       2.788   2.452  21.681  0.00  0.00    +0.000 C 
ENDBRANCH   5   6
BRANCH   5   8
ATOM      8  C   UNL     1       1.009   3.560  18.942  0.00  0.00    +0.000 C 
BRANCH   8   9
ATOM      9  C   UNL     1       1.447   2.120  18.658  0.00  0.00    +0.000 C 
BRANCH   9  11
ATOM     10  C   UNL     1       3.731   2.964  18.045  0.00  0.00    +0.000 C 
ATOM     11  C   UNL     1       2.574   2.071  17.627  0.00  0.00    +0.000 C 
ENDBRANCH   9  11
ENDBRANCH   8   9
ENDBRANCH   5   8
ENDBRANCH   4   5
ENDBRANCH   3   4
ENDBRANCH   1   3
BRANCH   1  12
ATOM     12  O   UNL     1       2.622   8.321  19.097  0.00  0.00    +0.000 OA
BRANCH  12  13
ATOM     13  C   UNL     1       1.405   8.941  19.083  0.00  0.00    +0.000 A 
ATOM     14  C   UNL     1       0.873   9.259  20.337  0.00  0.00    +0.000 A 
ATOM     15  C   UNL     1      -0.304  10.009  20.441  0.00  0.00    +0.000 A 
ATOM     16  C   UNL     1      -0.948  10.445  19.286  0.00  0.00    +0.000 A 
ATOM     17  C   UNL     1      -0.433  10.110  18.037  0.00  0.00    +0.000 A 
ATOM     18  C   UNL     1       0.744   9.356  17.934  0.00  0.00    +0.000 A 
ENDBRANCH  12  13
ENDBRANCH   1  12
BRANCH   1  19
ATOM     19  O   UNL     1       4.145   7.259  17.565  0.00  0.00    +0.000 OA
BRANCH  19  20
ATOM     20  C   UNL     1       5.122   6.419  17.104  0.00  0.00    +0.000 A 
ATOM     21  C   UNL     1       6.000   5.923  18.071  0.00  0.00    +0.000 A 
ATOM     22  C   UNL     1       6.974   4.986  17.723  0.00  0.00    +0.000 A 
ATOM     23  C   UNL     1       7.062   4.534  16.408  0.00  0.00    +0.000 A 
ATOM     24  C   UNL     1       6.193   5.035  15.441  0.00  0.00    +0.000 A 
ATOM     25  C   UNL     1       5.226   5.984  15.786  0.00  0.00    +0.000 A 
ENDBRANCH  19  20
ENDBRANCH   1  19
TORSDOF 11
ENDMDL
MODEL 4
REMARK VINA RESULT:      -6.7      1.169      4.670
REMARK  Name = 
REMARK  13 active torsions:
REMARK  status: ('A' for Active; 'I' for Inactive)
REMARK    1  A    between atoms: C_1  and  C_2
REMARK    2  A    between atoms: C_2  and  C_3
REMARK    3  A    between atoms: C_3  and  C_4
REMARK    4  A    between atoms: C_4  and  C_5
REMARK    5  A    between atoms: C_5  and  C_6
REMARK    6  A    between atoms: C_5  and  C_8
REMARK    7  A    between atoms: C_6  and  C_7
REMARK    8  A    between atoms: C_8  and  O_9
REMARK    9  A    between atoms: O_9  and  P_10
REMARK   10  A    between atoms: P_10  and  O_12
REMARK   11  A    between atoms: P_10  and  O_19
REMARK   12  A    between atoms: O_12  and  C_13
REMARK   13  A    between atoms: O_19  and  C_20
REMARK                            x       y       z     vdW  Elec       q    Type
REMARK                         _______ _______ _______ _____ _____    ______ ____
ROOT
ATOM      1  P   UNL     1       3.314   7.139  18.193  0.00  0.00    +0.000 P 
ATOM      2  O   UNL     1       3.688   7.722  16.821  0.00  0.00    +0.000 OA
ENDROOT
BRANCH   1   3
ATOM      3  O   UNL     1       4.832   6.316  18.297  0.00  0.00    +0.000 OA
BRANCH   3   4
ATOM      4  C   UNL     1       5.137   5.420  17.232  0.00  0.00    +0.000 C 
BRANCH   4   5
ATOM      5  C   UNL     1       6.564   4.860  17.329  0.00  0.00    +0.000 C 
BRANCH   5   6
ATOM      6  C   UNL     1       7.487   5.845  18.075  0.00  0.00    +0.000 C 
ATOM      7  C   UNL     1       7.673   7.197  17.395  0.00  0.00    +0.000 C 
ENDBRANCH   5   6
BRANCH   5   8
ATOM      8  C   UNL     1       7.070   4.443  15.926  0.00  0.00    +0.000 C 
BRANCH   8   9
ATOM      9  C   UNL     1       6.035   4.637  14.814  0.00  0.00    +0.000 C 
BRANCH   9  11
ATOM     10  C   UNL     1       5.785   3.341  12.677  0.00  0.00    +0.000 C 
ATOM     11  C   UNL     1       6.633   4.348  13.438  0.00  0.00    +0.000 C 
ENDBRANCH   9  11
ENDBRANCH   8   9
ENDBRANCH   5   8
ENDBRANCH   4   5
ENDBRANCH   3   4
ENDBRANCH   1   3
BRANCH   1  12
ATOM     12  O   UNL     1       2.558   5.680  18.043  0.00  0.00    +0.000 OA
BRANCH  12  13
ATOM     13  C   UNL     1       2.084   4.851  19.021  0.00  0.00    +0.000 A 
ATOM     14  C   UNL     1       1.328   3.761  18.576  0.00  0.00    +0.000 A 
ATOM     15  C   UNL     1       0.903   2.778  19.476  0.00  0.00    +0.000 A 
ATOM     16  C   UNL     1       1.237   2.884  20.823  0.00  0.00    +0.000 A 
ATOM     17  C   UNL     1       1.969   3.980  21.272  0.00  0.00    +0.000 A 
ATOM     18  C   UNL     1       2.392   4.967  20.370  0.00  0.00    +0.000 A 
ENDBRANCH  12  13
ENDBRANCH   1  12
BRANCH   1  19
ATOM     19  O   UNL     1       1.796   7.963  18.090  0.00  0.00    +0.000 OA
BRANCH  19  20
ATOM     20  C   UNL     1       1.417   8.894  19.019  0.00  0.00    +0.000 A 
ATOM     21  C   UNL     1       1.295   8.426  20.329  0.00  0.00    +0.000 A 
ATOM     22  C   UNL     1       1.005   9.311  21.368  0.00  0.00    +0.000 A 
ATOM     23  C   UNL     1       0.850  10.669  21.098  0.00  0.00    +0.000 A 
ATOM     24  C   UNL     1       0.962  11.135  19.789  0.00  0.00    +0.000 A 
ATOM     25  C   UNL     1       1.238  10.247  18.746  0.00  0.00    +0.000 A 
ENDBRANCH  19  20
ENDBRANCH   1  19
TORSDOF 11
ENDMDL
MODEL 5
REMARK VINA RESULT:      -6.7      0.964      1.113
REMARK  Name = 
REMARK  13 active torsions:
REMARK  status: ('A' for Active; 'I' for Inactive)
REMARK    1  A    between atoms: C_1  and  C_2
REMARK    2  A    between atoms: C_2  and  C_3
REMARK    3  A    between atoms: C_3  and  C_4
REMARK    4  A    between atoms: C_4  and  C_5
REMARK    5  A    between atoms: C_5  and  C_6
REMARK    6  A    between atoms: C_5  and  C_8
REMARK    7  A    between atoms: C_6  and  C_7
REMARK    8  A    between atoms: C_8  and  O_9
REMARK    9  A    between atoms: O_9  and  P_10
REMARK   10  A    between atoms: P_10  and  O_12
REMARK   11  A    between atoms: P_10  and  O_19
REMARK   12  A    between atoms: O_12  and  C_13
REMARK   13  A    between atoms: O_19  and  C_20
REMARK                            x       y       z     vdW  Elec       q    Type
REMARK                         _______ _______ _______ _____ _____    ______ ____
ROOT
ATOM      1  P   UNL     1       4.297   5.915  17.918  0.00  0.00    +0.000 P 
ATOM      2  O   UNL     1       5.207   6.678  18.894  0.00  0.00    +0.000 OA
ENDROOT
BRANCH   1   3
ATOM      3  O   UNL     1       4.633   7.055  16.660  0.00  0.00    +0.000 OA
BRANCH   3   4
ATOM      4  C   UNL     1       5.224   6.529  15.475  0.00  0.00    +0.000 C 
BRANCH   4   5
ATOM      5  C   UNL     1       5.698   5.078  15.653  0.00  0.00    +0.000 C 
BRANCH   5   6
ATOM      6  C   UNL     1       7.216   5.028  15.920  0.00  0.00    +0.000 C 
ATOM      7  C   UNL     1       7.612   4.542  17.309  0.00  0.00    +0.000 C 
ENDBRANCH   5   6
BRANCH   5   8
ATOM      8  C   UNL     1       5.228   4.214  14.457  0.00  0.00    +0.000 C 
BRANCH   8   9
ATOM      9  C   UNL     1       6.372   3.537  13.696  0.00  0.00    +0.000 C 
BRANCH   9  11
ATOM     10  C   UNL     1       4.846   3.133  11.743  0.00  0.00    +0.000 C 
ATOM     11  C   UNL     1       6.196   3.675  12.184  0.00  0.00    +0.000 C 
ENDBRANCH   9  11
ENDBRANCH   8   9
ENDBRANCH   5   8
ENDBRANCH   4   5
ENDBRANCH   3   4
ENDBRANCH   1   3
BRANCH   1  12
ATOM     12  O   UNL     1       2.745   6.474  17.979  0.00  0.00    +0.000 OA
BRANCH  12  13
ATOM     13  C   UNL     1       2.246   7.558  18.645  0.00  0.00    +0.000 A 
ATOM     14  C   UNL     1       1.913   8.658  17.848  0.00  0.00    +0.000 A 
ATOM     15  C   UNL     1       1.275   9.772  18.404  0.00  0.00    +0.000 A 
ATOM     16  C   UNL     1       0.966   9.783  19.762  0.00  0.00    +0.000 A 
ATOM     17  C   UNL     1       1.317   8.700  20.562  0.00  0.00    +0.000 A 
ATOM     18  C   UNL     1       1.960   7.586  20.004  0.00  0.00    +0.000 A 
ENDBRANCH  12  13
ENDBRANCH   1  12
BRANCH   1  19
ATOM     19  O   UNL     1       3.961   4.776  19.176  0.00  0.00    +0.000 OA
BRANCH  19  20
ATOM     20  C   UNL     1       2.844   3.985  19.151  0.00  0.00    +0.000 A 
ATOM     21  C   UNL     1       2.800   3.033  18.129  0.00  0.00    +0.000 A 
ATOM     22  C   UNL     1       1.752   2.114  18.069  0.00  0.00    +0.000 A 
ATOM     23  C   UNL     1       0.752   2.138  19.040  0.00  0.00    +0.000 A 
ATOM     24  C   UNL     1       0.791   3.093  20.054  0.00  0.00    +0.000 A 
ATOM     25  C   UNL     1       1.834   4.023  20.107  0.00  0.00    +0.000 A 
ENDBRANCH  19  20
ENDBRANCH   1  19
TORSDOF 11
ENDMDL
MODEL 6
REMARK VINA RESULT:      -6.7      1.628      6.872
REMARK  Name = 
REMARK  13 active torsions:
REMARK  status: ('A' for Active; 'I' for Inactive)
REMARK    1  A    between atoms: C_1  and  C_2
REMARK    2  A    between atoms: C_2  and  C_3
REMARK    3  A    between atoms: C_3  and  C_4
REMARK    4  A    between atoms: C_4  and  C_5
REMARK    5  A    between atoms: C_5  and  C_6
REMARK    6  A    between atoms: C_5  and  C_8
REMARK    7  A    between atoms: C_6  and  C_7
REMARK    8  A    between atoms: C_8  and  O_9
REMARK    9  A    between atoms: O_9  and  P_10
REMARK   10  A    between atoms: P_10  and  O_12
REMARK   11  A    between atoms: P_10  and  O_19
REMARK   12  A    between atoms: O_12  and  C_13
REMARK   13  A    between atoms: O_19  and  C_20
REMARK                            x       y       z     vdW  Elec       q    Type
REMARK                         _______ _______ _______ _____ _____    ______ ____
ROOT
ATOM      1  P   UNL     1       2.887   7.252  18.375  0.00  0.00    +0.000 P 
ATOM      2  O   UNL     1       1.916   6.203  17.810  0.00  0.00    +0.000 OA
ENDROOT
BRANCH   1   3
ATOM      3  O   UNL     1       2.209   8.478  17.360  0.00  0.00    +0.000 OA
BRANCH   3   4
ATOM      4  C   UNL     1       2.033   9.761  17.954  0.00  0.00    +0.000 C 
BRANCH   4   5
ATOM      5  C   UNL     1       0.709   9.872  18.724  0.00  0.00    +0.000 C 
BRANCH   5   6
ATOM      6  C   UNL     1      -0.492   9.810  17.758  0.00  0.00    +0.000 C 
ATOM      7  C   UNL     1      -1.813  10.306  18.336  0.00  0.00    +0.000 C 
ENDBRANCH   5   6
BRANCH   5   8
ATOM      8  C   UNL     1       0.730  11.119  19.642  0.00  0.00    +0.000 C 
BRANCH   8   9
ATOM      9  C   UNL     1       0.744  10.786  21.137  0.00  0.00    +0.000 C 
BRANCH   9  11
ATOM     10  C   UNL     1      -0.448   9.287  22.762  0.00  0.00    +0.000 C 
ATOM     11  C   UNL     1       0.221   9.374  21.399  0.00  0.00    +0.000 C 
ENDBRANCH   9  11
ENDBRANCH   8   9
ENDBRANCH   5   8
ENDBRANCH   4   5
ENDBRANCH   3   4
ENDBRANCH   1   3
BRANCH   1  12
ATOM     12  O   UNL     1       4.279   7.321  17.492  0.00  0.00    +0.000 OA
BRANCH  12  13
ATOM     13  C   UNL     1       5.210   6.345  17.274  0.00  0.00    +0.000 A 
ATOM     14  C   UNL     1       4.941   5.477  16.211  0.00  0.00    +0.000 A 
ATOM     15  C   UNL     1       5.884   4.523  15.815  0.00  0.00    +0.000 A 
ATOM     16  C   UNL     1       7.103   4.439  16.484  0.00  0.00    +0.000 A 
ATOM     17  C   UNL     1       7.364   5.286  17.557  0.00  0.00    +0.000 A 
ATOM     18  C   UNL     1       6.416   6.240  17.955  0.00  0.00    +0.000 A 
ENDBRANCH  12  13
ENDBRANCH   1  12
BRANCH   1  19
ATOM     19  O   UNL     1       3.564   6.026  19.390  0.00  0.00    +0.000 OA
BRANCH  19  20
ATOM     20  C   UNL     1       2.873   4.886  19.703  0.00  0.00    +0.000 A 
ATOM     21  C   UNL     1       3.381   3.703  19.161  0.00  0.00    +0.000 A 
ATOM     22  C   UNL     1       2.807   2.475  19.494  0.00  0.00    +0.000 A 
ATOM     23  C   UNL     1       1.732   2.428  20.378  0.00  0.00    +0.000 A 
ATOM     24  C   UNL     1       1.219   3.610  20.911  0.00  0.00    +0.000 A 
ATOM     25  C   UNL     1       1.784   4.842  20.568  0.00  0.00    +0.000 A 
ENDBRANCH  19  20
ENDBRANCH   1  19
TORSDOF 11
ENDMDL
MODEL 7
REMARK VINA RESULT:      -6.6      1.626      6.345
REMARK  Name = 
REMARK  13 active torsions:
REMARK  status: ('A' for Active; 'I' for Inactive)
REMARK    1  A    between atoms: C_1  and  C_2
REMARK    2  A    between atoms: C_2  and  C_3
REMARK    3  A    between atoms: C_3  and  C_4
REMARK    4  A    between atoms: C_4  and  C_5
REMARK    5  A    between atoms: C_5  and  C_6
REMARK    6  A    between atoms: C_5  and  C_8
REMARK    7  A    between atoms: C_6  and  C_7
REMARK    8  A    between atoms: C_8  and  O_9
REMARK    9  A    between atoms: O_9  and  P_10
REMARK   10  A    between atoms: P_10  and  O_12
REMARK   11  A    between atoms: P_10  and  O_19
REMARK   12  A    between atoms: O_12  and  C_13
REMARK   13  A    between atoms: O_19  and  C_20
REMARK                            x       y       z     vdW  Elec       q    Type
REMARK                         _______ _______ _______ _____ _____    ______ ____
ROOT
ATOM      1  P   UNL     1       2.582   7.425  18.004  0.00  0.00    +0.000 P 
ATOM      2  O   UNL     1       2.466   7.346  19.535  0.00  0.00    +0.000 OA
ENDROOT
BRANCH   1   3
ATOM      3  O   UNL     1       2.776   5.709  17.896  0.00  0.00    +0.000 OA
BRANCH   3   4
ATOM      4  C   UNL     1       2.043   4.931  18.839  0.00  0.00    +0.000 C 
BRANCH   4   5
ATOM      5  C   UNL     1       1.431   3.672  18.208  0.00  0.00    +0.000 C 
BRANCH   5   6
ATOM      6  C   UNL     1       0.757   2.794  19.283  0.00  0.00    +0.000 C 
ATOM      7  C   UNL     1       0.998   3.236  20.722  0.00  0.00    +0.000 C 
ENDBRANCH   5   6
BRANCH   5   8
ATOM      8  C   UNL     1       2.490   2.937  17.350  0.00  0.00    +0.000 C 
BRANCH   8   9
ATOM      9  C   UNL     1       3.283   1.878  18.122  0.00  0.00    +0.000 C 
BRANCH   9  11
ATOM     10  C   UNL     1       4.457   2.132  20.328  0.00  0.00    +0.000 C 
ATOM     11  C   UNL     1       4.476   2.496  18.852  0.00  0.00    +0.000 C 
ENDBRANCH   9  11
ENDBRANCH   8   9
ENDBRANCH   5   8
ENDBRANCH   4   5
ENDBRANCH   3   4
ENDBRANCH   1   3
BRANCH   1  12
ATOM     12  O   UNL     1       4.152   7.610  17.528  0.00  0.00    +0.000 OA
BRANCH  12  13
ATOM     13  C   UNL     1       5.034   6.665  17.087  0.00  0.00    +0.000 A 
ATOM     14  C   UNL     1       5.839   6.081  18.071  0.00  0.00    +0.000 A 
ATOM     15  C   UNL     1       6.685   5.012  17.756  0.00  0.00    +0.000 A 
ATOM     16  C   UNL     1       6.724   4.524  16.453  0.00  0.00    +0.000 A 
ATOM     17  C   UNL     1       5.942   5.119  15.466  0.00  0.00    +0.000 A 
ATOM     18  C   UNL     1       5.096   6.192  15.782  0.00  0.00    +0.000 A 
ENDBRANCH  12  13
ENDBRANCH   1  12
BRANCH   1  19
ATOM     19  O   UNL     1       2.388   9.140  18.113  0.00  0.00    +0.000 OA
BRANCH  19  20
ATOM     20  C   UNL     1       1.181   9.711  18.415  0.00  0.00    +0.000 A 
ATOM     21  C   UNL     1       1.195  10.637  19.461  0.00  0.00    +0.000 A 
ATOM     22  C   UNL     1       0.038  11.345  19.788  0.00  0.00    +0.000 A 
ATOM     23  C   UNL     1      -1.131  11.137  19.061  0.00  0.00    +0.000 A 
ATOM     24  C   UNL     1      -1.148  10.207  18.023  0.00  0.00    +0.000 A 
ATOM     25  C   UNL     1       0.007   9.486  17.703  0.00  0.00    +0.000 A 
ENDBRANCH  19  20
ENDBRANCH   1  19
TORSDOF 11
ENDMDL
MODEL 8
REMARK VINA RESULT:      -6.6      1.540      6.929
REMARK  Name = 
REMARK  13 active torsions:
REMARK  status: ('A' for Active; 'I' for Inactive)
REMARK    1  A    between atoms: C_1  and  C_2
REMARK    2  A    between atoms: C_2  and  C_3
REMARK    3  A    between atoms: C_3  and  C_4
REMARK    4  A    between atoms: C_4  and  C_5
REMARK    5  A    between atoms: C_5  and  C_6
REMARK    6  A    between atoms: C_5  and  C_8
REMARK    7  A    between atoms: C_6  and  C_7
REMARK    8  A    between atoms: C_8  and  O_9
REMARK    9  A    between atoms: O_9  and  P_10
REMARK   10  A    between atoms: P_10  and  O_12
REMARK   11  A    between atoms: P_10  and  O_19
REMARK   12  A    between atoms: O_12  and  C_13
REMARK   13  A    between atoms: O_19  and  C_20
REMARK                            x       y       z     vdW  Elec       q    Type
REMARK                         _______ _______ _______ _____ _____    ______ ____
ROOT
ATOM      1  P   UNL     1       2.960   7.014  18.328  0.00  0.00    +0.000 P 
ATOM      2  O   UNL     1       2.784   7.262  19.834  0.00  0.00    +0.000 OA
ENDROOT
BRANCH   1   3
ATOM      3  O   UNL     1       1.703   8.144  17.959  0.00  0.00    +0.000 OA
BRANCH   3   4
ATOM      4  C   UNL     1       1.480   9.173  18.920  0.00  0.00    +0.000 C 
BRANCH   4   5
ATOM      5  C   UNL     1       0.516  10.253  18.405  0.00  0.00    +0.000 C 
BRANCH   5   6
ATOM      6  C   UNL     1       0.113  11.213  19.543  0.00  0.00    +0.000 C 
ATOM      7  C   UNL     1       0.128  10.602  20.940  0.00  0.00    +0.000 C 
ENDBRANCH   5   6
BRANCH   5   8
ATOM      8  C   UNL     1      -0.677   9.596  17.669  0.00  0.00    +0.000 C 
BRANCH   8   9
ATOM      9  C   UNL     1      -2.007  10.327  17.870  0.00  0.00    +0.000 C 
BRANCH   9  11
ATOM     10  C   UNL     1      -2.786  10.338  15.483  0.00  0.00    +0.000 C 
ATOM     11  C   UNL     1      -3.070   9.835  16.889  0.00  0.00    +0.000 C 
ENDBRANCH   9  11
ENDBRANCH   8   9
ENDBRANCH   5   8
ENDBRANCH   4   5
ENDBRANCH   3   4
ENDBRANCH   1   3
BRANCH   1  12
ATOM     12  O   UNL     1       1.985   5.791  17.801  0.00  0.00    +0.000 OA
BRANCH  12  13
ATOM     13  C   UNL     1       1.765   4.564  18.360  0.00  0.00    +0.000 A 
ATOM     14  C   UNL     1       2.146   3.466  17.581  0.00  0.00    +0.000 A 
ATOM     15  C   UNL     1       2.087   2.170  18.104  0.00  0.00    +0.000 A 
ATOM     16  C   UNL     1       1.651   1.972  19.411  0.00  0.00    +0.000 A 
ATOM     17  C   UNL     1       1.249   3.060  20.180  0.00  0.00    +0.000 A 
ATOM     18  C   UNL     1       1.305   4.359  19.655  0.00  0.00    +0.000 A 
ENDBRANCH  12  13
ENDBRANCH   1  12
BRANCH   1  19
ATOM     19  O   UNL     1       4.217   5.884  18.697  0.00  0.00    +0.000 OA
BRANCH  19  20
ATOM     20  C   UNL     1       5.126   5.485  17.754  0.00  0.00    +0.000 A 
ATOM     21  C   UNL     1       4.864   5.902  16.447  0.00  0.00    +0.000 A 
ATOM     22  C   UNL     1       5.777   5.630  15.426  0.00  0.00    +0.000 A 
ATOM     23  C   UNL     1       6.959   4.952  15.715  0.00  0.00    +0.000 A 
ATOM     24  C   UNL     1       7.216   4.528  17.018  0.00  0.00    +0.000 A 
ATOM     25  C   UNL     1       6.297   4.787  18.039  0.00  0.00    +0.000 A 
ENDBRANCH  19  20
ENDBRANCH   1  19
TORSDOF 11
ENDMDL
MODEL 9
REMARK VINA RESULT:      -6.6      1.506      4.827
REMARK  Name = 
REMARK  13 active torsions:
REMARK  status: ('A' for Active; 'I' for Inactive)
REMARK    1  A    between atoms: C_1  and  C_2
REMARK    2  A    between atoms: C_2  and  C_3
REMARK    3  A    between atoms: C_3  and  C_4
REMARK    4  A    between atoms: C_4  and  C_5
REMARK    5  A    between atoms: C_5  and  C_6
REMARK    6  A    between atoms: C_5  and  C_8
REMARK    7  A    between atoms: C_6  and  C_7
REMARK    8  A    between atoms: C_8  and  O_9
REMARK    9  A    between atoms: O_9  and  P_10
REMARK   10  A    between atoms: P_10  and  O_12
REMARK   11  A    between atoms: P_10  and  O_19
REMARK   12  A    between atoms: O_12  and  C_13
REMARK   13  A    between atoms: O_19  and  C_20
REMARK                            x       y       z     vdW  Elec       q    Type
REMARK                         _______ _______ _______ _____ _____    ______ ____
ROOT
ATOM      1  P   UNL     1       2.995   6.154  19.206  0.00  0.00    +0.000 P 
ATOM      2  O   UNL     1       2.003   5.758  18.101  0.00  0.00    +0.000 OA
ENDROOT
BRANCH   1   3
ATOM      3  O   UNL     1       1.958   5.494  20.423  0.00  0.00    +0.000 OA
BRANCH   3   4
ATOM      4  C   UNL     1       0.939   4.607  19.969  0.00  0.00    +0.000 C 
BRANCH   4   5
ATOM      5  C   UNL     1       0.955   3.266  20.718  0.00  0.00    +0.000 C 
BRANCH   5   6
ATOM      6  C   UNL     1       2.084   3.241  21.768  0.00  0.00    +0.000 C 
ATOM      7  C   UNL     1       3.279   2.363  21.411  0.00  0.00    +0.000 C 
ENDBRANCH   5   6
BRANCH   5   8
ATOM      8  C   UNL     1       0.992   2.093  19.708  0.00  0.00    +0.000 C 
BRANCH   8   9
ATOM      9  C   UNL     1       1.491   2.491  18.316  0.00  0.00    +0.000 C 
BRANCH   9  11
ATOM     10  C   UNL     1       3.801   2.795  17.378  0.00  0.00    +0.000 C 
ATOM     11  C   UNL     1       2.816   1.807  17.981  0.00  0.00    +0.000 C 
ENDBRANCH   9  11
ENDBRANCH   8   9
ENDBRANCH   5   8
ENDBRANCH   4   5
ENDBRANCH   3   4
ENDBRANCH   1   3
BRANCH   1  12
ATOM     12  O   UNL     1       2.679   7.666  19.786  0.00  0.00    +0.000 OA
BRANCH  12  13
ATOM     13  C   UNL     1       1.603   8.473  19.544  0.00  0.00    +0.000 A 
ATOM     14  C   UNL     1       0.804   8.766  20.654  0.00  0.00    +0.000 A 
ATOM     15  C   UNL     1      -0.247   9.684  20.551  0.00  0.00    +0.000 A 
ATOM     16  C   UNL     1      -0.496  10.314  19.335  0.00  0.00    +0.000 A 
ATOM     17  C   UNL     1       0.283  10.007  18.223  0.00  0.00    +0.000 A 
ATOM     18  C   UNL     1       1.334   9.084  18.326  0.00  0.00    +0.000 A 
ENDBRANCH  12  13
ENDBRANCH   1  12
BRANCH   1  19
ATOM     19  O   UNL     1       4.033   6.814  17.988  0.00  0.00    +0.000 OA
BRANCH  19  20
ATOM     20  C   UNL     1       5.052   6.084  17.439  0.00  0.00    +0.000 A 
ATOM     21  C   UNL     1       5.042   5.985  16.045  0.00  0.00    +0.000 A 
ATOM     22  C   UNL     1       6.087   5.344  15.378  0.00  0.00    +0.000 A 
ATOM     23  C   UNL     1       7.150   4.811  16.104  0.00  0.00    +0.000 A 
ATOM     24  C   UNL     1       7.156   4.901  17.495  0.00  0.00    +0.000 A 
ATOM     25  C   UNL     1       6.103   5.532  18.166  0.00  0.00    +0.000 A 
ENDBRANCH  19  20
ENDBRANCH   1  19
TORSDOF 11
ENDMDL
