MODEL 1
REMARK VINA RESULT:      -9.4      0.000      0.000
REMARK  Name = 
REMARK  6 active torsions:
REMARK  status: ('A' for Active; 'I' for Inactive)
REMARK    1  A    between atoms: C_8  and  C_9
REMARK    2  A    between atoms: C_9  and  C_10
REMARK    3  A    between atoms: C_12  and  C_13
REMARK    4  A    between atoms: C_16  and  C_17
REMARK    5  A    between atoms: C_17  and  N_18
REMARK    6  A    between atoms: C_20  and  C_21
REMARK                            x       y       z     vdW  Elec       q    Type
REMARK                         _______ _______ _______ _____ _____    ______ ____
ROOT
ATOM      1  C   UNL     1       2.055   7.731  19.257  0.00  0.00    +0.000 A 
ATOM      2  C   UNL     1       1.985   8.623  18.180  0.00  0.00    +0.000 A 
ATOM      3  C   UNL     1       1.445   9.900  18.352  0.00  0.00    +0.000 A 
ATOM      4  C   UNL     1       0.976  10.312  19.608  0.00  0.00    +0.000 A 
ATOM      5  C   UNL     1       1.026   9.410  20.678  0.00  0.00    +0.000 A 
ATOM      6  C   UNL     1       1.564   8.132  20.506  0.00  0.00    +0.000 A 
ENDROOT
BRANCH   1   9
ATOM      7  C   UNL     1       3.718   4.853  18.179  0.00  0.00    +0.000 A 
ATOM      8  N   UNL     1       3.278   6.057  17.900  0.00  0.00    +0.000 NA
ATOM      9  C   UNL     1       2.655   6.421  19.076  0.00  0.00    +0.000 A 
ATOM     10  N   UNL     1       2.686   5.473  20.027  0.00  0.00    +0.000 NA
ATOM     11  O   UNL     1       3.391   4.432  19.433  0.00  0.00    +0.000 OA
BRANCH   7  12
ATOM     12  C   UNL     1       4.520   3.925  17.356  0.00  0.00    +0.000 C 
BRANCH  12  20
ATOM     13  N   UNL     1       7.727   5.490  14.412  0.00  0.00    +0.000 NA
ATOM     14  C   UNL     1       6.851   4.828  15.082  0.00  0.00    +0.000 C 
ATOM     15  N   UNL     1       6.357   3.665  14.605  0.00  0.00    +0.000 N 
ATOM     16  N   UNL     1       6.337   5.237  16.283  0.00  0.00    +0.000 N 
ATOM     17  C   UNL     1       6.799   6.500  16.877  0.00  0.00    +0.000 C 
ATOM     18  C   UNL     1       7.368   6.094  18.224  0.00  0.00    +0.000 C 
ATOM     19  C   UNL     1       6.403   5.017  18.672  0.00  0.00    +0.000 C 
ATOM     20  C   UNL     1       6.010   4.283  17.373  0.00  0.00    +0.000 C 
ATOM     21  H   UNL     1       7.977   4.979  13.566  0.00  0.00    +0.000 HD
ATOM     22  H   UNL     1       6.571   3.489  13.633  0.00  0.00    +0.000 HD
ATOM     23  H   UNL     1       5.362   3.580  14.752  0.00  0.00    +0.000 HD
ENDBRANCH  12  20
ENDBRANCH   7  12
ENDBRANCH   1   9
BRANCH   4  24
ATOM     24  C   UNL     1       0.439  11.707  19.800  0.00  0.00    +0.000 C 
BRANCH  24  25
ATOM     25  N   UNL     1      -0.441  11.826  20.947  0.00  0.00    +0.000 N 
ATOM     26  C   UNL     1      -1.803  11.873  20.959  0.00  0.00    +0.000 A 
ATOM     27  C   UNL     1      -2.116  12.235  22.250  0.00  0.00    +0.000 A 
ATOM     28  N   UNL     1      -0.956  12.374  22.969  0.00  0.00    +0.000 NA
ATOM     29  N   UNL     1       0.066  12.128  22.160  0.00  0.00    +0.000 NA
BRANCH  27  30
ATOM     30  C   UNL     1      -3.454  12.460  22.766  0.00  0.00    +0.000 A 
ATOM     31  C   UNL     1      -4.474  12.902  21.930  0.00  0.00    +0.000 A 
ATOM     32  C   UNL     1      -5.742  13.103  22.472  0.00  0.00    +0.000 A 
ATOM     33  C   UNL     1      -5.951  12.851  23.821  0.00  0.00    +0.000 A 
ATOM     34  C   UNL     1      -4.888  12.402  24.581  0.00  0.00    +0.000 A 
ATOM     35  N   UNL     1      -3.648  12.200  24.089  0.00  0.00    +0.000 NA
ENDBRANCH  27  30
ENDBRANCH  24  25
ENDBRANCH   4  24
TORSDOF 6
ENDMDL
MODEL 2
REMARK VINA RESULT:      -9.3      2.191      2.814
REMARK  Name = 
REMARK  6 active torsions:
REMARK  status: ('A' for Active; 'I' for Inactive)
REMARK    1  A    between atoms: C_8  and  C_9
REMARK    2  A    between atoms: C_9  and  C_10
REMARK    3  A    between atoms: C_12  and  C_13
REMARK    4  A    between atoms: C_16  and  C_17
REMARK    5  A    between atoms: C_17  and  N_18
REMARK    6  A    between atoms: C_20  and  C_21
REMARK                            x       y       z     vdW  Elec       q    Type
REMARK                         _______ _______ _______ _____ _____    ______ ____
ROOT
ATOM      1  C   UNL     1       2.199   7.836  19.024  0.00  0.00    +0.000 A 
ATOM      2  C   UNL     1       1.457   8.266  20.130  0.00  0.00    +0.000 A 
ATOM      3  C   UNL     1       0.838   9.518  20.125  0.00  0.00    +0.000 A 
ATOM      4  C   UNL     1       0.941  10.359  19.007  0.00  0.00    +0.000 A 
ATOM      5  C   UNL     1       1.702   9.936  17.911  0.00  0.00    +0.000 A 
ATOM      6  C   UNL     1       2.324   8.685  17.916  0.00  0.00    +0.000 A 
ENDROOT
BRANCH   1   9
ATOM      7  C   UNL     1       3.939   4.874  18.384  0.00  0.00    +0.000 A 
ATOM      8  N   UNL     1       3.538   6.047  17.954  0.00  0.00    +0.000 NA
ATOM      9  C   UNL     1       2.804   6.516  19.024  0.00  0.00    +0.000 A 
ATOM     10  N   UNL     1       2.732   5.658  20.056  0.00  0.00    +0.000 NA
ATOM     11  O   UNL     1       3.485   4.568  19.632  0.00  0.00    +0.000 OA
BRANCH   7  12
ATOM     12  C   UNL     1       4.812   3.876  17.732  0.00  0.00    +0.000 C 
BRANCH  12  20
ATOM     13  N   UNL     1       7.625   5.498  14.438  0.00  0.00    +0.000 NA
ATOM     14  C   UNL     1       6.870   4.812  15.221  0.00  0.00    +0.000 C 
ATOM     15  N   UNL     1       6.461   3.574  14.869  0.00  0.00    +0.000 N 
ATOM     16  N   UNL     1       6.407   5.264  16.427  0.00  0.00    +0.000 N 
ATOM     17  C   UNL     1       6.782   6.608  16.890  0.00  0.00    +0.000 C 
ATOM     18  C   UNL     1       7.485   6.364  18.213  0.00  0.00    +0.000 C 
ATOM     19  C   UNL     1       6.668   5.239  18.813  0.00  0.00    +0.000 C 
ATOM     20  C   UNL     1       6.256   4.372  17.605  0.00  0.00    +0.000 C 
ATOM     21  H   UNL     1       7.861   4.948  13.612  0.00  0.00    +0.000 HD
ATOM     22  H   UNL     1       6.619   3.343  13.898  0.00  0.00    +0.000 HD
ATOM     23  H   UNL     1       5.492   3.407  15.101  0.00  0.00    +0.000 HD
ENDBRANCH  12  20
ENDBRANCH   7  12
ENDBRANCH   1   9
BRANCH   4  24
ATOM     24  C   UNL     1       0.231  11.688  18.987  0.00  0.00    +0.000 C 
BRANCH  24  25
ATOM     25  N   UNL     1      -1.153  11.589  18.561  0.00  0.00    +0.000 N 
ATOM     26  C   UNL     1      -2.250  12.154  19.137  0.00  0.00    +0.000 A 
ATOM     27  C   UNL     1      -3.312  11.552  18.501  0.00  0.00    +0.000 A 
ATOM     28  N   UNL     1      -2.832  10.671  17.564  0.00  0.00    +0.000 NA
ATOM     29  N   UNL     1      -1.506  10.697  17.613  0.00  0.00    +0.000 NA
BRANCH  27  30
ATOM     30  C   UNL     1      -4.716  11.785  18.787  0.00  0.00    +0.000 A 
ATOM     31  C   UNL     1      -5.100  12.589  19.855  0.00  0.00    +0.000 A 
ATOM     32  C   UNL     1      -6.459  12.785  20.090  0.00  0.00    +0.000 A 
ATOM     33  C   UNL     1      -7.386  12.181  19.252  0.00  0.00    +0.000 A 
ATOM     34  C   UNL     1      -6.923  11.407  18.205  0.00  0.00    +0.000 A 
ATOM     35  N   UNL     1      -5.615  11.194  17.952  0.00  0.00    +0.000 NA
ENDBRANCH  27  30
ENDBRANCH  24  25
ENDBRANCH   4  24
TORSDOF 6
ENDMDL
MODEL 3
REMARK VINA RESULT:      -9.3      0.513      1.210
REMARK  Name = 
REMARK  6 active torsions:
REMARK  status: ('A' for Active; 'I' for Inactive)
REMARK    1  A    between atoms: C_8  and  C_9
REMARK    2  A    between atoms: C_9  and  C_10
REMARK    3  A    between atoms: C_12  and  C_13
REMARK    4  A    between atoms: C_16  and  C_17
REMARK    5  A    between atoms: C_17  and  N_18
REMARK    6  A    between atoms: C_20  and  C_21
REMARK                            x       y       z     vdW  Elec       q    Type
REMARK                         _______ _______ _______ _____ _____    ______ ____
ROOT
ATOM      1  C   UNL     1       2.163   7.792  19.123  0.00  0.00    +0.000 A 
ATOM      2  C   UNL     1       1.600   8.143  20.355  0.00  0.00    +0.000 A 
ATOM      3  C   UNL     1       1.059   9.416  20.550  0.00  0.00    +0.000 A 
ATOM      4  C   UNL     1       1.062  10.358  19.511  0.00  0.00    +0.000 A 
ATOM      5  C   UNL     1       1.646  10.013  18.286  0.00  0.00    +0.000 A 
ATOM      6  C   UNL     1       2.189   8.740  18.092  0.00  0.00    +0.000 A 
ENDROOT
BRANCH   1   9
ATOM      7  C   UNL     1       3.692   4.853  18.012  0.00  0.00    +0.000 A 
ATOM      8  N   UNL     1       3.348   6.094  17.762  0.00  0.00    +0.000 NA
ATOM      9  C   UNL     1       2.686   6.452  18.918  0.00  0.00    +0.000 A 
ATOM     10  N   UNL     1       2.601   5.467  19.828  0.00  0.00    +0.000 NA
ATOM     11  O   UNL     1       3.269   4.406  19.227  0.00  0.00    +0.000 OA
BRANCH   7  12
ATOM     12  C   UNL     1       4.477   3.906  17.193  0.00  0.00    +0.000 C 
BRANCH  12  20
ATOM     13  N   UNL     1       7.744   5.468  14.315  0.00  0.00    +0.000 NA
ATOM     14  C   UNL     1       6.846   4.812  14.959  0.00  0.00    +0.000 C 
ATOM     15  N   UNL     1       6.322   3.678  14.445  0.00  0.00    +0.000 N 
ATOM     16  N   UNL     1       6.336   5.198  16.169  0.00  0.00    +0.000 N 
ATOM     17  C   UNL     1       6.830   6.430  16.804  0.00  0.00    +0.000 C 
ATOM     18  C   UNL     1       7.379   5.967  18.141  0.00  0.00    +0.000 C 
ATOM     19  C   UNL     1       6.382   4.904  18.552  0.00  0.00    +0.000 C 
ATOM     20  C   UNL     1       5.976   4.221  17.229  0.00  0.00    +0.000 C 
ATOM     21  H   UNL     1       7.984   4.976  13.454  0.00  0.00    +0.000 HD
ATOM     22  H   UNL     1       6.536   3.525  13.470  0.00  0.00    +0.000 HD
ATOM     23  H   UNL     1       5.324   3.616  14.585  0.00  0.00    +0.000 HD
ENDBRANCH  12  20
ENDBRANCH   7  12
ENDBRANCH   1   9
BRANCH   4  24
ATOM     24  C   UNL     1       0.433  11.713  19.711  0.00  0.00    +0.000 C 
BRANCH  24  25
ATOM     25  N   UNL     1      -0.440  11.771  20.868  0.00  0.00    +0.000 N 
ATOM     26  C   UNL     1      -1.795  11.916  20.890  0.00  0.00    +0.000 A 
ATOM     27  C   UNL     1      -2.086  12.157  22.214  0.00  0.00    +0.000 A 
ATOM     28  N   UNL     1      -0.921  12.131  22.940  0.00  0.00    +0.000 NA
ATOM     29  N   UNL     1       0.083  11.900  22.105  0.00  0.00    +0.000 NA
BRANCH  27  30
ATOM     30  C   UNL     1      -3.405  12.422  22.758  0.00  0.00    +0.000 A 
ATOM     31  C   UNL     1      -3.636  12.360  24.128  0.00  0.00    +0.000 A 
ATOM     32  C   UNL     1      -4.919  12.624  24.602  0.00  0.00    +0.000 A 
ATOM     33  C   UNL     1      -5.923  12.946  23.699  0.00  0.00    +0.000 A 
ATOM     34  C   UNL     1      -5.609  12.999  22.355  0.00  0.00    +0.000 A 
ATOM     35  N   UNL     1      -4.379  12.746  21.862  0.00  0.00    +0.000 NA
ENDBRANCH  27  30
ENDBRANCH  24  25
ENDBRANCH   4  24
TORSDOF 6
ENDMDL
MODEL 4
REMARK VINA RESULT:      -9.2      1.358      1.659
REMARK  Name = 
REMARK  6 active torsions:
REMARK  status: ('A' for Active; 'I' for Inactive)
REMARK    1  A    between atoms: C_8  and  C_9
REMARK    2  A    between atoms: C_9  and  C_10
REMARK    3  A    between atoms: C_12  and  C_13
REMARK    4  A    between atoms: C_16  and  C_17
REMARK    5  A    between atoms: C_17  and  N_18
REMARK    6  A    between atoms: C_20  and  C_21
REMARK                            x       y       z     vdW  Elec       q    Type
REMARK                         _______ _______ _______ _____ _____    ______ ____
ROOT
ATOM      1  C   UNL     1       2.089   7.829  19.034  0.00  0.00    +0.000 A 
ATOM      2  C   UNL     1       2.106   8.627  17.884  0.00  0.00    +0.000 A 
ATOM      3  C   UNL     1       1.525   9.897  17.895  0.00  0.00    +0.000 A 
ATOM      4  C   UNL     1       0.925  10.396  19.060  0.00  0.00    +0.000 A 
ATOM      5  C   UNL     1       0.889   9.588  20.203  0.00  0.00    +0.000 A 
ATOM      6  C   UNL     1       1.469   8.316  20.192  0.00  0.00    +0.000 A 
ENDROOT
BRANCH   1   9
ATOM      7  C   UNL     1       3.859   4.897  18.341  0.00  0.00    +0.000 A 
ATOM      8  N   UNL     1       3.387   6.042  17.910  0.00  0.00    +0.000 NA
ATOM      9  C   UNL     1       2.733   6.527  19.024  0.00  0.00    +0.000 A 
ATOM     10  N   UNL     1       2.776   5.704  20.085  0.00  0.00    +0.000 NA
ATOM     11  O   UNL     1       3.524   4.622  19.633  0.00  0.00    +0.000 OA
BRANCH   7  12
ATOM     12  C   UNL     1       4.703   3.902  17.648  0.00  0.00    +0.000 C 
BRANCH  12  20
ATOM     13  N   UNL     1       7.644   5.463  14.437  0.00  0.00    +0.000 NA
ATOM     14  C   UNL     1       6.849   4.794  15.195  0.00  0.00    +0.000 C 
ATOM     15  N   UNL     1       6.408   3.574  14.821  0.00  0.00    +0.000 N 
ATOM     16  N   UNL     1       6.373   5.249  16.395  0.00  0.00    +0.000 N 
ATOM     17  C   UNL     1       6.781   6.576  16.881  0.00  0.00    +0.000 C 
ATOM     18  C   UNL     1       7.444   6.296  18.217  0.00  0.00    +0.000 C 
ATOM     19  C   UNL     1       6.577   5.193  18.786  0.00  0.00    +0.000 C 
ATOM     20  C   UNL     1       6.166   4.352  17.560  0.00  0.00    +0.000 C 
ATOM     21  H   UNL     1       7.882   4.914  13.612  0.00  0.00    +0.000 HD
ATOM     22  H   UNL     1       6.582   3.347  13.852  0.00  0.00    +0.000 HD
ATOM     23  H   UNL     1       5.429   3.437  15.029  0.00  0.00    +0.000 HD
ENDBRANCH  12  20
ENDBRANCH   7  12
ENDBRANCH   1   9
BRANCH   4  24
ATOM     24  C   UNL     1       0.342  11.786  19.080  0.00  0.00    +0.000 C 
BRANCH  24  25
ATOM     25  N   UNL     1       0.222  12.334  20.418  0.00  0.00    +0.000 N 
ATOM     26  C   UNL     1      -0.914  12.533  21.145  0.00  0.00    +0.000 A 
ATOM     27  C   UNL     1      -0.499  13.291  22.217  0.00  0.00    +0.000 A 
ATOM     28  N   UNL     1       0.852  13.506  22.116  0.00  0.00    +0.000 NA
ATOM     29  N   UNL     1       1.285  12.920  21.007  0.00  0.00    +0.000 NA
BRANCH  27  30
ATOM     30  C   UNL     1      -1.353  13.804  23.272  0.00  0.00    +0.000 A 
ATOM     31  C   UNL     1      -2.655  13.341  23.423  0.00  0.00    +0.000 A 
ATOM     32  C   UNL     1      -3.436  13.864  24.452  0.00  0.00    +0.000 A 
ATOM     33  C   UNL     1      -2.892  14.822  25.297  0.00  0.00    +0.000 A 
ATOM     34  C   UNL     1      -1.586  15.220  25.087  0.00  0.00    +0.000 A 
ATOM     35  N   UNL     1      -0.804  14.738  24.099  0.00  0.00    +0.000 NA
ENDBRANCH  27  30
ENDBRANCH  24  25
ENDBRANCH   4  24
TORSDOF 6
ENDMDL
MODEL 5
REMARK VINA RESULT:      -9.1      1.081      1.401
REMARK  Name = 
REMARK  6 active torsions:
REMARK  status: ('A' for Active; 'I' for Inactive)
REMARK    1  A    between atoms: C_8  and  C_9
REMARK    2  A    between atoms: C_9  and  C_10
REMARK    3  A    between atoms: C_12  and  C_13
REMARK    4  A    between atoms: C_16  and  C_17
REMARK    5  A    between atoms: C_17  and  N_18
REMARK    6  A    between atoms: C_20  and  C_21
REMARK                            x       y       z     vdW  Elec       q    Type
REMARK                         _______ _______ _______ _____ _____    ______ ____
ROOT
ATOM      1  C   UNL     1       2.012   8.182  19.064  0.00  0.00    +0.000 A 
ATOM      2  C   UNL     1       2.171   9.044  17.973  0.00  0.00    +0.000 A 
ATOM      3  C   UNL     1       1.713  10.362  18.039  0.00  0.00    +0.000 A 
ATOM      4  C   UNL     1       1.098  10.844  19.203  0.00  0.00    +0.000 A 
ATOM      5  C   UNL     1       0.919   9.974  20.285  0.00  0.00    +0.000 A 
ATOM      6  C   UNL     1       1.375   8.654  20.219  0.00  0.00    +0.000 A 
ENDROOT
BRANCH   1   9
ATOM      7  C   UNL     1       3.525   5.135  18.262  0.00  0.00    +0.000 A 
ATOM      8  N   UNL     1       3.185   6.345  17.885  0.00  0.00    +0.000 NA
ATOM      9  C   UNL     1       2.528   6.825  18.999  0.00  0.00    +0.000 A 
ATOM     10  N   UNL     1       2.443   5.941  20.007  0.00  0.00    +0.000 NA
ATOM     11  O   UNL     1       3.104   4.820  19.518  0.00  0.00    +0.000 OA
BRANCH   7  12
ATOM     12  C   UNL     1       4.302   4.105  17.544  0.00  0.00    +0.000 C 
BRANCH  12  20
ATOM     13  N   UNL     1       7.722   5.368  14.696  0.00  0.00    +0.000 NA
ATOM     14  C   UNL     1       6.778   4.785  15.346  0.00  0.00    +0.000 C 
ATOM     15  N   UNL     1       6.231   3.640  14.885  0.00  0.00    +0.000 N 
ATOM     16  N   UNL     1       6.242   5.264  16.511  0.00  0.00    +0.000 N 
ATOM     17  C   UNL     1       6.759   6.515  17.086  0.00  0.00    +0.000 C 
ATOM     18  C   UNL     1       7.244   6.119  18.468  0.00  0.00    +0.000 C 
ATOM     19  C   UNL     1       6.195   5.120  18.907  0.00  0.00    +0.000 C 
ATOM     20  C   UNL     1       5.810   4.369  17.615  0.00  0.00    +0.000 C 
ATOM     21  H   UNL     1       7.973   4.815  13.877  0.00  0.00    +0.000 HD
ATOM     22  H   UNL     1       6.473   3.418  13.929  0.00  0.00    +0.000 HD
ATOM     23  H   UNL     1       5.227   3.621  14.991  0.00  0.00    +0.000 HD
ENDBRANCH  12  20
ENDBRANCH   7  12
ENDBRANCH   1   9
BRANCH   4  24
ATOM     24  C   UNL     1       0.649  12.281  19.288  0.00  0.00    +0.000 C 
BRANCH  24  25
ATOM     25  N   UNL     1      -0.729  12.424  19.718  0.00  0.00    +0.000 N 
ATOM     26  C   UNL     1      -1.193  12.712  20.966  0.00  0.00    +0.000 A 
ATOM     27  C   UNL     1      -2.548  12.486  20.882  0.00  0.00    +0.000 A 
ATOM     28  N   UNL     1      -2.858  12.094  19.604  0.00  0.00    +0.000 NA
ATOM     29  N   UNL     1      -1.735  12.053  18.899  0.00  0.00    +0.000 NA
BRANCH  27  30
ATOM     30  C   UNL     1      -3.498  12.614  21.972  0.00  0.00    +0.000 A 
ATOM     31  C   UNL     1      -3.090  12.461  23.293  0.00  0.00    +0.000 A 
ATOM     32  C   UNL     1      -4.039  12.595  24.305  0.00  0.00    +0.000 A 
ATOM     33  C   UNL     1      -5.355  12.880  23.968  0.00  0.00    +0.000 A 
ATOM     34  C   UNL     1      -5.676  13.029  22.633  0.00  0.00    +0.000 A 
ATOM     35  N   UNL     1      -4.784  12.903  21.629  0.00  0.00    +0.000 NA
ENDBRANCH  27  30
ENDBRANCH  24  25
ENDBRANCH   4  24
TORSDOF 6
ENDMDL
MODEL 6
REMARK VINA RESULT:      -9.1      0.866      1.035
REMARK  Name = 
REMARK  6 active torsions:
REMARK  status: ('A' for Active; 'I' for Inactive)
REMARK    1  A    between atoms: C_8  and  C_9
REMARK    2  A    between atoms: C_9  and  C_10
REMARK    3  A    between atoms: C_12  and  C_13
REMARK    4  A    between atoms: C_16  and  C_17
REMARK    5  A    between atoms: C_17  and  N_18
REMARK    6  A    between atoms: C_20  and  C_21
REMARK                            x       y       z     vdW  Elec       q    Type
REMARK                         _______ _______ _______ _____ _____    ______ ____
ROOT
ATOM      1  C   UNL     1       2.146   7.789  19.044  0.00  0.00    +0.000 A 
ATOM      2  C   UNL     1       2.200   8.608  17.910  0.00  0.00    +0.000 A 
ATOM      3  C   UNL     1       1.638   9.886  17.932  0.00  0.00    +0.000 A 
ATOM      4  C   UNL     1       1.022  10.374  19.093  0.00  0.00    +0.000 A 
ATOM      5  C   UNL     1       0.949   9.545  20.220  0.00  0.00    +0.000 A 
ATOM      6  C   UNL     1       1.509   8.265  20.197  0.00  0.00    +0.000 A 
ENDROOT
BRANCH   1   9
ATOM      7  C   UNL     1       3.894   4.847  18.338  0.00  0.00    +0.000 A 
ATOM      8  N   UNL     1       3.457   6.011  17.922  0.00  0.00    +0.000 NA
ATOM      9  C   UNL     1       2.769   6.477  19.023  0.00  0.00    +0.000 A 
ATOM     10  N   UNL     1       2.759   5.626  20.062  0.00  0.00    +0.000 NA
ATOM     11  O   UNL     1       3.506   4.544  19.609  0.00  0.00    +0.000 OA
BRANCH   7  12
ATOM     12  C   UNL     1       4.749   3.857  17.652  0.00  0.00    +0.000 C 
BRANCH  12  20
ATOM     13  N   UNL     1       7.627   5.469  14.408  0.00  0.00    +0.000 NA
ATOM     14  C   UNL     1       6.851   4.787  15.174  0.00  0.00    +0.000 C 
ATOM     15  N   UNL     1       6.423   3.561  14.803  0.00  0.00    +0.000 N 
ATOM     16  N   UNL     1       6.383   5.232  16.381  0.00  0.00    +0.000 N 
ATOM     17  C   UNL     1       6.778   6.562  16.866  0.00  0.00    +0.000 C 
ATOM     18  C   UNL     1       7.462   6.289  18.193  0.00  0.00    +0.000 C 
ATOM     19  C   UNL     1       6.618   5.172  18.769  0.00  0.00    +0.000 C 
ATOM     20  C   UNL     1       6.203   4.328  17.546  0.00  0.00    +0.000 C 
ATOM     21  H   UNL     1       7.862   4.925  13.579  0.00  0.00    +0.000 HD
ATOM     22  H   UNL     1       6.588   3.339  13.831  0.00  0.00    +0.000 HD
ATOM     23  H   UNL     1       5.449   3.409  15.022  0.00  0.00    +0.000 HD
ENDBRANCH  12  20
ENDBRANCH   7  12
ENDBRANCH   1   9
BRANCH   4  24
ATOM     24  C   UNL     1       0.461  11.773  19.128  0.00  0.00    +0.000 C 
BRANCH  24  25
ATOM     25  N   UNL     1      -0.139  12.115  20.404  0.00  0.00    +0.000 N 
ATOM     26  C   UNL     1      -1.462  12.157  20.724  0.00  0.00    +0.000 A 
ATOM     27  C   UNL     1      -1.491  12.768  21.958  0.00  0.00    +0.000 A 
ATOM     28  N   UNL     1      -0.206  13.054  22.345  0.00  0.00    +0.000 NA
ATOM     29  N   UNL     1       0.616  12.655  21.383  0.00  0.00    +0.000 NA
BRANCH  27  30
ATOM     30  C   UNL     1      -2.685  13.085  22.720  0.00  0.00    +0.000 A 
ATOM     31  C   UNL     1      -3.195  12.187  23.650  0.00  0.00    +0.000 A 
ATOM     32  C   UNL     1      -4.343  12.537  24.358  0.00  0.00    +0.000 A 
ATOM     33  C   UNL     1      -4.938  13.768  24.119  0.00  0.00    +0.000 A 
ATOM     34  C   UNL     1      -4.362  14.610  23.187  0.00  0.00    +0.000 A 
ATOM     35  N   UNL     1      -3.253  14.301  22.482  0.00  0.00    +0.000 NA
ENDBRANCH  27  30
ENDBRANCH  24  25
ENDBRANCH   4  24
TORSDOF 6
ENDMDL
MODEL 7
REMARK VINA RESULT:      -9.0      1.843      2.306
REMARK  Name = 
REMARK  6 active torsions:
REMARK  status: ('A' for Active; 'I' for Inactive)
REMARK    1  A    between atoms: C_8  and  C_9
REMARK    2  A    between atoms: C_9  and  C_10
REMARK    3  A    between atoms: C_12  and  C_13
REMARK    4  A    between atoms: C_16  and  C_17
REMARK    5  A    between atoms: C_17  and  N_18
REMARK    6  A    between atoms: C_20  and  C_21
REMARK                            x       y       z     vdW  Elec       q    Type
REMARK                         _______ _______ _______ _____ _____    ______ ____
ROOT
ATOM      1  C   UNL     1       2.017   7.878  19.091  0.00  0.00    +0.000 A 
ATOM      2  C   UNL     1       1.995   8.685  17.948  0.00  0.00    +0.000 A 
ATOM      3  C   UNL     1       1.460   9.975  18.002  0.00  0.00    +0.000 A 
ATOM      4  C   UNL     1       0.948  10.484  19.204  0.00  0.00    +0.000 A 
ATOM      5  C   UNL     1       0.951   9.667  20.341  0.00  0.00    +0.000 A 
ATOM      6  C   UNL     1       1.483   8.376  20.287  0.00  0.00    +0.000 A 
ENDROOT
BRANCH   1   9
ATOM      7  C   UNL     1       3.706   4.922  18.305  0.00  0.00    +0.000 A 
ATOM      8  N   UNL     1       3.296   6.107  17.922  0.00  0.00    +0.000 NA
ATOM      9  C   UNL     1       2.612   6.554  19.033  0.00  0.00    +0.000 A 
ATOM     10  N   UNL     1       2.578   5.672  20.046  0.00  0.00    +0.000 NA
ATOM     11  O   UNL     1       3.304   4.589  19.564  0.00  0.00    +0.000 OA
BRANCH   7  12
ATOM     12  C   UNL     1       4.543   3.935  17.593  0.00  0.00    +0.000 C 
BRANCH  12  20
ATOM     13  N   UNL     1       7.678   5.431  14.538  0.00  0.00    +0.000 NA
ATOM     14  C   UNL     1       6.828   4.781  15.251  0.00  0.00    +0.000 C 
ATOM     15  N   UNL     1       6.368   3.578  14.845  0.00  0.00    +0.000 N 
ATOM     16  N   UNL     1       6.310   5.240  16.432  0.00  0.00    +0.000 N 
ATOM     17  C   UNL     1       6.735   6.549  16.950  0.00  0.00    +0.000 C 
ATOM     18  C   UNL     1       7.326   6.238  18.313  0.00  0.00    +0.000 C 
ATOM     19  C   UNL     1       6.400   5.158  18.829  0.00  0.00    +0.000 C 
ATOM     20  C   UNL     1       6.021   4.339  17.577  0.00  0.00    +0.000 C 
ATOM     21  H   UNL     1       7.937   4.881  13.719  0.00  0.00    +0.000 HD
ATOM     22  H   UNL     1       6.580   3.354  13.883  0.00  0.00    +0.000 HD
ATOM     23  H   UNL     1       5.377   3.469  15.006  0.00  0.00    +0.000 HD
ENDBRANCH  12  20
ENDBRANCH   7  12
ENDBRANCH   1   9
BRANCH   4  24
ATOM     24  C   UNL     1       0.417  11.894  19.269  0.00  0.00    +0.000 C 
BRANCH  24  25
ATOM     25  N   UNL     1      -0.978  11.959  19.660  0.00  0.00    +0.000 N 
ATOM     26  C   UNL     1      -2.077  11.733  18.887  0.00  0.00    +0.000 A 
ATOM     27  C   UNL     1      -3.129  12.164  19.663  0.00  0.00    +0.000 A 
ATOM     28  N   UNL     1      -2.644  12.611  20.866  0.00  0.00    +0.000 NA
ATOM     29  N   UNL     1      -1.323  12.487  20.852  0.00  0.00    +0.000 NA
BRANCH  27  30
ATOM     30  C   UNL     1      -4.527  12.171  19.269  0.00  0.00    +0.000 A 
ATOM     31  C   UNL     1      -5.443  12.995  19.915  0.00  0.00    +0.000 A 
ATOM     32  C   UNL     1      -6.773  12.968  19.500  0.00  0.00    +0.000 A 
ATOM     33  C   UNL     1      -7.142  12.130  18.457  0.00  0.00    +0.000 A 
ATOM     34  C   UNL     1      -6.169  11.352  17.860  0.00  0.00    +0.000 A 
ATOM     35  N   UNL     1      -4.873  11.351  18.239  0.00  0.00    +0.000 NA
ENDBRANCH  27  30
ENDBRANCH  24  25
ENDBRANCH   4  24
TORSDOF 6
ENDMDL
MODEL 8
REMARK VINA RESULT:      -9.0      2.734      4.494
REMARK  Name = 
REMARK  6 active torsions:
REMARK  status: ('A' for Active; 'I' for Inactive)
REMARK    1  A    between atoms: C_8  and  C_9
REMARK    2  A    between atoms: C_9  and  C_10
REMARK    3  A    between atoms: C_12  and  C_13
REMARK    4  A    between atoms: C_16  and  C_17
REMARK    5  A    between atoms: C_17  and  N_18
REMARK    6  A    between atoms: C_20  and  C_21
REMARK                            x       y       z     vdW  Elec       q    Type
REMARK                         _______ _______ _______ _____ _____    ______ ____
ROOT
ATOM      1  C   UNL     1       2.099   7.481  19.280  0.00  0.00    +0.000 A 
ATOM      2  C   UNL     1       1.623   7.548  20.594  0.00  0.00    +0.000 A 
ATOM      3  C   UNL     1       0.887   8.655  21.025  0.00  0.00    +0.000 A 
ATOM      4  C   UNL     1       0.606   9.710  20.144  0.00  0.00    +0.000 A 
ATOM      5  C   UNL     1       1.102   9.651  18.836  0.00  0.00    +0.000 A 
ATOM      6  C   UNL     1       1.839   8.544  18.406  0.00  0.00    +0.000 A 
ENDROOT
BRANCH   1   9
ATOM      7  C   UNL     1       4.349   4.872  18.692  0.00  0.00    +0.000 A 
ATOM      8  N   UNL     1       4.095   6.014  19.287  0.00  0.00    +0.000 NA
ATOM      9  C   UNL     1       2.827   6.307  18.831  0.00  0.00    +0.000 A 
ATOM     10  N   UNL     1       2.332   5.401  17.971  0.00  0.00    +0.000 NA
ATOM     11  O   UNL     1       3.342   4.449  17.878  0.00  0.00    +0.000 OA
BRANCH   7  12
ATOM     12  C   UNL     1       5.531   3.993  18.798  0.00  0.00    +0.000 C 
BRANCH  12  20
ATOM     13  N   UNL     1       6.936   5.325  14.597  0.00  0.00    +0.000 NA
ATOM     14  C   UNL     1       6.569   4.705  15.662  0.00  0.00    +0.000 C 
ATOM     15  N   UNL     1       6.278   3.386  15.623  0.00  0.00    +0.000 N 
ATOM     16  N   UNL     1       6.420   5.303  16.884  0.00  0.00    +0.000 N 
ATOM     17  C   UNL     1       6.696   6.741  17.025  0.00  0.00    +0.000 C 
ATOM     18  C   UNL     1       7.791   6.810  18.074  0.00  0.00    +0.000 C 
ATOM     19  C   UNL     1       7.381   5.721  19.044  0.00  0.00    +0.000 C 
ATOM     20  C   UNL     1       6.772   4.618  18.153  0.00  0.00    +0.000 C 
ATOM     21  H   UNL     1       7.001   4.671  13.818  0.00  0.00    +0.000 HD
ATOM     22  H   UNL     1       6.175   3.010  14.691  0.00  0.00    +0.000 HD
ATOM     23  H   UNL     1       5.462   3.155  16.172  0.00  0.00    +0.000 HD
ENDBRANCH  12  20
ENDBRANCH   7  12
ENDBRANCH   1   9
BRANCH   4  24
ATOM     24  C   UNL     1      -0.230  10.879  20.600  0.00  0.00    +0.000 C 
BRANCH  24  25
ATOM     25  N   UNL     1       0.460  12.150  20.486  0.00  0.00    +0.000 N 
ATOM     26  C   UNL     1       0.499  12.990  19.413  0.00  0.00    +0.000 A 
ATOM     27  C   UNL     1       1.474  13.907  19.739  0.00  0.00    +0.000 A 
ATOM     28  N   UNL     1       1.969  13.609  20.983  0.00  0.00    +0.000 NA
ATOM     29  N   UNL     1       1.346  12.527  21.431  0.00  0.00    +0.000 NA
BRANCH  27  30
ATOM     30  C   UNL     1       1.926  14.998  18.896  0.00  0.00    +0.000 A 
ATOM     31  C   UNL     1       3.055  14.858  18.095  0.00  0.00    +0.000 A 
ATOM     32  C   UNL     1       3.449  15.934  17.302  0.00  0.00    +0.000 A 
ATOM     33  C   UNL     1       2.706  17.106  17.330  0.00  0.00    +0.000 A 
ATOM     34  C   UNL     1       1.591  17.161  18.144  0.00  0.00    +0.000 A 
ATOM     35  N   UNL     1       1.183  16.140  18.926  0.00  0.00    +0.000 NA
ENDBRANCH  27  30
ENDBRANCH  24  25
ENDBRANCH   4  24
TORSDOF 6
ENDMDL
MODEL 9
REMARK VINA RESULT:      -9.0      2.899      4.990
REMARK  Name = 
REMARK  6 active torsions:
REMARK  status: ('A' for Active; 'I' for Inactive)
REMARK    1  A    between atoms: C_8  and  C_9
REMARK    2  A    between atoms: C_9  and  C_10
REMARK    3  A    between atoms: C_12  and  C_13
REMARK    4  A    between atoms: C_16  and  C_17
REMARK    5  A    between atoms: C_17  and  N_18
REMARK    6  A    between atoms: C_20  and  C_21
REMARK                            x       y       z     vdW  Elec       q    Type
REMARK                         _______ _______ _______ _____ _____    ______ ____
ROOT
ATOM      1  C   UNL     1       2.114   7.564  19.143  0.00  0.00    +0.000 A 
ATOM      2  C   UNL     1       1.695   7.989  20.409  0.00  0.00    +0.000 A 
ATOM      3  C   UNL     1       1.060   9.224  20.567  0.00  0.00    +0.000 A 
ATOM      4  C   UNL     1       0.824  10.051  19.459  0.00  0.00    +0.000 A 
ATOM      5  C   UNL     1       1.265   9.634  18.197  0.00  0.00    +0.000 A 
ATOM      6  C   UNL     1       1.901   8.400  18.039  0.00  0.00    +0.000 A 
ENDROOT
BRANCH   1   9
ATOM      7  C   UNL     1       3.812   4.691  18.107  0.00  0.00    +0.000 A 
ATOM      8  N   UNL     1       3.345   5.880  17.806  0.00  0.00    +0.000 NA
ATOM      9  C   UNL     1       2.736   6.261  18.984  0.00  0.00    +0.000 A 
ATOM     10  N   UNL     1       2.801   5.338  19.957  0.00  0.00    +0.000 NA
ATOM     11  O   UNL     1       3.515   4.296  19.376  0.00  0.00    +0.000 OA
BRANCH   7  12
ATOM     12  C   UNL     1       4.617   3.759  17.292  0.00  0.00    +0.000 C 
BRANCH  12  20
ATOM     13  N   UNL     1       7.651   5.503  14.267  0.00  0.00    +0.000 NA
ATOM     14  C   UNL     1       6.822   4.797  14.951  0.00  0.00    +0.000 C 
ATOM     15  N   UNL     1       6.338   3.637  14.458  0.00  0.00    +0.000 N 
ATOM     16  N   UNL     1       6.351   5.153  16.186  0.00  0.00    +0.000 N 
ATOM     17  C   UNL     1       6.806   6.409  16.801  0.00  0.00    +0.000 C 
ATOM     18  C   UNL     1       7.443   5.975  18.109  0.00  0.00    +0.000 C 
ATOM     19  C   UNL     1       6.528   4.858  18.562  0.00  0.00    +0.000 C 
ATOM     20  C   UNL     1       6.097   4.156  17.257  0.00  0.00    +0.000 C 
ATOM     21  H   UNL     1       7.876   5.027  13.394  0.00  0.00    +0.000 HD
ATOM     22  H   UNL     1       6.513   3.497  13.472  0.00  0.00    +0.000 HD
ATOM     23  H   UNL     1       5.352   3.520  14.644  0.00  0.00    +0.000 HD
ENDBRANCH  12  20
ENDBRANCH   7  12
ENDBRANCH   1   9
BRANCH   4  24
ATOM     24  C   UNL     1       0.096  11.360  19.628  0.00  0.00    +0.000 C 
BRANCH  24  25
ATOM     25  N   UNL     1       0.978  12.465  19.954  0.00  0.00    +0.000 N 
ATOM     26  C   UNL     1       1.843  13.119  19.129  0.00  0.00    +0.000 A 
ATOM     27  C   UNL     1       2.598  13.894  19.979  0.00  0.00    +0.000 A 
ATOM     28  N   UNL     1       2.161  13.702  21.266  0.00  0.00    +0.000 NA
ATOM     29  N   UNL     1       1.171  12.819  21.241  0.00  0.00    +0.000 NA
BRANCH  27  30
ATOM     30  C   UNL     1       3.698  14.757  19.588  0.00  0.00    +0.000 A 
ATOM     31  C   UNL     1       4.355  14.568  18.378  0.00  0.00    +0.000 A 
ATOM     32  C   UNL     1       5.404  15.423  18.046  0.00  0.00    +0.000 A 
ATOM     33  C   UNL     1       5.757  16.437  18.925  0.00  0.00    +0.000 A 
ATOM     34  C   UNL     1       5.046  16.566  20.103  0.00  0.00    +0.000 A 
ATOM     35  N   UNL     1       4.028  15.754  20.456  0.00  0.00    +0.000 NA
ENDBRANCH  27  30
ENDBRANCH  24  25
ENDBRANCH   4  24
TORSDOF 6
ENDMDL
