MODEL 1
REMARK VINA RESULT:      -7.1      0.000      0.000
REMARK  Name = 
REMARK  4 active torsions:
REMARK  status: ('A' for Active; 'I' for Inactive)
REMARK    1  A    between atoms: C_1  and  C_2
REMARK    2  A    between atoms: C_2  and  C_3
REMARK    3  A    between atoms: C_3  and  C_4
REMARK    4  A    between atoms: C_10  and  N_11
REMARK                            x       y       z     vdW  Elec       q    Type
REMARK                         _______ _______ _______ _____ _____    ______ ____
ROOT
ATOM      1  C   UNL     1       2.245   4.950  19.821  0.00  0.00    +0.000 C 
ATOM      2  C   UNL     1       1.086   3.945  20.048  0.00  0.00    +0.000 C 
ATOM      3  C   UNL     1       0.983   2.906  18.917  0.00  0.00    +0.000 C 
ATOM      4  C   UNL     1       2.198   1.998  19.155  0.00  0.00    +0.000 C 
ATOM      5  C   UNL     1       2.898   2.672  20.345  0.00  0.00    +0.000 C 
ATOM      6  C   UNL     1       1.682   3.094  21.180  0.00  0.00    +0.000 C 
ATOM      7  C   UNL     1       3.497   4.047  19.954  0.00  0.00    +0.000 C 
ENDROOT
BRANCH   7   8
ATOM      8  N   UNL     1       4.328   3.985  18.775  0.00  0.00    +0.000 N 
ATOM      9  C   UNL     1       5.568   4.518  18.720  0.00  0.00    +0.000 C 
ATOM     10  N   UNL     1       6.181   5.209  19.621  0.00  0.00    +0.000 NA
ATOM     11  C   UNL     1       7.429   5.609  18.970  0.00  0.00    +0.000 C 
ATOM     12  C   UNL     1       7.521   4.736  17.741  0.00  0.00    +0.000 C 
ATOM     13  O   UNL     1       6.197   4.262  17.546  0.00  0.00    +0.000 OA
ATOM     14  H   UNL     1       4.070   3.362  18.023  0.00  0.00    +0.000 HD
ENDBRANCH   7   8
BRANCH   1  15
ATOM     15  C   UNL     1       2.160   5.884  18.609  0.00  0.00    +0.000 C 
BRANCH  15  17
ATOM     16  C   UNL     1       2.466   8.254  17.770  0.00  0.00    +0.000 C 
ATOM     17  C   UNL     1       2.477   7.337  18.984  0.00  0.00    +0.000 C 
ENDBRANCH  15  17
ENDBRANCH   1  15
TORSDOF 3
ENDMDL
MODEL 2
REMARK VINA RESULT:      -6.7      2.804      5.738
REMARK  Name = 
REMARK  4 active torsions:
REMARK  status: ('A' for Active; 'I' for Inactive)
REMARK    1  A    between atoms: C_1  and  C_2
REMARK    2  A    between atoms: C_2  and  C_3
REMARK    3  A    between atoms: C_3  and  C_4
REMARK    4  A    between atoms: C_10  and  N_11
REMARK                            x       y       z     vdW  Elec       q    Type
REMARK                         _______ _______ _______ _____ _____    ______ ____
ROOT
ATOM      1  C   UNL     1       6.198   4.134  15.871  0.00  0.00    +0.000 C 
ATOM      2  C   UNL     1       6.986   5.378  16.356  0.00  0.00    +0.000 C 
ATOM      3  C   UNL     1       6.067   6.583  16.629  0.00  0.00    +0.000 C 
ATOM      4  C   UNL     1       5.335   6.188  17.919  0.00  0.00    +0.000 C 
ATOM      5  C   UNL     1       5.861   4.770  18.189  0.00  0.00    +0.000 C 
ATOM      6  C   UNL     1       7.333   4.939  17.787  0.00  0.00    +0.000 C 
ATOM      7  C   UNL     1       5.363   3.761  17.122  0.00  0.00    +0.000 C 
ENDROOT
BRANCH   7   8
ATOM      8  N   UNL     1       3.933   3.804  16.932  0.00  0.00    +0.000 N 
ATOM      9  C   UNL     1       3.062   3.186  17.760  0.00  0.00    +0.000 C 
ATOM     10  N   UNL     1       3.323   2.423  18.768  0.00  0.00    +0.000 NA
ATOM     11  C   UNL     1       2.006   1.958  19.207  0.00  0.00    +0.000 C 
ATOM     12  C   UNL     1       1.023   2.862  18.504  0.00  0.00    +0.000 C 
ATOM     13  O   UNL     1       1.768   3.435  17.441  0.00  0.00    +0.000 OA
ATOM     14  H   UNL     1       3.542   4.468  16.280  0.00  0.00    +0.000 HD
ENDBRANCH   7   8
BRANCH   1  15
ATOM     15  C   UNL     1       5.470   4.223  14.525  0.00  0.00    +0.000 C 
BRANCH  15  17
ATOM     16  C   UNL     1       5.723   3.212  12.217  0.00  0.00    +0.000 C 
ATOM     17  C   UNL     1       6.415   3.961  13.346  0.00  0.00    +0.000 C 
ENDBRANCH  15  17
ENDBRANCH   1  15
TORSDOF 3
ENDMDL
MODEL 3
REMARK VINA RESULT:      -6.4      2.091      4.929
REMARK  Name = 
REMARK  4 active torsions:
REMARK  status: ('A' for Active; 'I' for Inactive)
REMARK    1  A    between atoms: C_1  and  C_2
REMARK    2  A    between atoms: C_2  and  C_3
REMARK    3  A    between atoms: C_3  and  C_4
REMARK    4  A    between atoms: C_10  and  N_11
REMARK                            x       y       z     vdW  Elec       q    Type
REMARK                         _______ _______ _______ _____ _____    ______ ____
ROOT
ATOM      1  C   UNL     1       4.470   6.064  16.790  0.00  0.00    +0.000 C 
ATOM      2  C   UNL     1       5.896   6.407  16.287  0.00  0.00    +0.000 C 
ATOM      3  C   UNL     1       6.990   5.939  17.264  0.00  0.00    +0.000 C 
ATOM      4  C   UNL     1       6.988   4.413  17.096  0.00  0.00    +0.000 C 
ATOM      5  C   UNL     1       5.838   4.181  16.103  0.00  0.00    +0.000 C 
ATOM      6  C   UNL     1       6.042   5.374  15.160  0.00  0.00    +0.000 C 
ATOM      7  C   UNL     1       4.462   4.516  16.732  0.00  0.00    +0.000 C 
ENDROOT
BRANCH   7   8
ATOM      8  N   UNL     1       4.249   3.862  18.002  0.00  0.00    +0.000 N 
ATOM      9  C   UNL     1       3.068   3.309  18.355  0.00  0.00    +0.000 C 
ATOM     10  N   UNL     1       1.953   3.323  17.706  0.00  0.00    +0.000 NA
ATOM     11  C   UNL     1       1.008   2.673  18.614  0.00  0.00    +0.000 C 
ATOM     12  C   UNL     1       1.871   2.017  19.665  0.00  0.00    +0.000 C 
ATOM     13  O   UNL     1       3.125   2.673  19.552  0.00  0.00    +0.000 OA
ATOM     14  H   UNL     1       5.046   3.632  18.577  0.00  0.00    +0.000 HD
ENDBRANCH   7   8
BRANCH   1  15
ATOM     15  C   UNL     1       3.982   6.735  18.079  0.00  0.00    +0.000 C 
BRANCH  15  17
ATOM     16  C   UNL     1       2.270   8.577  17.773  0.00  0.00    +0.000 C 
ATOM     17  C   UNL     1       2.492   7.090  18.009  0.00  0.00    +0.000 C 
ENDBRANCH  15  17
ENDBRANCH   1  15
TORSDOF 3
ENDMDL
MODEL 4
REMARK VINA RESULT:      -6.4      2.632      5.448
REMARK  Name = 
REMARK  4 active torsions:
REMARK  status: ('A' for Active; 'I' for Inactive)
REMARK    1  A    between atoms: C_1  and  C_2
REMARK    2  A    between atoms: C_2  and  C_3
REMARK    3  A    between atoms: C_3  and  C_4
REMARK    4  A    between atoms: C_10  and  N_11
REMARK                            x       y       z     vdW  Elec       q    Type
REMARK                         _______ _______ _______ _____ _____    ______ ____
ROOT
ATOM      1  C   UNL     1       6.507   4.478  16.353  0.00  0.00    +0.000 C 
ATOM      2  C   UNL     1       6.524   6.025  16.243  0.00  0.00    +0.000 C 
ATOM      3  C   UNL     1       5.113   6.615  16.065  0.00  0.00    +0.000 C 
ATOM      4  C   UNL     1       4.474   6.435  17.450  0.00  0.00    +0.000 C 
ATOM      5  C   UNL     1       5.566   5.690  18.234  0.00  0.00    +0.000 C 
ATOM      6  C   UNL     1       6.820   6.398  17.704  0.00  0.00    +0.000 C 
ATOM      7  C   UNL     1       5.774   4.250  17.700  0.00  0.00    +0.000 C 
ENDROOT
BRANCH   7   8
ATOM      8  N   UNL     1       4.543   3.502  17.602  0.00  0.00    +0.000 N 
ATOM      9  C   UNL     1       3.834   3.109  18.683  0.00  0.00    +0.000 C 
ATOM     10  N   UNL     1       4.136   3.246  19.929  0.00  0.00    +0.000 NA
ATOM     11  C   UNL     1       3.064   2.539  20.631  0.00  0.00    +0.000 C 
ATOM     12  C   UNL     1       1.994   2.325  19.588  0.00  0.00    +0.000 C 
ATOM     13  O   UNL     1       2.668   2.500  18.351  0.00  0.00    +0.000 OA
ATOM     14  H   UNL     1       4.082   3.427  16.707  0.00  0.00    +0.000 HD
ENDBRANCH   7   8
BRANCH   1  15
ATOM     15  C   UNL     1       6.034   3.676  15.136  0.00  0.00    +0.000 C 
BRANCH  15  17
ATOM     16  C   UNL     1       6.075   3.486  12.611  0.00  0.00    +0.000 C 
ATOM     17  C   UNL     1       6.555   4.271  13.823  0.00  0.00    +0.000 C 
ENDBRANCH  15  17
ENDBRANCH   1  15
TORSDOF 3
ENDMDL
MODEL 5
REMARK VINA RESULT:      -6.4      1.398      1.680
REMARK  Name = 
REMARK  4 active torsions:
REMARK  status: ('A' for Active; 'I' for Inactive)
REMARK    1  A    between atoms: C_1  and  C_2
REMARK    2  A    between atoms: C_2  and  C_3
REMARK    3  A    between atoms: C_3  and  C_4
REMARK    4  A    between atoms: C_10  and  N_11
REMARK                            x       y       z     vdW  Elec       q    Type
REMARK                         _______ _______ _______ _____ _____    ______ ____
ROOT
ATOM      1  C   UNL     1       2.729   4.569  20.010  0.00  0.00    +0.000 C 
ATOM      2  C   UNL     1       1.565   3.687  19.490  0.00  0.00    +0.000 C 
ATOM      3  C   UNL     1       1.278   3.920  17.994  0.00  0.00    +0.000 C 
ATOM      4  C   UNL     1       2.473   3.256  17.295  0.00  0.00    +0.000 C 
ATOM      5  C   UNL     1       3.343   2.793  18.474  0.00  0.00    +0.000 C 
ATOM      6  C   UNL     1       2.259   2.317  19.449  0.00  0.00    +0.000 C 
ATOM      7  C   UNL     1       3.948   3.994  19.246  0.00  0.00    +0.000 C 
ENDROOT
BRANCH   7   8
ATOM      8  N   UNL     1       4.624   4.935  18.383  0.00  0.00    +0.000 N 
ATOM      9  C   UNL     1       5.885   5.363  18.607  0.00  0.00    +0.000 C 
ATOM     10  N   UNL     1       6.653   5.095  19.609  0.00  0.00    +0.000 NA
ATOM     11  C   UNL     1       7.841   5.916  19.370  0.00  0.00    +0.000 C 
ATOM     12  C   UNL     1       7.716   6.370  17.936  0.00  0.00    +0.000 C 
ATOM     13  O   UNL     1       6.346   6.173  17.622  0.00  0.00    +0.000 OA
ATOM     14  H   UNL     1       4.230   5.143  17.477  0.00  0.00    +0.000 HD
ENDBRANCH   7   8
BRANCH   1  15
ATOM     15  C   UNL     1       2.536   6.090  20.009  0.00  0.00    +0.000 C 
BRANCH  15  17
ATOM     16  C   UNL     1       1.233   8.014  21.015  0.00  0.00    +0.000 C 
ATOM     17  C   UNL     1       1.296   6.508  20.807  0.00  0.00    +0.000 C 
ENDBRANCH  15  17
ENDBRANCH   1  15
TORSDOF 3
ENDMDL
MODEL 6
REMARK VINA RESULT:      -6.3      2.063      2.297
REMARK  Name = 
REMARK  4 active torsions:
REMARK  status: ('A' for Active; 'I' for Inactive)
REMARK    1  A    between atoms: C_1  and  C_2
REMARK    2  A    between atoms: C_2  and  C_3
REMARK    3  A    between atoms: C_3  and  C_4
REMARK    4  A    between atoms: C_10  and  N_11
REMARK                            x       y       z     vdW  Elec       q    Type
REMARK                         _______ _______ _______ _____ _____    ______ ____
ROOT
ATOM      1  C   UNL     1       3.602   5.080  18.776  0.00  0.00    +0.000 C 
ATOM      2  C   UNL     1       2.424   4.422  19.540  0.00  0.00    +0.000 C 
ATOM      3  C   UNL     1       1.360   3.843  18.589  0.00  0.00    +0.000 C 
ATOM      4  C   UNL     1       2.046   2.602  18.000  0.00  0.00    +0.000 C 
ATOM      5  C   UNL     1       3.450   2.662  18.621  0.00  0.00    +0.000 C 
ATOM      6  C   UNL     1       3.107   3.139  20.038  0.00  0.00    +0.000 C 
ATOM      7  C   UNL     1       4.266   3.864  18.080  0.00  0.00    +0.000 C 
ENDROOT
BRANCH   7   8
ATOM      8  N   UNL     1       4.286   3.928  16.637  0.00  0.00    +0.000 N 
ATOM      9  C   UNL     1       5.397   4.228  15.930  0.00  0.00    +0.000 C 
ATOM     10  N   UNL     1       6.558   4.571  16.375  0.00  0.00    +0.000 NA
ATOM     11  C   UNL     1       7.322   4.879  15.165  0.00  0.00    +0.000 C 
ATOM     12  C   UNL     1       6.499   4.311  14.034  0.00  0.00    +0.000 C 
ATOM     13  O   UNL     1       5.205   4.141  14.591  0.00  0.00    +0.000 OA
ATOM     14  H   UNL     1       3.507   3.552  16.117  0.00  0.00    +0.000 HD
ENDBRANCH   7   8
BRANCH   1  15
ATOM     15  C   UNL     1       3.304   6.318  17.923  0.00  0.00    +0.000 C 
BRANCH  15  17
ATOM     16  C   UNL     1       2.099   8.543  17.819  0.00  0.00    +0.000 C 
ATOM     17  C   UNL     1       2.459   7.346  18.686  0.00  0.00    +0.000 C 
ENDBRANCH  15  17
ENDBRANCH   1  15
TORSDOF 3
ENDMDL
MODEL 7
REMARK VINA RESULT:      -6.3      1.936      3.068
REMARK  Name = 
REMARK  4 active torsions:
REMARK  status: ('A' for Active; 'I' for Inactive)
REMARK    1  A    between atoms: C_1  and  C_2
REMARK    2  A    between atoms: C_2  and  C_3
REMARK    3  A    between atoms: C_3  and  C_4
REMARK    4  A    between atoms: C_10  and  N_11
REMARK                            x       y       z     vdW  Elec       q    Type
REMARK                         _______ _______ _______ _____ _____    ______ ____
ROOT
ATOM      1  C   UNL     1       3.616   4.225  17.072  0.00  0.00    +0.000 C 
ATOM      2  C   UNL     1       2.400   3.276  17.228  0.00  0.00    +0.000 C 
ATOM      3  C   UNL     1       2.678   2.126  18.214  0.00  0.00    +0.000 C 
ATOM      4  C   UNL     1       2.675   2.821  19.583  0.00  0.00    +0.000 C 
ATOM      5  C   UNL     1       2.476   4.299  19.214  0.00  0.00    +0.000 C 
ATOM      6  C   UNL     1       1.467   4.165  18.065  0.00  0.00    +0.000 C 
ATOM      7  C   UNL     1       3.711   4.877  18.474  0.00  0.00    +0.000 C 
ENDROOT
BRANCH   7   8
ATOM      8  N   UNL     1       4.950   4.633  19.174  0.00  0.00    +0.000 N 
ATOM      9  C   UNL     1       6.066   5.369  18.971  0.00  0.00    +0.000 C 
ATOM     10  N   UNL     1       6.253   6.316  18.115  0.00  0.00    +0.000 NA
ATOM     11  C   UNL     1       7.667   6.659  18.274  0.00  0.00    +0.000 C 
ATOM     12  C   UNL     1       8.082   5.999  19.566  0.00  0.00    +0.000 C 
ATOM     13  O   UNL     1       7.081   5.020  19.800  0.00  0.00    +0.000 OA
ATOM     14  H   UNL     1       4.950   4.026  19.980  0.00  0.00    +0.000 HD
ENDBRANCH   7   8
BRANCH   1  15
ATOM     15  C   UNL     1       4.899   3.654  16.459  0.00  0.00    +0.000 C 
BRANCH  15  17
ATOM     16  C   UNL     1       6.819   4.491  15.034  0.00  0.00    +0.000 C 
ATOM     17  C   UNL     1       5.307   4.405  15.186  0.00  0.00    +0.000 C 
ENDBRANCH  15  17
ENDBRANCH   1  15
TORSDOF 3
ENDMDL
MODEL 8
REMARK VINA RESULT:      -6.3      2.629      4.951
REMARK  Name = 
REMARK  4 active torsions:
REMARK  status: ('A' for Active; 'I' for Inactive)
REMARK    1  A    between atoms: C_1  and  C_2
REMARK    2  A    between atoms: C_2  and  C_3
REMARK    3  A    between atoms: C_3  and  C_4
REMARK    4  A    between atoms: C_10  and  N_11
REMARK                            x       y       z     vdW  Elec       q    Type
REMARK                         _______ _______ _______ _____ _____    ______ ____
ROOT
ATOM      1  C   UNL     1       3.261   4.627  18.450  0.00  0.00    +0.000 C 
ATOM      2  C   UNL     1       4.400   3.778  17.829  0.00  0.00    +0.000 C 
ATOM      3  C   UNL     1       4.697   4.173  16.371  0.00  0.00    +0.000 C 
ATOM      4  C   UNL     1       5.395   5.534  16.505  0.00  0.00    +0.000 C 
ATOM      5  C   UNL     1       5.345   5.795  18.019  0.00  0.00    +0.000 C 
ATOM      6  C   UNL     1       5.613   4.382  18.553  0.00  0.00    +0.000 C 
ATOM      7  C   UNL     1       3.894   6.040  18.510  0.00  0.00    +0.000 C 
ENDROOT
BRANCH   7   8
ATOM      8  N   UNL     1       3.203   7.048  17.742  0.00  0.00    +0.000 N 
ATOM      9  C   UNL     1       2.403   7.981  18.304  0.00  0.00    +0.000 C 
ATOM     10  N   UNL     1       2.061   8.097  19.542  0.00  0.00    +0.000 NA
ATOM     11  C   UNL     1       1.105   9.206  19.541  0.00  0.00    +0.000 C 
ATOM     12  C   UNL     1       1.274   9.859  18.190  0.00  0.00    +0.000 C 
ATOM     13  O   UNL     1       1.931   8.878  17.403  0.00  0.00    +0.000 OA
ATOM     14  H   UNL     1       3.463   7.198  16.778  0.00  0.00    +0.000 HD
ENDBRANCH   7   8
BRANCH   1  15
ATOM     15  C   UNL     1       1.857   4.497  17.848  0.00  0.00    +0.000 C 
BRANCH  15  17
ATOM     16  C   UNL     1       0.974   3.296  19.896  0.00  0.00    +0.000 C 
ATOM     17  C   UNL     1       1.120   3.263  18.382  0.00  0.00    +0.000 C 
ENDBRANCH  15  17
ENDBRANCH   1  15
TORSDOF 3
ENDMDL
MODEL 9
REMARK VINA RESULT:      -6.2      2.102      4.790
REMARK  Name = 
REMARK  4 active torsions:
REMARK  status: ('A' for Active; 'I' for Inactive)
REMARK    1  A    between atoms: C_1  and  C_2
REMARK    2  A    between atoms: C_2  and  C_3
REMARK    3  A    between atoms: C_3  and  C_4
REMARK    4  A    between atoms: C_10  and  N_11
REMARK                            x       y       z     vdW  Elec       q    Type
REMARK                         _______ _______ _______ _____ _____    ______ ____
ROOT
ATOM      1  C   UNL     1       4.473   5.653  16.680  0.00  0.00    +0.000 C 
ATOM      2  C   UNL     1       5.646   6.047  15.747  0.00  0.00    +0.000 C 
ATOM      3  C   UNL     1       7.017   5.885  16.430  0.00  0.00    +0.000 C 
ATOM      4  C   UNL     1       7.204   4.363  16.496  0.00  0.00    +0.000 C 
ATOM      5  C   UNL     1       5.884   3.832  15.917  0.00  0.00    +0.000 C 
ATOM      6  C   UNL     1       5.647   4.846  14.790  0.00  0.00    +0.000 C 
ATOM      7  C   UNL     1       4.686   4.128  16.855  0.00  0.00    +0.000 C 
ENDROOT
BRANCH   7   8
ATOM      8  N   UNL     1       4.917   3.700  18.215  0.00  0.00    +0.000 N 
ATOM      9  C   UNL     1       3.928   3.266  19.027  0.00  0.00    +0.000 C 
ATOM     10  N   UNL     1       2.660   3.228  18.791  0.00  0.00    +0.000 NA
ATOM     11  C   UNL     1       2.080   2.779  20.057  0.00  0.00    +0.000 C 
ATOM     12  C   UNL     1       3.251   2.262  20.858  0.00  0.00    +0.000 C 
ATOM     13  O   UNL     1       4.388   2.831  20.226  0.00  0.00    +0.000 OA
ATOM     14  H   UNL     1       5.863   3.529  18.524  0.00  0.00    +0.000 HD
ENDBRANCH   7   8
BRANCH   1  15
ATOM     15  C   UNL     1       4.243   6.493  17.941  0.00  0.00    +0.000 C 
BRANCH  15  17
ATOM     16  C   UNL     1       2.382   6.761  19.638  0.00  0.00    +0.000 C 
ATOM     17  C   UNL     1       2.756   6.795  18.164  0.00  0.00    +0.000 C 
ENDBRANCH  15  17
ENDBRANCH   1  15
TORSDOF 3
ENDMDL
