MODEL 1
REMARK VINA RESULT:      -6.0      0.000      0.000
REMARK  Name = 
REMARK  17 active torsions:
REMARK  status: ('A' for Active; 'I' for Inactive)
REMARK    1  A    between atoms: C_1  and  C_2
REMARK    2  A    between atoms: C_2  and  C_3
REMARK    3  A    between atoms: C_3  and  O_4
REMARK    4  A    between atoms: O_4  and  C_5
REMARK    5  A    between atoms: C_5  and  O_6
REMARK    6  A    between atoms: O_6  and  C_7
REMARK    7  A    between atoms: C_7  and  C_8
REMARK    8  A    between atoms: C_8  and  C_9
REMARK    9  A    between atoms: C_12  and  O_13
REMARK   10  A    between atoms: O_13  and  C_14
REMARK   11  A    between atoms: C_14  and  C_15
REMARK   12  A    between atoms: C_15  and  O_16
REMARK   13  A    between atoms: C_15  and  C_17
REMARK   14  A    between atoms: C_17  and  N_18
REMARK   15  A    between atoms: N_18  and  C_19
REMARK   16  A    between atoms: C_19  and  C_20
REMARK   17  A    between atoms: C_19  and  C_21
REMARK                            x       y       z     vdW  Elec       q    Type
REMARK                         _______ _______ _______ _____ _____    ______ ____
ROOT
ATOM      1  C   UNL     1       5.181   4.778  16.652  0.00  0.00    +0.000 A 
ATOM      2  C   UNL     1       4.046   3.978  16.530  0.00  0.00    +0.000 A 
ATOM      3  C   UNL     1       3.527   3.317  17.631  0.00  0.00    +0.000 A 
ATOM      4  C   UNL     1       4.136   3.421  18.883  0.00  0.00    +0.000 A 
ATOM      5  C   UNL     1       5.275   4.225  19.018  0.00  0.00    +0.000 A 
ATOM      6  C   UNL     1       5.793   4.902  17.908  0.00  0.00    +0.000 A 
ENDROOT
BRANCH   1   7
ATOM      7  C   UNL     1       5.691   5.490  15.429  0.00  0.00    +0.000 C 
BRANCH   7   8
ATOM      8  C   UNL     1       6.828   4.716  14.762  0.00  0.00    +0.000 C 
BRANCH   8   9
ATOM      9  O   UNL     1       6.281   3.605  14.054  0.00  0.00    +0.000 OA
BRANCH   9  10
ATOM     10  C   UNL     1       6.595   3.675  12.667  0.00  0.00    +0.000 C 
BRANCH  10  11
ATOM     11  O   UNL     1       5.440   3.617  11.837  0.00  0.00    +0.000 OA
BRANCH  11  12
ATOM     12  C   UNL     1       5.115   2.271  11.498  0.00  0.00    +0.000 C 
BRANCH  12  14
ATOM     13  C   UNL     1       6.193   0.028  11.267  0.00  0.00    +0.000 C 
ATOM     14  C   UNL     1       6.401   1.528  11.178  0.00  0.00    +0.000 C 
ENDBRANCH  12  14
ENDBRANCH  11  12
ENDBRANCH  10  11
ENDBRANCH   9  10
ENDBRANCH   8   9
ENDBRANCH   7   8
ENDBRANCH   1   7
BRANCH   4  15
ATOM     15  O   UNL     1       3.687   2.760  20.003  0.00  0.00    +0.000 OA
BRANCH  15  16
ATOM     16  C   UNL     1       2.291   2.408  19.939  0.00  0.00    +0.000 C 
BRANCH  16  17
ATOM     17  C   UNL     1       1.462   3.175  20.967  0.00  0.00    +0.000 C 
BRANCH  17  18
ATOM     18  O   UNL     1       2.085   3.098  22.252  0.00  0.00    +0.000 OA
ATOM     19  H   UNL     1       1.384   3.275  22.902  0.00  0.00    +0.000 HD
ENDBRANCH  17  18
BRANCH  17  20
ATOM     20  C   UNL     1       1.268   4.645  20.567  0.00  0.00    +0.000 C 
BRANCH  20  21
ATOM     21  N   UNL     1       2.462   5.449  20.841  0.00  0.00    +0.000 NA
ATOM     22  H   UNL     1       3.294   4.927  20.566  0.00  0.00    +0.000 HD
BRANCH  21  23
ATOM     23  C   UNL     1       2.460   6.749  20.161  0.00  0.00    +0.000 C 
ATOM     24  C   UNL     1       2.323   6.618  18.641  0.00  0.00    +0.000 C 
ATOM     25  C   UNL     1       1.288   7.566  20.709  0.00  0.00    +0.000 C 
ENDBRANCH  21  23
ENDBRANCH  20  21
ENDBRANCH  17  20
ENDBRANCH  16  17
ENDBRANCH  15  16
ENDBRANCH   4  15
TORSDOF 14
ENDMDL
MODEL 2
REMARK VINA RESULT:      -6.0      2.484      7.482
REMARK  Name = 
REMARK  17 active torsions:
REMARK  status: ('A' for Active; 'I' for Inactive)
REMARK    1  A    between atoms: C_1  and  C_2
REMARK    2  A    between atoms: C_2  and  C_3
REMARK    3  A    between atoms: C_3  and  O_4
REMARK    4  A    between atoms: O_4  and  C_5
REMARK    5  A    between atoms: C_5  and  O_6
REMARK    6  A    between atoms: O_6  and  C_7
REMARK    7  A    between atoms: C_7  and  C_8
REMARK    8  A    between atoms: C_8  and  C_9
REMARK    9  A    between atoms: C_12  and  O_13
REMARK   10  A    between atoms: O_13  and  C_14
REMARK   11  A    between atoms: C_14  and  C_15
REMARK   12  A    between atoms: C_15  and  O_16
REMARK   13  A    between atoms: C_15  and  C_17
REMARK   14  A    between atoms: C_17  and  N_18
REMARK   15  A    between atoms: N_18  and  C_19
REMARK   16  A    between atoms: C_19  and  C_20
REMARK   17  A    between atoms: C_19  and  C_21
REMARK                            x       y       z     vdW  Elec       q    Type
REMARK                         _______ _______ _______ _____ _____    ______ ____
ROOT
ATOM      1  C   UNL     1       3.366   6.049  19.250  0.00  0.00    +0.000 A 
ATOM      2  C   UNL     1       4.407   5.282  19.768  0.00  0.00    +0.000 A 
ATOM      3  C   UNL     1       5.593   5.136  19.068  0.00  0.00    +0.000 A 
ATOM      4  C   UNL     1       5.768   5.737  17.820  0.00  0.00    +0.000 A 
ATOM      5  C   UNL     1       4.729   6.514  17.291  0.00  0.00    +0.000 A 
ATOM      6  C   UNL     1       3.535   6.671  18.004  0.00  0.00    +0.000 A 
ENDROOT
BRANCH   1   7
ATOM      7  C   UNL     1       2.107   6.191  20.061  0.00  0.00    +0.000 C 
BRANCH   7   8
ATOM      8  C   UNL     1       1.879   4.977  20.962  0.00  0.00    +0.000 C 
BRANCH   8   9
ATOM      9  O   UNL     1       0.810   4.198  20.427  0.00  0.00    +0.000 OA
BRANCH   9  10
ATOM     10  C   UNL     1       1.172   2.824  20.337  0.00  0.00    +0.000 C 
BRANCH  10  11
ATOM     11  O   UNL     1       2.541   2.636  19.995  0.00  0.00    +0.000 OA
BRANCH  11  12
ATOM     12  C   UNL     1       2.686   1.667  18.959  0.00  0.00    +0.000 C 
BRANCH  12  14
ATOM     13  C   UNL     1       2.367   3.353  17.142  0.00  0.00    +0.000 C 
ATOM     14  C   UNL     1       3.318   2.340  17.752  0.00  0.00    +0.000 C 
ENDBRANCH  12  14
ENDBRANCH  11  12
ENDBRANCH  10  11
ENDBRANCH   9  10
ENDBRANCH   8   9
ENDBRANCH   7   8
ENDBRANCH   1   7
BRANCH   4  15
ATOM     15  O   UNL     1       6.909   5.599  17.064  0.00  0.00    +0.000 OA
BRANCH  15  16
ATOM     16  C   UNL     1       6.817   4.557  16.074  0.00  0.00    +0.000 C 
BRANCH  16  17
ATOM     17  C   UNL     1       6.688   5.123  14.661  0.00  0.00    +0.000 C 
BRANCH  17  18
ATOM     18  O   UNL     1       7.980   5.218  14.054  0.00  0.00    +0.000 OA
ATOM     19  H   UNL     1       7.830   5.556  13.155  0.00  0.00    +0.000 HD
ENDBRANCH  17  18
BRANCH  17  20
ATOM     20  C   UNL     1       5.759   4.272  13.784  0.00  0.00    +0.000 C 
BRANCH  20  21
ATOM     21  N   UNL     1       6.461   3.708  12.628  0.00  0.00    +0.000 NA
ATOM     22  H   UNL     1       7.408   3.447  12.901  0.00  0.00    +0.000 HD
BRANCH  21  23
ATOM     23  C   UNL     1       5.787   2.543  12.047  0.00  0.00    +0.000 C 
ATOM     24  C   UNL     1       4.476   2.910  11.345  0.00  0.00    +0.000 C 
ATOM     25  C   UNL     1       6.741   1.900  11.037  0.00  0.00    +0.000 C 
ENDBRANCH  21  23
ENDBRANCH  20  21
ENDBRANCH  17  20
ENDBRANCH  16  17
ENDBRANCH  15  16
ENDBRANCH   4  15
TORSDOF 14
ENDMDL
MODEL 3
REMARK VINA RESULT:      -5.9      4.940      7.691
REMARK  Name = 
REMARK  17 active torsions:
REMARK  status: ('A' for Active; 'I' for Inactive)
REMARK    1  A    between atoms: C_1  and  C_2
REMARK    2  A    between atoms: C_2  and  C_3
REMARK    3  A    between atoms: C_3  and  O_4
REMARK    4  A    between atoms: O_4  and  C_5
REMARK    5  A    between atoms: C_5  and  O_6
REMARK    6  A    between atoms: O_6  and  C_7
REMARK    7  A    between atoms: C_7  and  C_8
REMARK    8  A    between atoms: C_8  and  C_9
REMARK    9  A    between atoms: C_12  and  O_13
REMARK   10  A    between atoms: O_13  and  C_14
REMARK   11  A    between atoms: C_14  and  C_15
REMARK   12  A    between atoms: C_15  and  O_16
REMARK   13  A    between atoms: C_15  and  C_17
REMARK   14  A    between atoms: C_17  and  N_18
REMARK   15  A    between atoms: N_18  and  C_19
REMARK   16  A    between atoms: C_19  and  C_20
REMARK   17  A    between atoms: C_19  and  C_21
REMARK                            x       y       z     vdW  Elec       q    Type
REMARK                         _______ _______ _______ _____ _____    ______ ____
ROOT
ATOM      1  C   UNL     1       2.270   7.255  19.487  0.00  0.00    +0.000 A 
ATOM      2  C   UNL     1       2.132   8.169  18.445  0.00  0.00    +0.000 A 
ATOM      3  C   UNL     1       1.415   9.340  18.623  0.00  0.00    +0.000 A 
ATOM      4  C   UNL     1       0.799   9.625  19.843  0.00  0.00    +0.000 A 
ATOM      5  C   UNL     1       0.934   8.715  20.899  0.00  0.00    +0.000 A 
ATOM      6  C   UNL     1       1.669   7.537  20.723  0.00  0.00    +0.000 A 
ENDROOT
BRANCH   1   7
ATOM      7  C   UNL     1       3.077   6.008  19.246  0.00  0.00    +0.000 C 
BRANCH   7   8
ATOM      8  C   UNL     1       3.826   6.072  17.915  0.00  0.00    +0.000 C 
BRANCH   8   9
ATOM      9  O   UNL     1       3.532   4.898  17.161  0.00  0.00    +0.000 OA
BRANCH   9  10
ATOM     10  C   UNL     1       2.472   4.157  17.756  0.00  0.00    +0.000 C 
BRANCH  10  11
ATOM     11  O   UNL     1       2.747   2.763  17.829  0.00  0.00    +0.000 OA
BRANCH  11  12
ATOM     12  C   UNL     1       2.454   2.246  19.126  0.00  0.00    +0.000 C 
BRANCH  12  14
ATOM     13  C   UNL     1       1.273   3.162  21.129  0.00  0.00    +0.000 C 
ATOM     14  C   UNL     1       1.185   2.909  19.635  0.00  0.00    +0.000 C 
ENDBRANCH  12  14
ENDBRANCH  11  12
ENDBRANCH  10  11
ENDBRANCH   9  10
ENDBRANCH   8   9
ENDBRANCH   7   8
ENDBRANCH   1   7
BRANCH   4  15
ATOM     15  O   UNL     1       0.045  10.754  20.067  0.00  0.00    +0.000 OA
BRANCH  15  16
ATOM     16  C   UNL     1       0.216  11.767  19.057  0.00  0.00    +0.000 C 
BRANCH  16  17
ATOM     17  C   UNL     1      -1.122  12.240  18.492  0.00  0.00    +0.000 C 
BRANCH  17  18
ATOM     18  O   UNL     1      -0.900  13.104  17.374  0.00  0.00    +0.000 OA
ATOM     19  H   UNL     1      -1.424  12.736  16.642  0.00  0.00    +0.000 HD
ENDBRANCH  17  18
BRANCH  17  20
ATOM     20  C   UNL     1      -2.018  11.065  18.077  0.00  0.00    +0.000 C 
BRANCH  20  21
ATOM     21  N   UNL     1      -1.802  10.678  16.680  0.00  0.00    +0.000 NA
ATOM     22  H   UNL     1      -1.630   9.674  16.629  0.00  0.00    +0.000 HD
BRANCH  21  23
ATOM     23  C   UNL     1      -2.922  11.022  15.798  0.00  0.00    +0.000 C 
ATOM     24  C   UNL     1      -3.099  10.021  14.652  0.00  0.00    +0.000 C 
ATOM     25  C   UNL     1      -4.197  11.055  16.645  0.00  0.00    +0.000 C 
ENDBRANCH  21  23
ENDBRANCH  20  21
ENDBRANCH  17  20
ENDBRANCH  16  17
ENDBRANCH  15  16
ENDBRANCH   4  15
TORSDOF 14
ENDMDL
MODEL 4
REMARK VINA RESULT:      -5.8      1.128      1.613
REMARK  Name = 
REMARK  17 active torsions:
REMARK  status: ('A' for Active; 'I' for Inactive)
REMARK    1  A    between atoms: C_1  and  C_2
REMARK    2  A    between atoms: C_2  and  C_3
REMARK    3  A    between atoms: C_3  and  O_4
REMARK    4  A    between atoms: O_4  and  C_5
REMARK    5  A    between atoms: C_5  and  O_6
REMARK    6  A    between atoms: O_6  and  C_7
REMARK    7  A    between atoms: C_7  and  C_8
REMARK    8  A    between atoms: C_8  and  C_9
REMARK    9  A    between atoms: C_12  and  O_13
REMARK   10  A    between atoms: O_13  and  C_14
REMARK   11  A    between atoms: C_14  and  C_15
REMARK   12  A    between atoms: C_15  and  O_16
REMARK   13  A    between atoms: C_15  and  C_17
REMARK   14  A    between atoms: C_17  and  N_18
REMARK   15  A    between atoms: N_18  and  C_19
REMARK   16  A    between atoms: C_19  and  C_20
REMARK   17  A    between atoms: C_19  and  C_21
REMARK                            x       y       z     vdW  Elec       q    Type
REMARK                         _______ _______ _______ _____ _____    ______ ____
ROOT
ATOM      1  C   UNL     1       5.498   4.921  16.590  0.00  0.00    +0.000 A 
ATOM      2  C   UNL     1       4.600   3.859  16.498  0.00  0.00    +0.000 A 
ATOM      3  C   UNL     1       4.123   3.236  17.639  0.00  0.00    +0.000 A 
ATOM      4  C   UNL     1       4.542   3.645  18.907  0.00  0.00    +0.000 A 
ATOM      5  C   UNL     1       5.441   4.714  19.012  0.00  0.00    +0.000 A 
ATOM      6  C   UNL     1       5.914   5.351  17.859  0.00  0.00    +0.000 A 
ENDROOT
BRANCH   1   7
ATOM      7  C   UNL     1       5.968   5.575  15.319  0.00  0.00    +0.000 C 
BRANCH   7   8
ATOM      8  C   UNL     1       7.205   4.876  14.753  0.00  0.00    +0.000 C 
BRANCH   8   9
ATOM      9  O   UNL     1       7.491   5.415  13.463  0.00  0.00    +0.000 OA
BRANCH   9  10
ATOM     10  C   UNL     1       7.171   4.483  12.436  0.00  0.00    +0.000 C 
BRANCH  10  11
ATOM     11  O   UNL     1       6.493   3.331  12.927  0.00  0.00    +0.000 OA
BRANCH  11  12
ATOM     12  C   UNL     1       5.670   2.747  11.920  0.00  0.00    +0.000 C 
BRANCH  12  14
ATOM     13  C   UNL     1       3.463   3.023  10.780  0.00  0.00    +0.000 C 
ATOM     14  C   UNL     1       4.539   3.710  11.601  0.00  0.00    +0.000 C 
ENDBRANCH  12  14
ENDBRANCH  11  12
ENDBRANCH  10  11
ENDBRANCH   9  10
ENDBRANCH   8   9
ENDBRANCH   7   8
ENDBRANCH   1   7
BRANCH   4  15
ATOM     15  O   UNL     1       4.130   3.042  20.073  0.00  0.00    +0.000 OA
BRANCH  15  16
ATOM     16  C   UNL     1       2.784   2.534  20.011  0.00  0.00    +0.000 C 
BRANCH  16  17
ATOM     17  C   UNL     1       1.750   3.659  19.996  0.00  0.00    +0.000 C 
BRANCH  17  18
ATOM     18  O   UNL     1       0.437   3.116  20.154  0.00  0.00    +0.000 OA
ATOM     19  H   UNL     1      -0.133   3.861  20.413  0.00  0.00    +0.000 HD
ENDBRANCH  17  18
BRANCH  17  20
ATOM     20  C   UNL     1       2.021   4.702  21.091  0.00  0.00    +0.000 C 
BRANCH  20  21
ATOM     21  N   UNL     1       2.759   5.858  20.575  0.00  0.00    +0.000 NA
ATOM     22  H   UNL     1       3.530   5.535  19.991  0.00  0.00    +0.000 HD
BRANCH  21  23
ATOM     23  C   UNL     1       1.925   6.788  19.805  0.00  0.00    +0.000 C 
ATOM     24  C   UNL     1       1.637   8.086  20.564  0.00  0.00    +0.000 C 
ATOM     25  C   UNL     1       2.660   7.113  18.503  0.00  0.00    +0.000 C 
ENDBRANCH  21  23
ENDBRANCH  20  21
ENDBRANCH  17  20
ENDBRANCH  16  17
ENDBRANCH  15  16
ENDBRANCH   4  15
TORSDOF 14
ENDMDL
MODEL 5
REMARK VINA RESULT:      -5.8      2.389      7.877
REMARK  Name = 
REMARK  17 active torsions:
REMARK  status: ('A' for Active; 'I' for Inactive)
REMARK    1  A    between atoms: C_1  and  C_2
REMARK    2  A    between atoms: C_2  and  C_3
REMARK    3  A    between atoms: C_3  and  O_4
REMARK    4  A    between atoms: O_4  and  C_5
REMARK    5  A    between atoms: C_5  and  O_6
REMARK    6  A    between atoms: O_6  and  C_7
REMARK    7  A    between atoms: C_7  and  C_8
REMARK    8  A    between atoms: C_8  and  C_9
REMARK    9  A    between atoms: C_12  and  O_13
REMARK   10  A    between atoms: O_13  and  C_14
REMARK   11  A    between atoms: C_14  and  C_15
REMARK   12  A    between atoms: C_15  and  O_16
REMARK   13  A    between atoms: C_15  and  C_17
REMARK   14  A    between atoms: C_17  and  N_18
REMARK   15  A    between atoms: N_18  and  C_19
REMARK   16  A    between atoms: C_19  and  C_20
REMARK   17  A    between atoms: C_19  and  C_21
REMARK                            x       y       z     vdW  Elec       q    Type
REMARK                         _______ _______ _______ _____ _____    ______ ____
ROOT
ATOM      1  C   UNL     1       3.605   2.944  18.956  0.00  0.00    +0.000 A 
ATOM      2  C   UNL     1       3.585   2.983  17.563  0.00  0.00    +0.000 A 
ATOM      3  C   UNL     1       4.555   3.681  16.862  0.00  0.00    +0.000 A 
ATOM      4  C   UNL     1       5.564   4.375  17.533  0.00  0.00    +0.000 A 
ATOM      5  C   UNL     1       5.596   4.338  18.933  0.00  0.00    +0.000 A 
ATOM      6  C   UNL     1       4.623   3.624  19.640  0.00  0.00    +0.000 A 
ENDROOT
BRANCH   1   7
ATOM      7  C   UNL     1       2.539   2.154  19.666  0.00  0.00    +0.000 C 
BRANCH   7   8
ATOM      8  C   UNL     1       2.169   2.790  21.006  0.00  0.00    +0.000 C 
BRANCH   8   9
ATOM      9  O   UNL     1       0.884   3.399  20.891  0.00  0.00    +0.000 OA
BRANCH   9  10
ATOM     10  C   UNL     1       0.970   4.658  20.232  0.00  0.00    +0.000 C 
BRANCH  10  11
ATOM     11  O   UNL     1       1.817   5.579  20.910  0.00  0.00    +0.000 OA
BRANCH  11  12
ATOM     12  C   UNL     1       2.104   6.714  20.096  0.00  0.00    +0.000 C 
BRANCH  12  14
ATOM     13  C   UNL     1       3.222   7.173  17.909  0.00  0.00    +0.000 C 
ATOM     14  C   UNL     1       2.286   6.246  18.662  0.00  0.00    +0.000 C 
ENDBRANCH  12  14
ENDBRANCH  11  12
ENDBRANCH  10  11
ENDBRANCH   9  10
ENDBRANCH   8   9
ENDBRANCH   7   8
ENDBRANCH   1   7
BRANCH   4  15
ATOM     15  O   UNL     1       6.533   5.113  16.892  0.00  0.00    +0.000 OA
BRANCH  15  16
ATOM     16  C   UNL     1       7.108   4.439  15.757  0.00  0.00    +0.000 C 
BRANCH  16  17
ATOM     17  C   UNL     1       6.738   5.122  14.441  0.00  0.00    +0.000 C 
BRANCH  17  18
ATOM     18  O   UNL     1       7.917   5.361  13.668  0.00  0.00    +0.000 OA
ATOM     19  H   UNL     1       7.633   5.884  12.899  0.00  0.00    +0.000 HD
ENDBRANCH  17  18
BRANCH  17  20
ATOM     20  C   UNL     1       5.736   4.292  13.626  0.00  0.00    +0.000 C 
BRANCH  20  21
ATOM     21  N   UNL     1       6.404   3.451  12.629  0.00  0.00    +0.000 NA
ATOM     22  H   UNL     1       7.192   2.970  13.065  0.00  0.00    +0.000 HD
BRANCH  21  23
ATOM     23  C   UNL     1       5.516   2.462  12.009  0.00  0.00    +0.000 C 
ATOM     24  C   UNL     1       4.377   3.108  11.216  0.00  0.00    +0.000 C 
ATOM     25  C   UNL     1       6.359   1.593  11.073  0.00  0.00    +0.000 C 
ENDBRANCH  21  23
ENDBRANCH  20  21
ENDBRANCH  17  20
ENDBRANCH  16  17
ENDBRANCH  15  16
ENDBRANCH   4  15
TORSDOF 14
ENDMDL
MODEL 6
REMARK VINA RESULT:      -5.8      1.124      1.724
REMARK  Name = 
REMARK  17 active torsions:
REMARK  status: ('A' for Active; 'I' for Inactive)
REMARK    1  A    between atoms: C_1  and  C_2
REMARK    2  A    between atoms: C_2  and  C_3
REMARK    3  A    between atoms: C_3  and  O_4
REMARK    4  A    between atoms: O_4  and  C_5
REMARK    5  A    between atoms: C_5  and  O_6
REMARK    6  A    between atoms: O_6  and  C_7
REMARK    7  A    between atoms: C_7  and  C_8
REMARK    8  A    between atoms: C_8  and  C_9
REMARK    9  A    between atoms: C_12  and  O_13
REMARK   10  A    between atoms: O_13  and  C_14
REMARK   11  A    between atoms: C_14  and  C_15
REMARK   12  A    between atoms: C_15  and  O_16
REMARK   13  A    between atoms: C_15  and  C_17
REMARK   14  A    between atoms: C_17  and  N_18
REMARK   15  A    between atoms: N_18  and  C_19
REMARK   16  A    between atoms: C_19  and  C_20
REMARK   17  A    between atoms: C_19  and  C_21
REMARK                            x       y       z     vdW  Elec       q    Type
REMARK                         _______ _______ _______ _____ _____    ______ ____
ROOT
ATOM      1  C   UNL     1       5.208   4.782  17.149  0.00  0.00    +0.000 A 
ATOM      2  C   UNL     1       5.625   4.758  18.478  0.00  0.00    +0.000 A 
ATOM      3  C   UNL     1       5.037   3.893  19.386  0.00  0.00    +0.000 A 
ATOM      4  C   UNL     1       4.003   3.039  18.998  0.00  0.00    +0.000 A 
ATOM      5  C   UNL     1       3.578   3.053  17.663  0.00  0.00    +0.000 A 
ATOM      6  C   UNL     1       4.180   3.918  16.743  0.00  0.00    +0.000 A 
ENDROOT
BRANCH   1   7
ATOM      7  C   UNL     1       5.894   5.726  16.199  0.00  0.00    +0.000 C 
BRANCH   7   8
ATOM      8  C   UNL     1       7.016   5.031  15.429  0.00  0.00    +0.000 C 
BRANCH   8   9
ATOM      9  O   UNL     1       6.736   5.107  14.032  0.00  0.00    +0.000 OA
BRANCH   9  10
ATOM     10  C   UNL     1       6.443   3.821  13.497  0.00  0.00    +0.000 C 
BRANCH  10  11
ATOM     11  O   UNL     1       5.076   3.678  13.125  0.00  0.00    +0.000 OA
BRANCH  11  12
ATOM     12  C   UNL     1       4.951   3.099  11.828  0.00  0.00    +0.000 C 
BRANCH  12  14
ATOM     13  C   UNL     1       3.042   3.192  10.218  0.00  0.00    +0.000 C 
ATOM     14  C   UNL     1       4.076   4.003  10.977  0.00  0.00    +0.000 C 
ENDBRANCH  12  14
ENDBRANCH  11  12
ENDBRANCH  10  11
ENDBRANCH   9  10
ENDBRANCH   8   9
ENDBRANCH   7   8
ENDBRANCH   1   7
BRANCH   4  15
ATOM     15  O   UNL     1       3.359   2.185  19.863  0.00  0.00    +0.000 OA
BRANCH  15  16
ATOM     16  C   UNL     1       1.924   2.297  19.817  0.00  0.00    +0.000 C 
BRANCH  16  17
ATOM     17  C   UNL     1       1.370   3.037  21.033  0.00  0.00    +0.000 C 
BRANCH  17  18
ATOM     18  O   UNL     1       1.562   2.250  22.211  0.00  0.00    +0.000 OA
ATOM     19  H   UNL     1       1.252   2.797  22.953  0.00  0.00    +0.000 HD
ENDBRANCH  17  18
BRANCH  17  20
ATOM     20  C   UNL     1       2.021   4.416  21.211  0.00  0.00    +0.000 C 
BRANCH  20  21
ATOM     21  N   UNL     1       1.343   5.448  20.422  0.00  0.00    +0.000 NA
ATOM     22  H   UNL     1       0.592   5.860  20.975  0.00  0.00    +0.000 HD
BRANCH  21  23
ATOM     23  C   UNL     1       2.240   6.511  19.956  0.00  0.00    +0.000 C 
ATOM     24  C   UNL     1       2.306   6.599  18.429  0.00  0.00    +0.000 C 
ATOM     25  C   UNL     1       1.729   7.839  20.520  0.00  0.00    +0.000 C 
ENDBRANCH  21  23
ENDBRANCH  20  21
ENDBRANCH  17  20
ENDBRANCH  16  17
ENDBRANCH  15  16
ENDBRANCH   4  15
TORSDOF 14
ENDMDL
MODEL 7
REMARK VINA RESULT:      -5.8      3.903      6.809
REMARK  Name = 
REMARK  17 active torsions:
REMARK  status: ('A' for Active; 'I' for Inactive)
REMARK    1  A    between atoms: C_1  and  C_2
REMARK    2  A    between atoms: C_2  and  C_3
REMARK    3  A    between atoms: C_3  and  O_4
REMARK    4  A    between atoms: O_4  and  C_5
REMARK    5  A    between atoms: C_5  and  O_6
REMARK    6  A    between atoms: O_6  and  C_7
REMARK    7  A    between atoms: C_7  and  C_8
REMARK    8  A    between atoms: C_8  and  C_9
REMARK    9  A    between atoms: C_12  and  O_13
REMARK   10  A    between atoms: O_13  and  C_14
REMARK   11  A    between atoms: C_14  and  C_15
REMARK   12  A    between atoms: C_15  and  O_16
REMARK   13  A    between atoms: C_15  and  C_17
REMARK   14  A    between atoms: C_17  and  N_18
REMARK   15  A    between atoms: N_18  and  C_19
REMARK   16  A    between atoms: C_19  and  C_20
REMARK   17  A    between atoms: C_19  and  C_21
REMARK                            x       y       z     vdW  Elec       q    Type
REMARK                         _______ _______ _______ _____ _____    ______ ____
ROOT
ATOM      1  C   UNL     1       3.474   6.534  18.226  0.00  0.00    +0.000 A 
ATOM      2  C   UNL     1       2.899   6.401  19.488  0.00  0.00    +0.000 A 
ATOM      3  C   UNL     1       2.035   7.367  19.975  0.00  0.00    +0.000 A 
ATOM      4  C   UNL     1       1.732   8.504  19.223  0.00  0.00    +0.000 A 
ATOM      5  C   UNL     1       2.301   8.646  17.951  0.00  0.00    +0.000 A 
ATOM      6  C   UNL     1       3.166   7.664  17.454  0.00  0.00    +0.000 A 
ENDROOT
BRANCH   1   7
ATOM      7  C   UNL     1       4.391   5.446  17.738  0.00  0.00    +0.000 C 
BRANCH   7   8
ATOM      8  C   UNL     1       3.606   4.233  17.237  0.00  0.00    +0.000 C 
BRANCH   8   9
ATOM      9  O   UNL     1       4.086   3.064  17.899  0.00  0.00    +0.000 OA
BRANCH   9  10
ATOM     10  C   UNL     1       3.059   2.086  18.022  0.00  0.00    +0.000 C 
BRANCH  10  11
ATOM     11  O   UNL     1       1.761   2.614  17.770  0.00  0.00    +0.000 OA
BRANCH  11  12
ATOM     12  C   UNL     1       0.862   2.299  18.831  0.00  0.00    +0.000 C 
BRANCH  12  14
ATOM     13  C   UNL     1       1.344   2.863  21.217  0.00  0.00    +0.000 C 
ATOM     14  C   UNL     1       0.926   3.410  19.865  0.00  0.00    +0.000 C 
ENDBRANCH  12  14
ENDBRANCH  11  12
ENDBRANCH  10  11
ENDBRANCH   9  10
ENDBRANCH   8   9
ENDBRANCH   7   8
ENDBRANCH   1   7
BRANCH   4  15
ATOM     15  O   UNL     1       0.908   9.512  19.669  0.00  0.00    +0.000 OA
BRANCH  15  16
ATOM     16  C   UNL     1       1.265  10.811  19.159  0.00  0.00    +0.000 C 
BRANCH  16  17
ATOM     17  C   UNL     1       0.072  11.766  19.146  0.00  0.00    +0.000 C 
BRANCH  17  18
ATOM     18  O   UNL     1      -1.084  11.093  18.642  0.00  0.00    +0.000 OA
ATOM     19  H   UNL     1      -1.221  10.323  19.221  0.00  0.00    +0.000 HD
ENDBRANCH  17  18
BRANCH  17  20
ATOM     20  C   UNL     1      -0.220  12.339  20.540  0.00  0.00    +0.000 C 
BRANCH  20  21
ATOM     21  N   UNL     1       0.306  11.482  21.606  0.00  0.00    +0.000 NA
ATOM     22  H   UNL     1       0.815  12.053  22.280  0.00  0.00    +0.000 HD
BRANCH  21  23
ATOM     23  C   UNL     1      -0.731  10.717  22.305  0.00  0.00    +0.000 C 
ATOM     24  C   UNL     1      -0.148   9.671  23.259  0.00  0.00    +0.000 C 
ATOM     25  C   UNL     1      -1.592  11.704  23.098  0.00  0.00    +0.000 C 
ENDBRANCH  21  23
ENDBRANCH  20  21
ENDBRANCH  17  20
ENDBRANCH  16  17
ENDBRANCH  15  16
ENDBRANCH   4  15
TORSDOF 14
ENDMDL
MODEL 8
REMARK VINA RESULT:      -5.8      4.495      7.171
REMARK  Name = 
REMARK  17 active torsions:
REMARK  status: ('A' for Active; 'I' for Inactive)
REMARK    1  A    between atoms: C_1  and  C_2
REMARK    2  A    between atoms: C_2  and  C_3
REMARK    3  A    between atoms: C_3  and  O_4
REMARK    4  A    between atoms: O_4  and  C_5
REMARK    5  A    between atoms: C_5  and  O_6
REMARK    6  A    between atoms: O_6  and  C_7
REMARK    7  A    between atoms: C_7  and  C_8
REMARK    8  A    between atoms: C_8  and  C_9
REMARK    9  A    between atoms: C_12  and  O_13
REMARK   10  A    between atoms: O_13  and  C_14
REMARK   11  A    between atoms: C_14  and  C_15
REMARK   12  A    between atoms: C_15  and  O_16
REMARK   13  A    between atoms: C_15  and  C_17
REMARK   14  A    between atoms: C_17  and  N_18
REMARK   15  A    between atoms: N_18  and  C_19
REMARK   16  A    between atoms: C_19  and  C_20
REMARK   17  A    between atoms: C_19  and  C_21
REMARK                            x       y       z     vdW  Elec       q    Type
REMARK                         _______ _______ _______ _____ _____    ______ ____
ROOT
ATOM      1  C   UNL     1       3.658   6.293  18.395  0.00  0.00    +0.000 A 
ATOM      2  C   UNL     1       2.951   6.207  19.593  0.00  0.00    +0.000 A 
ATOM      3  C   UNL     1       2.054   7.198  19.955  0.00  0.00    +0.000 A 
ATOM      4  C   UNL     1       1.848   8.313  19.140  0.00  0.00    +0.000 A 
ATOM      5  C   UNL     1       2.550   8.407  17.931  0.00  0.00    +0.000 A 
ATOM      6  C   UNL     1       3.449   7.400  17.560  0.00  0.00    +0.000 A 
ENDROOT
BRANCH   1   7
ATOM      7  C   UNL     1       4.605   5.179  18.040  0.00  0.00    +0.000 C 
BRANCH   7   8
ATOM      8  C   UNL     1       4.019   4.265  16.964  0.00  0.00    +0.000 C 
BRANCH   8   9
ATOM      9  O   UNL     1       2.865   3.611  17.490  0.00  0.00    +0.000 OA
BRANCH   9  10
ATOM     10  C   UNL     1       3.177   2.294  17.930  0.00  0.00    +0.000 C 
BRANCH  10  11
ATOM     11  O   UNL     1       2.604   1.985  19.196  0.00  0.00    +0.000 OA
BRANCH  11  12
ATOM     12  C   UNL     1       3.403   2.492  20.263  0.00  0.00    +0.000 C 
BRANCH  12  14
ATOM     13  C   UNL     1       1.064   3.175  20.821  0.00  0.00    +0.000 C 
ATOM     14  C   UNL     1       2.481   3.030  21.345  0.00  0.00    +0.000 C 
ENDBRANCH  12  14
ENDBRANCH  11  12
ENDBRANCH  10  11
ENDBRANCH   9  10
ENDBRANCH   8   9
ENDBRANCH   7   8
ENDBRANCH   1   7
BRANCH   4  15
ATOM     15  O   UNL     1       0.997   9.344  19.464  0.00  0.00    +0.000 OA
BRANCH  15  16
ATOM     16  C   UNL     1       0.638  10.167  18.338  0.00  0.00    +0.000 C 
BRANCH  16  17
ATOM     17  C   UNL     1      -0.022  11.474  18.775  0.00  0.00    +0.000 C 
BRANCH  17  18
ATOM     18  O   UNL     1       0.566  12.573  18.075  0.00  0.00    +0.000 OA
ATOM     19  H   UNL     1       0.387  12.418  17.131  0.00  0.00    +0.000 HD
ENDBRANCH  17  18
BRANCH  17  20
ATOM     20  C   UNL     1      -1.540  11.456  18.543  0.00  0.00    +0.000 C 
BRANCH  20  21
ATOM     21  N   UNL     1      -1.897  11.952  17.212  0.00  0.00    +0.000 NA
ATOM     22  H   UNL     1      -1.090  11.872  16.592  0.00  0.00    +0.000 HD
BRANCH  21  23
ATOM     23  C   UNL     1      -3.038  11.252  16.613  0.00  0.00    +0.000 C 
ATOM     24  C   UNL     1      -2.670   9.857  16.099  0.00  0.00    +0.000 C 
ATOM     25  C   UNL     1      -4.128  11.129  17.680  0.00  0.00    +0.000 C 
ENDBRANCH  21  23
ENDBRANCH  20  21
ENDBRANCH  17  20
ENDBRANCH  16  17
ENDBRANCH  15  16
ENDBRANCH   4  15
TORSDOF 14
ENDMDL
MODEL 9
REMARK VINA RESULT:      -5.7      4.403      8.231
REMARK  Name = 
REMARK  17 active torsions:
REMARK  status: ('A' for Active; 'I' for Inactive)
REMARK    1  A    between atoms: C_1  and  C_2
REMARK    2  A    between atoms: C_2  and  C_3
REMARK    3  A    between atoms: C_3  and  O_4
REMARK    4  A    between atoms: O_4  and  C_5
REMARK    5  A    between atoms: C_5  and  O_6
REMARK    6  A    between atoms: O_6  and  C_7
REMARK    7  A    between atoms: C_7  and  C_8
REMARK    8  A    between atoms: C_8  and  C_9
REMARK    9  A    between atoms: C_12  and  O_13
REMARK   10  A    between atoms: O_13  and  C_14
REMARK   11  A    between atoms: C_14  and  C_15
REMARK   12  A    between atoms: C_15  and  O_16
REMARK   13  A    between atoms: C_15  and  C_17
REMARK   14  A    between atoms: C_17  and  N_18
REMARK   15  A    between atoms: N_18  and  C_19
REMARK   16  A    between atoms: C_19  and  C_20
REMARK   17  A    between atoms: C_19  and  C_21
REMARK                            x       y       z     vdW  Elec       q    Type
REMARK                         _______ _______ _______ _____ _____    ______ ____
ROOT
ATOM      1  C   UNL     1       1.552   9.180  19.192  0.00  0.00    +0.000 A 
ATOM      2  C   UNL     1       2.093   8.993  17.922  0.00  0.00    +0.000 A 
ATOM      3  C   UNL     1       2.695   7.793  17.581  0.00  0.00    +0.000 A 
ATOM      4  C   UNL     1       2.790   6.750  18.505  0.00  0.00    +0.000 A 
ATOM      5  C   UNL     1       2.246   6.926  19.784  0.00  0.00    +0.000 A 
ATOM      6  C   UNL     1       1.627   8.135  20.124  0.00  0.00    +0.000 A 
ENDROOT
BRANCH   1   7
ATOM      7  C   UNL     1       0.892  10.496  19.503  0.00  0.00    +0.000 C 
BRANCH   7   8
ATOM      8  C   UNL     1      -0.506  10.298  20.089  0.00  0.00    +0.000 C 
BRANCH   8   9
ATOM      9  O   UNL     1      -1.453  10.247  19.023  0.00  0.00    +0.000 OA
BRANCH   9  10
ATOM     10  C   UNL     1      -1.565  11.510  18.375  0.00  0.00    +0.000 C 
BRANCH  10  11
ATOM     11  O   UNL     1      -2.519  11.505  17.319  0.00  0.00    +0.000 OA
BRANCH  11  12
ATOM     12  C   UNL     1      -3.168  10.240  17.215  0.00  0.00    +0.000 C 
BRANCH  12  14
ATOM     13  C   UNL     1      -3.265  10.451  14.726  0.00  0.00    +0.000 C 
ATOM     14  C   UNL     1      -2.780   9.605  15.890  0.00  0.00    +0.000 C 
ENDBRANCH  12  14
ENDBRANCH  11  12
ENDBRANCH  10  11
ENDBRANCH   9  10
ENDBRANCH   8   9
ENDBRANCH   7   8
ENDBRANCH   1   7
BRANCH   4  15
ATOM     15  O   UNL     1       3.407   5.550  18.234  0.00  0.00    +0.000 OA
BRANCH  15  16
ATOM     16  C   UNL     1       3.756   4.806  19.417  0.00  0.00    +0.000 C 
BRANCH  16  17
ATOM     17  C   UNL     1       5.175   4.245  19.339  0.00  0.00    +0.000 C 
BRANCH  17  18
ATOM     18  O   UNL     1       5.129   2.819  19.241  0.00  0.00    +0.000 OA
ATOM     19  H   UNL     1       4.582   2.620  18.462  0.00  0.00    +0.000 HD
ENDBRANCH  17  18
BRANCH  17  20
ATOM     20  C   UNL     1       5.958   4.827  18.154  0.00  0.00    +0.000 C 
BRANCH  20  21
ATOM     21  N   UNL     1       5.771   4.039  16.933  0.00  0.00    +0.000 NA
ATOM     22  H   UNL     1       4.781   3.816  16.822  0.00  0.00    +0.000 HD
BRANCH  21  23
ATOM     23  C   UNL     1       6.254   4.711  15.723  0.00  0.00    +0.000 C 
ATOM     24  C   UNL     1       6.113   3.843  14.470  0.00  0.00    +0.000 C 
ATOM     25  C   UNL     1       5.446   5.998  15.543  0.00  0.00    +0.000 C 
ENDBRANCH  21  23
ENDBRANCH  20  21
ENDBRANCH  17  20
ENDBRANCH  16  17
ENDBRANCH  15  16
ENDBRANCH   4  15
TORSDOF 14
ENDMDL
