MODEL 1
REMARK VINA RESULT:      -7.7      0.000      0.000
REMARK  Name = 
REMARK  6 active torsions:
REMARK  status: ('A' for Active; 'I' for Inactive)
REMARK    1  A    between atoms: C_1  and  S_2
REMARK    2  A    between atoms: S_2  and  C_5
REMARK    3  A    between atoms: C_5  and  C_7
REMARK    4  A    between atoms: C_9  and  C_10
REMARK    5  A    between atoms: C_13  and  N_14
REMARK    6  A    between atoms: C_16  and  C_17
REMARK                            x       y       z     vdW  Elec       q    Type
REMARK                         _______ _______ _______ _____ _____    ______ ____
ROOT
ATOM      1  C   UNL     1       4.103   6.780  17.739  0.00  0.00    +0.000 A 
ATOM      2  C   UNL     1       3.470   7.773  18.455  0.00  0.00    +0.000 A 
ATOM      3  C   UNL     1       2.469   7.380  19.319  0.00  0.00    +0.000 A 
ATOM      4  N   UNL     1       2.170   6.082  19.489  0.00  0.00    +0.000 NA
ATOM      5  C   UNL     1       2.922   5.153  18.883  0.00  0.00    +0.000 A 
ATOM      6  N   UNL     1       2.752   3.842  19.228  0.00  0.00    +0.000 N 
ATOM      7  C   UNL     1       3.567   2.772  18.658  0.00  0.00    +0.000 C 
ATOM      8  C   UNL     1       2.659   1.785  17.908  0.00  0.00    +0.000 C 
ATOM      9  O   UNL     1       1.596   1.301  18.750  0.00  0.00    +0.000 OA
ATOM     10  C   UNL     1       0.788   2.395  19.222  0.00  0.00    +0.000 C 
ATOM     11  C   UNL     1       1.614   3.401  20.038  0.00  0.00    +0.000 C 
ATOM     12  N   UNL     1       3.862   5.474  17.986  0.00  0.00    +0.000 NA
ENDROOT
BRANCH   3  13
ATOM     13  C   UNL     1       1.646   8.340  20.076  0.00  0.00    +0.000 A 
ATOM     14  C   UNL     1       1.563   8.228  21.472  0.00  0.00    +0.000 A 
ATOM     15  N   UNL     1       0.847   9.033  22.299  0.00  0.00    +0.000 NA
ATOM     16  C   UNL     1       0.183  10.045  21.740  0.00  0.00    +0.000 A 
ATOM     17  C   UNL     1       0.211  10.277  20.379  0.00  0.00    +0.000 A 
ATOM     18  C   UNL     1       0.922   9.411  19.514  0.00  0.00    +0.000 A 
BRANCH  18  19
ATOM     19  C   UNL     1       0.826   9.750  18.045  0.00  0.00    +0.000 C 
ATOM     20  F   UNL     1       0.647   8.729  17.171  0.00  0.00    +0.000 F 
ATOM     21  F   UNL     1      -0.251  10.569  17.812  0.00  0.00    +0.000 F 
ATOM     22  F   UNL     1       1.903  10.460  17.606  0.00  0.00    +0.000 F 
ENDBRANCH  18  19
BRANCH  16  23
ATOM     23  N   UNL     1      -0.509  10.893  22.593  0.00  0.00    +0.000 N 
ATOM     24  H   UNL     1      -0.911  11.631  22.021  0.00  0.00    +0.000 HD
ATOM     25  H   UNL     1       0.083  11.264  23.326  0.00  0.00    +0.000 HD
ENDBRANCH  16  23
ENDBRANCH   3  13
BRANCH   1  26
ATOM     26  C   UNL     1       5.106   7.101  16.661  0.00  0.00    +0.000 C 
ATOM     27  F   UNL     1       4.827   6.500  15.465  0.00  0.00    +0.000 F 
BRANCH  26  29
ATOM     28  C   UNL     1       7.525   8.169  17.539  0.00  0.00    +0.000 C 
ATOM     29  S   UNL     1       6.728   6.608  17.282  0.00  0.00    +0.000 S 
ATOM     30  O   UNL     1       7.467   5.923  16.231  0.00  0.00    +0.000 OA
ATOM     31  O   UNL     1       6.588   5.995  18.591  0.00  0.00    +0.000 OA
ENDBRANCH  26  29
ENDBRANCH   1  26
TORSDOF 5
ENDMDL
MODEL 2
REMARK VINA RESULT:      -7.7      2.853      5.695
REMARK  Name = 
REMARK  6 active torsions:
REMARK  status: ('A' for Active; 'I' for Inactive)
REMARK    1  A    between atoms: C_1  and  S_2
REMARK    2  A    between atoms: S_2  and  C_5
REMARK    3  A    between atoms: C_5  and  C_7
REMARK    4  A    between atoms: C_9  and  C_10
REMARK    5  A    between atoms: C_13  and  N_14
REMARK    6  A    between atoms: C_16  and  C_17
REMARK                            x       y       z     vdW  Elec       q    Type
REMARK                         _______ _______ _______ _____ _____    ______ ____
ROOT
ATOM      1  C   UNL     1       4.057   6.789  17.351  0.00  0.00    +0.000 A 
ATOM      2  C   UNL     1       3.700   5.646  18.031  0.00  0.00    +0.000 A 
ATOM      3  C   UNL     1       2.737   5.777  19.011  0.00  0.00    +0.000 A 
ATOM      4  N   UNL     1       2.142   6.958  19.246  0.00  0.00    +0.000 NA
ATOM      5  C   UNL     1       2.420   7.999  18.450  0.00  0.00    +0.000 A 
ATOM      6  N   UNL     1       1.659   9.129  18.554  0.00  0.00    +0.000 N 
ATOM      7  C   UNL     1       1.856  10.288  17.688  0.00  0.00    +0.000 C 
ATOM      8  C   UNL     1       2.223  11.508  18.548  0.00  0.00    +0.000 C 
ATOM      9  O   UNL     1       1.250  11.735  19.585  0.00  0.00    +0.000 OA
ATOM     10  C   UNL     1       1.153  10.584  20.445  0.00  0.00    +0.000 C 
ATOM     11  C   UNL     1       0.729   9.329  19.669  0.00  0.00    +0.000 C 
ATOM     12  N   UNL     1       3.389   7.950  17.527  0.00  0.00    +0.000 NA
ENDROOT
BRANCH   3  13
ATOM     13  C   UNL     1       2.326   4.659  19.879  0.00  0.00    +0.000 A 
ATOM     14  C   UNL     1       2.574   4.729  21.259  0.00  0.00    +0.000 A 
ATOM     15  N   UNL     1       2.257   3.782  22.178  0.00  0.00    +0.000 NA
ATOM     16  C   UNL     1       1.623   2.693  21.739  0.00  0.00    +0.000 A 
ATOM     17  C   UNL     1       1.298   2.523  20.408  0.00  0.00    +0.000 A 
ATOM     18  C   UNL     1       1.668   3.491  19.445  0.00  0.00    +0.000 A 
BRANCH  18  19
ATOM     19  C   UNL     1       1.296   3.153  18.020  0.00  0.00    +0.000 C 
ATOM     20  F   UNL     1       2.253   2.610  17.228  0.00  0.00    +0.000 F 
ATOM     21  F   UNL     1       0.288   2.221  17.995  0.00  0.00    +0.000 F 
ATOM     22  F   UNL     1       0.793   4.227  17.348  0.00  0.00    +0.000 F 
ENDBRANCH  18  19
BRANCH  16  23
ATOM     23  N   UNL     1       1.259   1.750  22.689  0.00  0.00    +0.000 N 
ATOM     24  H   UNL     1       1.872   1.878  23.490  0.00  0.00    +0.000 HD
ATOM     25  H   UNL     1       1.303   0.805  22.326  0.00  0.00    +0.000 HD
ENDBRANCH  16  23
ENDBRANCH   3  13
BRANCH   1  26
ATOM     26  C   UNL     1       5.197   6.797  16.365  0.00  0.00    +0.000 C 
ATOM     27  F   UNL     1       4.991   5.975  15.291  0.00  0.00    +0.000 F 
BRANCH  26  29
ATOM     28  C   UNL     1       7.016   4.705  16.648  0.00  0.00    +0.000 C 
ATOM     29  S   UNL     1       6.687   6.330  17.274  0.00  0.00    +0.000 S 
ATOM     30  O   UNL     1       6.371   6.183  18.688  0.00  0.00    +0.000 OA
ATOM     31  O   UNL     1       7.798   7.166  16.858  0.00  0.00    +0.000 OA
ENDBRANCH  26  29
ENDBRANCH   1  26
TORSDOF 5
ENDMDL
MODEL 3
REMARK VINA RESULT:      -7.6      2.108      4.356
REMARK  Name = 
REMARK  6 active torsions:
REMARK  status: ('A' for Active; 'I' for Inactive)
REMARK    1  A    between atoms: C_1  and  S_2
REMARK    2  A    between atoms: S_2  and  C_5
REMARK    3  A    between atoms: C_5  and  C_7
REMARK    4  A    between atoms: C_9  and  C_10
REMARK    5  A    between atoms: C_13  and  N_14
REMARK    6  A    between atoms: C_16  and  C_17
REMARK                            x       y       z     vdW  Elec       q    Type
REMARK                         _______ _______ _______ _____ _____    ______ ____
ROOT
ATOM      1  C   UNL     1       2.567   4.683  19.810  0.00  0.00    +0.000 A 
ATOM      2  C   UNL     1       1.833   5.766  20.242  0.00  0.00    +0.000 A 
ATOM      3  C   UNL     1       2.266   7.014  19.844  0.00  0.00    +0.000 A 
ATOM      4  N   UNL     1       3.324   7.153  19.028  0.00  0.00    +0.000 NA
ATOM      5  C   UNL     1       3.904   6.059  18.517  0.00  0.00    +0.000 A 
ATOM      6  N   UNL     1       4.832   6.208  17.526  0.00  0.00    +0.000 N 
ATOM      7  C   UNL     1       5.471   5.068  16.875  0.00  0.00    +0.000 C 
ATOM      8  C   UNL     1       6.989   5.135  17.107  0.00  0.00    +0.000 C 
ATOM      9  O   UNL     1       7.531   6.402  16.691  0.00  0.00    +0.000 OA
ATOM     10  C   UNL     1       6.912   7.479  17.418  0.00  0.00    +0.000 C 
ATOM     11  C   UNL     1       5.393   7.520  17.190  0.00  0.00    +0.000 C 
ATOM     12  N   UNL     1       3.569   4.825  18.915  0.00  0.00    +0.000 NA
ENDROOT
BRANCH   3  13
ATOM     13  C   UNL     1       1.634   8.262  20.307  0.00  0.00    +0.000 A 
ATOM     14  C   UNL     1       1.513   8.506  21.684  0.00  0.00    +0.000 A 
ATOM     15  N   UNL     1       0.956   9.604  22.257  0.00  0.00    +0.000 NA
ATOM     16  C   UNL     1       0.505  10.556  21.439  0.00  0.00    +0.000 A 
ATOM     17  C   UNL     1       0.594  10.444  20.066  0.00  0.00    +0.000 A 
ATOM     18  C   UNL     1       1.136   9.281  19.470  0.00  0.00    +0.000 A 
BRANCH  18  19
ATOM     19  C   UNL     1       1.125   9.269  17.959  0.00  0.00    +0.000 C 
ATOM     20  F   UNL     1       1.104   8.065  17.336  0.00  0.00    +0.000 F 
ATOM     21  F   UNL     1       0.002   9.900  17.483  0.00  0.00    +0.000 F 
ATOM     22  F   UNL     1       2.167   9.968  17.428  0.00  0.00    +0.000 F 
ENDBRANCH  18  19
BRANCH  16  23
ATOM     23  N   UNL     1      -0.020  11.697  22.029  0.00  0.00    +0.000 N 
ATOM     24  H   UNL     1       0.719  12.112  22.590  0.00  0.00    +0.000 HD
ATOM     25  H   UNL     1      -0.846  11.496  22.580  0.00  0.00    +0.000 HD
ENDBRANCH  16  23
ENDBRANCH   3  13
BRANCH   1  26
ATOM     26  C   UNL     1       2.277   3.287  20.299  0.00  0.00    +0.000 C 
ATOM     27  F   UNL     1       3.326   2.719  20.969  0.00  0.00    +0.000 F 
BRANCH  26  29
ATOM     28  C   UNL     1       3.344   1.545  18.405  0.00  0.00    +0.000 C 
ATOM     29  S   UNL     1       1.809   2.306  18.857  0.00  0.00    +0.000 S 
ATOM     30  O   UNL     1       1.437   3.192  17.763  0.00  0.00    +0.000 OA
ATOM     31  O   UNL     1       0.918   1.233  19.261  0.00  0.00    +0.000 OA
ENDBRANCH  26  29
ENDBRANCH   1  26
TORSDOF 5
ENDMDL
MODEL 4
REMARK VINA RESULT:      -7.5      2.085      2.511
REMARK  Name = 
REMARK  6 active torsions:
REMARK  status: ('A' for Active; 'I' for Inactive)
REMARK    1  A    between atoms: C_1  and  S_2
REMARK    2  A    between atoms: S_2  and  C_5
REMARK    3  A    between atoms: C_5  and  C_7
REMARK    4  A    between atoms: C_9  and  C_10
REMARK    5  A    between atoms: C_13  and  N_14
REMARK    6  A    between atoms: C_16  and  C_17
REMARK                            x       y       z     vdW  Elec       q    Type
REMARK                         _______ _______ _______ _____ _____    ______ ____
ROOT
ATOM      1  C   UNL     1       4.163   6.691  17.328  0.00  0.00    +0.000 A 
ATOM      2  C   UNL     1       3.511   7.859  17.657  0.00  0.00    +0.000 A 
ATOM      3  C   UNL     1       2.446   7.757  18.528  0.00  0.00    +0.000 A 
ATOM      4  N   UNL     1       2.102   6.576  19.067  0.00  0.00    +0.000 NA
ATOM      5  C   UNL     1       2.866   5.501  18.830  0.00  0.00    +0.000 A 
ATOM      6  N   UNL     1       2.639   4.361  19.547  0.00  0.00    +0.000 N 
ATOM      7  C   UNL     1       3.460   3.163  19.392  0.00  0.00    +0.000 C 
ATOM      8  C   UNL     1       2.576   1.998  18.919  0.00  0.00    +0.000 C 
ATOM      9  O   UNL     1       1.448   1.803  19.792  0.00  0.00    +0.000 OA
ATOM     10  C   UNL     1       0.641   2.994  19.847  0.00  0.00    +0.000 C 
ATOM     11  C   UNL     1       1.438   4.197  20.371  0.00  0.00    +0.000 C 
ATOM     12  N   UNL     1       3.872   5.525  17.945  0.00  0.00    +0.000 NA
ENDROOT
BRANCH   3  13
ATOM     13  C   UNL     1       1.602   8.908  18.894  0.00  0.00    +0.000 A 
ATOM     14  C   UNL     1       1.369   9.921  17.951  0.00  0.00    +0.000 A 
ATOM     15  N   UNL     1       0.618  11.036  18.143  0.00  0.00    +0.000 NA
ATOM     16  C   UNL     1       0.021  11.173  19.327  0.00  0.00    +0.000 A 
ATOM     17  C   UNL     1       0.152  10.229  20.327  0.00  0.00    +0.000 A 
ATOM     18  C   UNL     1       0.969   9.089  20.140  0.00  0.00    +0.000 A 
BRANCH  18  19
ATOM     19  C   UNL     1       1.064   8.166  21.332  0.00  0.00    +0.000 C 
ATOM     20  F   UNL     1       2.269   7.609  21.607  0.00  0.00    +0.000 F 
ATOM     21  F   UNL     1       0.747   8.839  22.486  0.00  0.00    +0.000 F 
ATOM     22  F   UNL     1       0.164   7.144  21.268  0.00  0.00    +0.000 F 
ENDBRANCH  18  19
BRANCH  16  23
ATOM     23  N   UNL     1      -0.782  12.291  19.502  0.00  0.00    +0.000 N 
ATOM     24  H   UNL     1      -1.056  12.313  20.481  0.00  0.00    +0.000 HD
ATOM     25  H   UNL     1      -1.585  12.285  18.885  0.00  0.00    +0.000 HD
ENDBRANCH  16  23
ENDBRANCH   3  13
BRANCH   1  26
ATOM     26  C   UNL     1       5.242   6.659  16.277  0.00  0.00    +0.000 C 
ATOM     27  F   UNL     1       4.993   5.766  15.270  0.00  0.00    +0.000 F 
BRANCH  26  29
ATOM     28  C   UNL     1       7.128   4.630  16.573  0.00  0.00    +0.000 C 
ATOM     29  S   UNL     1       6.793   6.281  17.121  0.00  0.00    +0.000 S 
ATOM     30  O   UNL     1       6.564   6.213  18.557  0.00  0.00    +0.000 OA
ATOM     31  O   UNL     1       7.857   7.115  16.591  0.00  0.00    +0.000 OA
ENDBRANCH  26  29
ENDBRANCH   1  26
TORSDOF 5
ENDMDL
MODEL 5
REMARK VINA RESULT:      -7.4      2.927      4.897
REMARK  Name = 
REMARK  6 active torsions:
REMARK  status: ('A' for Active; 'I' for Inactive)
REMARK    1  A    between atoms: C_1  and  S_2
REMARK    2  A    between atoms: S_2  and  C_5
REMARK    3  A    between atoms: C_5  and  C_7
REMARK    4  A    between atoms: C_9  and  C_10
REMARK    5  A    between atoms: C_13  and  N_14
REMARK    6  A    between atoms: C_16  and  C_17
REMARK                            x       y       z     vdW  Elec       q    Type
REMARK                         _______ _______ _______ _____ _____    ______ ____
ROOT
ATOM      1  C   UNL     1       2.255   5.200  19.355  0.00  0.00    +0.000 A 
ATOM      2  C   UNL     1       1.609   6.414  19.439  0.00  0.00    +0.000 A 
ATOM      3  C   UNL     1       2.284   7.516  18.956  0.00  0.00    +0.000 A 
ATOM      4  N   UNL     1       3.492   7.393  18.383  0.00  0.00    +0.000 NA
ATOM      5  C   UNL     1       4.003   6.169  18.190  0.00  0.00    +0.000 A 
ATOM      6  N   UNL     1       5.122   6.037  17.418  0.00  0.00    +0.000 N 
ATOM      7  C   UNL     1       5.711   4.737  17.112  0.00  0.00    +0.000 C 
ATOM      8  C   UNL     1       7.146   4.687  17.660  0.00  0.00    +0.000 C 
ATOM      9  O   UNL     1       7.934   5.793  17.181  0.00  0.00    +0.000 OA
ATOM     10  C   UNL     1       7.339   7.043  17.575  0.00  0.00    +0.000 C 
ATOM     11  C   UNL     1       5.918   7.199  17.013  0.00  0.00    +0.000 C 
ATOM     12  N   UNL     1       3.425   5.071  18.693  0.00  0.00    +0.000 NA
ENDROOT
BRANCH   3  13
ATOM     13  C   UNL     1       1.754   8.888  19.066  0.00  0.00    +0.000 A 
ATOM     14  C   UNL     1       1.912   9.777  17.992  0.00  0.00    +0.000 A 
ATOM     15  N   UNL     1       1.481  11.064  17.949  0.00  0.00    +0.000 NA
ATOM     16  C   UNL     1       0.821  11.522  19.013  0.00  0.00    +0.000 A 
ATOM     17  C   UNL     1       0.577  10.733  20.120  0.00  0.00    +0.000 A 
ATOM     18  C   UNL     1       1.065   9.406  20.180  0.00  0.00    +0.000 A 
BRANCH  18  19
ATOM     19  C   UNL     1       0.773   8.674  21.470  0.00  0.00    +0.000 C 
ATOM     20  F   UNL     1       1.747   7.884  21.983  0.00  0.00    +0.000 F 
ATOM     21  F   UNL     1       0.513   9.567  22.480  0.00  0.00    +0.000 F 
ATOM     22  F   UNL     1      -0.351   7.908  21.387  0.00  0.00    +0.000 F 
ENDBRANCH  18  19
BRANCH  16  23
ATOM     23  N   UNL     1       0.341  12.823  18.945  0.00  0.00    +0.000 N 
ATOM     24  H   UNL     1      -0.077  13.036  19.847  0.00  0.00    +0.000 HD
ATOM     25  H   UNL     1      -0.316  12.949  18.184  0.00  0.00    +0.000 HD
ENDBRANCH  16  23
ENDBRANCH   3  13
BRANCH   1  26
ATOM     26  C   UNL     1       1.679   3.956  19.981  0.00  0.00    +0.000 C 
ATOM     27  F   UNL     1       2.513   3.375  20.897  0.00  0.00    +0.000 F 
BRANCH  26  29
ATOM     28  C   UNL     1       2.707   1.759  18.610  0.00  0.00    +0.000 C 
ATOM     29  S   UNL     1       1.287   2.818  18.635  0.00  0.00    +0.000 S 
ATOM     30  O   UNL     1       1.275   3.541  17.371  0.00  0.00    +0.000 OA
ATOM     31  O   UNL     1       0.157   1.986  19.008  0.00  0.00    +0.000 OA
ENDBRANCH  26  29
ENDBRANCH   1  26
TORSDOF 5
ENDMDL
MODEL 6
REMARK VINA RESULT:      -7.4      1.959      2.321
REMARK  Name = 
REMARK  6 active torsions:
REMARK  status: ('A' for Active; 'I' for Inactive)
REMARK    1  A    between atoms: C_1  and  S_2
REMARK    2  A    between atoms: S_2  and  C_5
REMARK    3  A    between atoms: C_5  and  C_7
REMARK    4  A    between atoms: C_9  and  C_10
REMARK    5  A    between atoms: C_13  and  N_14
REMARK    6  A    between atoms: C_16  and  C_17
REMARK                            x       y       z     vdW  Elec       q    Type
REMARK                         _______ _______ _______ _____ _____    ______ ____
ROOT
ATOM      1  C   UNL     1       4.148   6.873  17.427  0.00  0.00    +0.000 A 
ATOM      2  C   UNL     1       3.392   7.976  17.757  0.00  0.00    +0.000 A 
ATOM      3  C   UNL     1       2.268   7.757  18.527  0.00  0.00    +0.000 A 
ATOM      4  N   UNL     1       1.963   6.528  18.974  0.00  0.00    +0.000 NA
ATOM      5  C   UNL     1       2.817   5.520  18.749  0.00  0.00    +0.000 A 
ATOM      6  N   UNL     1       2.611   4.329  19.386  0.00  0.00    +0.000 N 
ATOM      7  C   UNL     1       3.523   3.198  19.243  0.00  0.00    +0.000 C 
ATOM      8  C   UNL     1       2.765   2.006  18.637  0.00  0.00    +0.000 C 
ATOM      9  O   UNL     1       1.585   1.689  19.398  0.00  0.00    +0.000 OA
ATOM     10  C   UNL     1       0.695   2.820  19.443  0.00  0.00    +0.000 C 
ATOM     11  C   UNL     1       1.361   4.042  20.094  0.00  0.00    +0.000 C 
ATOM     12  N   UNL     1       3.888   5.659  17.958  0.00  0.00    +0.000 NA
ENDROOT
BRANCH   3  13
ATOM     13  C   UNL     1       1.318   8.829  18.876  0.00  0.00    +0.000 A 
ATOM     14  C   UNL     1       0.850   9.690  17.872  0.00  0.00    +0.000 A 
ATOM     15  N   UNL     1      -0.021  10.718  18.041  0.00  0.00    +0.000 NA
ATOM     16  C   UNL     1      -0.501  10.914  19.270  0.00  0.00    +0.000 A 
ATOM     17  C   UNL     1      -0.137  10.114  20.335  0.00  0.00    +0.000 A 
ATOM     18  C   UNL     1       0.803   9.071  20.165  0.00  0.00    +0.000 A 
BRANCH  18  19
ATOM     19  C   UNL     1       1.150   8.309  21.423  0.00  0.00    +0.000 C 
ATOM     20  F   UNL     1       2.442   8.320  21.833  0.00  0.00    +0.000 F 
ATOM     21  F   UNL     1       0.464   8.819  22.497  0.00  0.00    +0.000 F 
ATOM     22  F   UNL     1       0.770   7.002  21.357  0.00  0.00    +0.000 F 
ENDBRANCH  18  19
BRANCH  16  23
ATOM     23  N   UNL     1      -1.427  11.936  19.429  0.00  0.00    +0.000 N 
ATOM     24  H   UNL     1      -1.880  12.074  18.529  0.00  0.00    +0.000 HD
ATOM     25  H   UNL     1      -1.000  12.788  19.771  0.00  0.00    +0.000 HD
ENDBRANCH  16  23
ENDBRANCH   3  13
BRANCH   1  26
ATOM     26  C   UNL     1       5.311   6.971  16.473  0.00  0.00    +0.000 C 
ATOM     27  F   UNL     1       5.124   6.262  15.317  0.00  0.00    +0.000 F 
BRANCH  26  29
ATOM     28  C   UNL     1       7.711   7.897  17.542  0.00  0.00    +0.000 C 
ATOM     29  S   UNL     1       6.776   6.403  17.363  0.00  0.00    +0.000 S 
ATOM     30  O   UNL     1       7.553   5.516  16.508  0.00  0.00    +0.000 OA
ATOM     31  O   UNL     1       6.405   5.984  18.702  0.00  0.00    +0.000 OA
ENDBRANCH  26  29
ENDBRANCH   1  26
TORSDOF 5
ENDMDL
MODEL 7
REMARK VINA RESULT:      -7.3      3.008      4.859
REMARK  Name = 
REMARK  6 active torsions:
REMARK  status: ('A' for Active; 'I' for Inactive)
REMARK    1  A    between atoms: C_1  and  S_2
REMARK    2  A    between atoms: S_2  and  C_5
REMARK    3  A    between atoms: C_5  and  C_7
REMARK    4  A    between atoms: C_9  and  C_10
REMARK    5  A    between atoms: C_13  and  N_14
REMARK    6  A    between atoms: C_16  and  C_17
REMARK                            x       y       z     vdW  Elec       q    Type
REMARK                         _______ _______ _______ _____ _____    ______ ____
ROOT
ATOM      1  C   UNL     1       2.144   4.882  19.007  0.00  0.00    +0.000 A 
ATOM      2  C   UNL     1       1.536   6.108  19.164  0.00  0.00    +0.000 A 
ATOM      3  C   UNL     1       2.247   7.216  18.755  0.00  0.00    +0.000 A 
ATOM      4  N   UNL     1       3.455   7.092  18.180  0.00  0.00    +0.000 NA
ATOM      5  C   UNL     1       3.929   5.867  17.913  0.00  0.00    +0.000 A 
ATOM      6  N   UNL     1       5.048   5.749  17.139  0.00  0.00    +0.000 N 
ATOM      7  C   UNL     1       5.599   4.453  16.754  0.00  0.00    +0.000 C 
ATOM      8  C   UNL     1       7.028   4.324  17.304  0.00  0.00    +0.000 C 
ATOM      9  O   UNL     1       7.852   5.433  16.898  0.00  0.00    +0.000 OA
ATOM     10  C   UNL     1       7.294   6.674  17.368  0.00  0.00    +0.000 C 
ATOM     11  C   UNL     1       5.882   6.909  16.811  0.00  0.00    +0.000 C 
ATOM     12  N   UNL     1       3.314   4.758  18.343  0.00  0.00    +0.000 NA
ENDROOT
BRANCH   3  13
ATOM     13  C   UNL     1       1.760   8.594  18.949  0.00  0.00    +0.000 A 
ATOM     14  C   UNL     1       1.895   9.527  17.910  0.00  0.00    +0.000 A 
ATOM     15  N   UNL     1       1.497  10.825  17.943  0.00  0.00    +0.000 NA
ATOM     16  C   UNL     1       0.895  11.250  19.053  0.00  0.00    +0.000 A 
ATOM     17  C   UNL     1       0.677  10.418  20.134  0.00  0.00    +0.000 A 
ATOM     18  C   UNL     1       1.131   9.077  20.114  0.00  0.00    +0.000 A 
BRANCH  18  19
ATOM     19  C   UNL     1       0.874   8.294  21.381  0.00  0.00    +0.000 C 
ATOM     20  F   UNL     1       1.819   7.408  21.779  0.00  0.00    +0.000 F 
ATOM     21  F   UNL     1       0.754   9.143  22.453  0.00  0.00    +0.000 F 
ATOM     22  F   UNL     1      -0.308   7.618  21.340  0.00  0.00    +0.000 F 
ENDBRANCH  18  19
BRANCH  16  23
ATOM     23  N   UNL     1       0.448  12.564  19.065  0.00  0.00    +0.000 N 
ATOM     24  H   UNL     1       1.249  13.152  19.277  0.00  0.00    +0.000 HD
ATOM     25  H   UNL     1      -0.309  12.705  19.723  0.00  0.00    +0.000 HD
ENDBRANCH  16  23
ENDBRANCH   3  13
BRANCH   1  26
ATOM     26  C   UNL     1       1.527   3.619  19.550  0.00  0.00    +0.000 C 
ATOM     27  F   UNL     1       0.163   3.677  19.637  0.00  0.00    +0.000 F 
BRANCH  26  29
ATOM     28  C   UNL     1       3.728   2.393  20.740  0.00  0.00    +0.000 C 
ATOM     29  S   UNL     1       2.276   3.315  21.165  0.00  0.00    +0.000 S 
ATOM     30  O   UNL     1       1.422   2.426  21.941  0.00  0.00    +0.000 OA
ATOM     31  O   UNL     1       2.734   4.568  21.738  0.00  0.00    +0.000 OA
ENDBRANCH  26  29
ENDBRANCH   1  26
TORSDOF 5
ENDMDL
MODEL 8
REMARK VINA RESULT:      -7.3      2.753      5.582
REMARK  Name = 
REMARK  6 active torsions:
REMARK  status: ('A' for Active; 'I' for Inactive)
REMARK    1  A    between atoms: C_1  and  S_2
REMARK    2  A    between atoms: S_2  and  C_5
REMARK    3  A    between atoms: C_5  and  C_7
REMARK    4  A    between atoms: C_9  and  C_10
REMARK    5  A    between atoms: C_13  and  N_14
REMARK    6  A    between atoms: C_16  and  C_17
REMARK                            x       y       z     vdW  Elec       q    Type
REMARK                         _______ _______ _______ _____ _____    ______ ____
ROOT
ATOM      1  C   UNL     1       4.103   6.872  17.417  0.00  0.00    +0.000 A 
ATOM      2  C   UNL     1       3.744   5.722  18.085  0.00  0.00    +0.000 A 
ATOM      3  C   UNL     1       2.753   5.835  19.038  0.00  0.00    +0.000 A 
ATOM      4  N   UNL     1       2.135   7.007  19.259  0.00  0.00    +0.000 NA
ATOM      5  C   UNL     1       2.419   8.054  18.473  0.00  0.00    +0.000 A 
ATOM      6  N   UNL     1       1.638   9.172  18.559  0.00  0.00    +0.000 N 
ATOM      7  C   UNL     1       1.842  10.336  17.702  0.00  0.00    +0.000 C 
ATOM      8  C   UNL     1       2.166  11.559  18.574  0.00  0.00    +0.000 C 
ATOM      9  O   UNL     1       1.162  11.769  19.584  0.00  0.00    +0.000 OA
ATOM     10  C   UNL     1       1.059  10.615  20.438  0.00  0.00    +0.000 C 
ATOM     11  C   UNL     1       0.675   9.355  19.649  0.00  0.00    +0.000 C 
ATOM     12  N   UNL     1       3.413   8.022  17.577  0.00  0.00    +0.000 NA
ENDROOT
BRANCH   3  13
ATOM     13  C   UNL     1       2.335   4.709  19.892  0.00  0.00    +0.000 A 
ATOM     14  C   UNL     1       2.598   4.753  21.270  0.00  0.00    +0.000 A 
ATOM     15  N   UNL     1       2.276   3.795  22.177  0.00  0.00    +0.000 NA
ATOM     16  C   UNL     1       1.624   2.723  21.727  0.00  0.00    +0.000 A 
ATOM     17  C   UNL     1       1.283   2.579  20.397  0.00  0.00    +0.000 A 
ATOM     18  C   UNL     1       1.657   3.558  19.446  0.00  0.00    +0.000 A 
BRANCH  18  19
ATOM     19  C   UNL     1       1.266   3.248  18.019  0.00  0.00    +0.000 C 
ATOM     20  F   UNL     1       0.255   2.369  17.816  0.00  0.00    +0.000 F 
ATOM     21  F   UNL     1       0.839   4.386  17.381  0.00  0.00    +0.000 F 
ATOM     22  F   UNL     1       2.322   2.810  17.277  0.00  0.00    +0.000 F 
ENDBRANCH  18  19
BRANCH  16  23
ATOM     23  N   UNL     1       1.255   1.769  22.665  0.00  0.00    +0.000 N 
ATOM     24  H   UNL     1       1.076   2.260  23.537  0.00  0.00    +0.000 HD
ATOM     25  H   UNL     1       1.959   1.049  22.774  0.00  0.00    +0.000 HD
ENDBRANCH  16  23
ENDBRANCH   3  13
BRANCH   1  26
ATOM     26  C   UNL     1       5.270   6.899  16.463  0.00  0.00    +0.000 C 
ATOM     27  F   UNL     1       5.080   6.124  15.352  0.00  0.00    +0.000 F 
BRANCH  26  29
ATOM     28  C   UNL     1       7.643   7.879  17.546  0.00  0.00    +0.000 C 
ATOM     29  S   UNL     1       6.726   6.371  17.392  0.00  0.00    +0.000 S 
ATOM     30  O   UNL     1       7.527   5.470  16.574  0.00  0.00    +0.000 OA
ATOM     31  O   UNL     1       6.338   5.984  18.736  0.00  0.00    +0.000 OA
ENDBRANCH  26  29
ENDBRANCH   1  26
TORSDOF 5
ENDMDL
MODEL 9
REMARK VINA RESULT:      -7.3      2.383      4.406
REMARK  Name = 
REMARK  6 active torsions:
REMARK  status: ('A' for Active; 'I' for Inactive)
REMARK    1  A    between atoms: C_1  and  S_2
REMARK    2  A    between atoms: S_2  and  C_5
REMARK    3  A    between atoms: C_5  and  C_7
REMARK    4  A    between atoms: C_9  and  C_10
REMARK    5  A    between atoms: C_13  and  N_14
REMARK    6  A    between atoms: C_16  and  C_17
REMARK                            x       y       z     vdW  Elec       q    Type
REMARK                         _______ _______ _______ _____ _____    ______ ____
ROOT
ATOM      1  C   UNL     1       2.116   4.557  19.522  0.00  0.00    +0.000 A 
ATOM      2  C   UNL     1       1.486   5.694  19.978  0.00  0.00    +0.000 A 
ATOM      3  C   UNL     1       2.088   6.901  19.689  0.00  0.00    +0.000 A 
ATOM      4  N   UNL     1       3.208   6.959  18.950  0.00  0.00    +0.000 NA
ATOM      5  C   UNL     1       3.690   5.833  18.405  0.00  0.00    +0.000 A 
ATOM      6  N   UNL     1       4.695   5.926  17.485  0.00  0.00    +0.000 N 
ATOM      7  C   UNL     1       5.239   4.756  16.801  0.00  0.00    +0.000 C 
ATOM      8  C   UNL     1       6.735   4.626  17.129  0.00  0.00    +0.000 C 
ATOM      9  O   UNL     1       7.449   5.840  16.830  0.00  0.00    +0.000 OA
ATOM     10  C   UNL     1       6.910   6.941  17.587  0.00  0.00    +0.000 C 
ATOM     11  C   UNL     1       5.427   7.177  17.269  0.00  0.00    +0.000 C 
ATOM     12  N   UNL     1       3.187   4.628  18.701  0.00  0.00    +0.000 NA
ENDROOT
BRANCH   3  13
ATOM     13  C   UNL     1       1.576   8.188  20.193  0.00  0.00    +0.000 A 
ATOM     14  C   UNL     1       1.504   8.409  21.577  0.00  0.00    +0.000 A 
ATOM     15  N   UNL     1       1.056   9.537  22.186  0.00  0.00    +0.000 NA
ATOM     16  C   UNL     1       0.673  10.543  21.399  0.00  0.00    +0.000 A 
ATOM     17  C   UNL     1       0.724  10.457  20.022  0.00  0.00    +0.000 A 
ATOM     18  C   UNL     1       1.151   9.265  19.390  0.00  0.00    +0.000 A 
BRANCH  18  19
ATOM     19  C   UNL     1       1.108   9.290  17.879  0.00  0.00    +0.000 C 
ATOM     20  F   UNL     1       1.100   8.101  17.227  0.00  0.00    +0.000 F 
ATOM     21  F   UNL     1      -0.038   9.907  17.442  0.00  0.00    +0.000 F 
ATOM     22  F   UNL     1       2.124  10.024  17.345  0.00  0.00    +0.000 F 
ENDBRANCH  18  19
BRANCH  16  23
ATOM     23  N   UNL     1       0.260  11.711  22.026  0.00  0.00    +0.000 N 
ATOM     24  H   UNL     1       0.071  11.480  22.997  0.00  0.00    +0.000 HD
ATOM     25  H   UNL     1      -0.545  12.124  21.571  0.00  0.00    +0.000 HD
ENDBRANCH  16  23
ENDBRANCH   3  13
BRANCH   1  26
ATOM     26  C   UNL     1       1.633   3.181  19.901  0.00  0.00    +0.000 C 
ATOM     27  F   UNL     1       0.270   3.062  19.887  0.00  0.00    +0.000 F 
BRANCH  26  29
ATOM     28  C   UNL     1       3.846   2.029  21.141  0.00  0.00    +0.000 C 
ATOM     29  S   UNL     1       2.307   2.813  21.536  0.00  0.00    +0.000 S 
ATOM     30  O   UNL     1       1.478   1.812  22.193  0.00  0.00    +0.000 OA
ATOM     31  O   UNL     1       2.637   4.050  22.221  0.00  0.00    +0.000 OA
ENDBRANCH  26  29
ENDBRANCH   1  26
TORSDOF 5
ENDMDL
