MODEL 1
REMARK VINA RESULT:      -7.9      0.000      0.000
REMARK  Name = 
REMARK  6 active torsions:
REMARK  status: ('A' for Active; 'I' for Inactive)
REMARK    1  A    between atoms: C_1  and  O_2
REMARK    2  A    between atoms: O_2  and  C_3
REMARK    3  A    between atoms: N_6  and  S_7
REMARK    4  A    between atoms: S_7  and  C_10
REMARK    5  A    between atoms: C_15  and  C_16
REMARK    6  A    between atoms: C_16  and  C_17
REMARK                            x       y       z     vdW  Elec       q    Type
REMARK                         _______ _______ _______ _____ _____    ______ ____
ROOT
ATOM      1  C   UNL     1       5.390   5.695  18.427  0.00  0.00    +0.000 C 
ATOM      2  C   UNL     1       5.743   4.275  18.012  0.00  0.00    +0.000 C 
ATOM      3  C   UNL     1       4.806   3.975  16.865  0.00  0.00    +0.000 C 
ATOM      4  N   UNL     1       3.533   4.656  17.197  0.00  0.00    +0.000 NA
ATOM      5  C   UNL     1       3.893   5.874  18.030  0.00  0.00    +0.000 C 
ENDROOT
BRANCH   4   6
ATOM      6  S   UNL     1       2.227   3.665  17.603  0.00  0.00    +0.000 S 
ATOM      7  O   UNL     1       1.014   4.388  17.297  0.00  0.00    +0.000 OA
ATOM      8  O   UNL     1       2.461   2.337  17.066  0.00  0.00    +0.000 OA
BRANCH   6   9
ATOM      9  C   UNL     1       2.146   3.356  19.361  0.00  0.00    +0.000 A 
ATOM     10  C   UNL     1       1.120   3.573  20.265  0.00  0.00    +0.000 A 
ATOM     11  C   UNL     1       1.433   3.100  21.573  0.00  0.00    +0.000 A 
ATOM     12  C   UNL     1       2.695   2.556  21.630  0.00  0.00    +0.000 A 
ATOM     13  S   UNL     1       3.473   2.581  20.107  0.00  0.00    +0.000 S 
ENDBRANCH   6   9
ENDBRANCH   4   6
BRANCH   1  15
ATOM     14  C   UNL     1       7.571   6.596  18.062  0.00  0.00    +0.000 C 
ATOM     15  O   UNL     1       6.195   6.632  17.691  0.00  0.00    +0.000 OA
ENDBRANCH   1  15
BRANCH   5  16
ATOM     16  C   UNL     1       2.986   6.176  19.245  0.00  0.00    +0.000 C 
BRANCH  16  17
ATOM     17  C   UNL     1       2.240   7.499  19.207  0.00  0.00    +0.000 A 
ATOM     18  C   UNL     1       1.637   8.051  20.346  0.00  0.00    +0.000 A 
ATOM     19  C   UNL     1       0.913   9.243  20.263  0.00  0.00    +0.000 A 
ATOM     20  C   UNL     1       0.815   9.917  19.050  0.00  0.00    +0.000 A 
ATOM     21  C   UNL     1       1.465   9.417  17.926  0.00  0.00    +0.000 A 
ATOM     22  C   UNL     1       2.181   8.220  18.006  0.00  0.00    +0.000 A 
ENDBRANCH  16  17
ENDBRANCH   5  16
TORSDOF 5
ENDMDL
MODEL 2
REMARK VINA RESULT:      -7.9      0.109      1.032
REMARK  Name = 
REMARK  6 active torsions:
REMARK  status: ('A' for Active; 'I' for Inactive)
REMARK    1  A    between atoms: C_1  and  O_2
REMARK    2  A    between atoms: O_2  and  C_3
REMARK    3  A    between atoms: N_6  and  S_7
REMARK    4  A    between atoms: S_7  and  C_10
REMARK    5  A    between atoms: C_15  and  C_16
REMARK    6  A    between atoms: C_16  and  C_17
REMARK                            x       y       z     vdW  Elec       q    Type
REMARK                         _______ _______ _______ _____ _____    ______ ____
ROOT
ATOM      1  C   UNL     1       5.331   5.730  18.424  0.00  0.00    +0.000 C 
ATOM      2  C   UNL     1       5.712   4.303  18.063  0.00  0.00    +0.000 C 
ATOM      3  C   UNL     1       4.807   3.953  16.904  0.00  0.00    +0.000 C 
ATOM      4  N   UNL     1       3.518   4.626  17.184  0.00  0.00    +0.000 NA
ATOM      5  C   UNL     1       3.841   5.875  17.986  0.00  0.00    +0.000 C 
ENDROOT
BRANCH   4   6
ATOM      6  S   UNL     1       2.216   3.630  17.591  0.00  0.00    +0.000 S 
ATOM      7  O   UNL     1       1.000   4.339  17.263  0.00  0.00    +0.000 OA
ATOM      8  O   UNL     1       2.466   2.297  17.074  0.00  0.00    +0.000 OA
BRANCH   6   9
ATOM      9  C   UNL     1       2.120   3.345  19.352  0.00  0.00    +0.000 A 
ATOM     10  C   UNL     1       1.079   3.554  20.241  0.00  0.00    +0.000 A 
ATOM     11  C   UNL     1       1.385   3.107  21.559  0.00  0.00    +0.000 A 
ATOM     12  C   UNL     1       2.657   2.588  21.639  0.00  0.00    +0.000 A 
ATOM     13  S   UNL     1       3.453   2.606  20.125  0.00  0.00    +0.000 S 
ENDBRANCH   6   9
ENDBRANCH   4   6
BRANCH   1  15
ATOM     14  C   UNL     1       7.538   6.413  17.821  0.00  0.00    +0.000 C 
ATOM     15  O   UNL     1       6.141   6.654  17.678  0.00  0.00    +0.000 OA
ENDBRANCH   1  15
BRANCH   5  16
ATOM     16  C   UNL     1       2.902   6.202  19.169  0.00  0.00    +0.000 C 
BRANCH  16  17
ATOM     17  C   UNL     1       2.205   7.550  19.113  0.00  0.00    +0.000 A 
ATOM     18  C   UNL     1       2.122   8.302  17.932  0.00  0.00    +0.000 A 
ATOM     19  C   UNL     1       1.519   9.562  17.930  0.00  0.00    +0.000 A 
ATOM     20  C   UNL     1       0.959  10.071  19.097  0.00  0.00    +0.000 A 
ATOM     21  C   UNL     1       0.973   9.308  20.261  0.00  0.00    +0.000 A 
ATOM     22  C   UNL     1       1.585   8.052  20.267  0.00  0.00    +0.000 A 
ENDBRANCH  16  17
ENDBRANCH   5  16
TORSDOF 5
ENDMDL
MODEL 3
REMARK VINA RESULT:      -7.3      2.052      4.558
REMARK  Name = 
REMARK  6 active torsions:
REMARK  status: ('A' for Active; 'I' for Inactive)
REMARK    1  A    between atoms: C_1  and  O_2
REMARK    2  A    between atoms: O_2  and  C_3
REMARK    3  A    between atoms: N_6  and  S_7
REMARK    4  A    between atoms: S_7  and  C_10
REMARK    5  A    between atoms: C_15  and  C_16
REMARK    6  A    between atoms: C_16  and  C_17
REMARK                            x       y       z     vdW  Elec       q    Type
REMARK                         _______ _______ _______ _____ _____    ______ ____
ROOT
ATOM      1  C   UNL     1       2.085   4.520  18.180  0.00  0.00    +0.000 C 
ATOM      2  C   UNL     1       2.448   3.346  17.284  0.00  0.00    +0.000 C 
ATOM      3  C   UNL     1       3.899   3.067  17.601  0.00  0.00    +0.000 C 
ATOM      4  N   UNL     1       4.517   4.388  17.853  0.00  0.00    +0.000 NA
ATOM      5  C   UNL     1       3.425   5.283  18.412  0.00  0.00    +0.000 C 
ENDROOT
BRANCH   4   6
ATOM      6  S   UNL     1       5.606   4.949  16.690  0.00  0.00    +0.000 S 
ATOM      7  O   UNL     1       6.438   3.836  16.293  0.00  0.00    +0.000 OA
ATOM      8  O   UNL     1       4.881   5.728  15.704  0.00  0.00    +0.000 OA
BRANCH   6   9
ATOM      9  C   UNL     1       6.742   6.152  17.366  0.00  0.00    +0.000 A 
ATOM     10  C   UNL     1       7.009   7.454  16.977  0.00  0.00    +0.000 A 
ATOM     11  C   UNL     1       7.928   8.108  17.847  0.00  0.00    +0.000 A 
ATOM     12  C   UNL     1       8.350   7.278  18.861  0.00  0.00    +0.000 A 
ATOM     13  S   UNL     1       7.606   5.740  18.781  0.00  0.00    +0.000 S 
ENDBRANCH   6   9
ENDBRANCH   4   6
BRANCH   1  15
ATOM     14  C   UNL     1       0.802   2.853  19.309  0.00  0.00    +0.000 C 
ATOM     15  O   UNL     1       1.585   4.037  19.438  0.00  0.00    +0.000 OA
ENDBRANCH   1  15
BRANCH   5  16
ATOM     16  C   UNL     1       3.382   6.737  17.888  0.00  0.00    +0.000 C 
BRANCH  16  17
ATOM     17  C   UNL     1       2.448   7.682  18.622  0.00  0.00    +0.000 A 
ATOM     18  C   UNL     1       2.147   7.532  19.984  0.00  0.00    +0.000 A 
ATOM     19  C   UNL     1       1.242   8.389  20.614  0.00  0.00    +0.000 A 
ATOM     20  C   UNL     1       0.654   9.430  19.902  0.00  0.00    +0.000 A 
ATOM     21  C   UNL     1       0.993   9.633  18.568  0.00  0.00    +0.000 A 
ATOM     22  C   UNL     1       1.891   8.771  17.934  0.00  0.00    +0.000 A 
ENDBRANCH  16  17
ENDBRANCH   5  16
TORSDOF 5
ENDMDL
MODEL 4
REMARK VINA RESULT:      -7.3      2.596      5.215
REMARK  Name = 
REMARK  6 active torsions:
REMARK  status: ('A' for Active; 'I' for Inactive)
REMARK    1  A    between atoms: C_1  and  O_2
REMARK    2  A    between atoms: O_2  and  C_3
REMARK    3  A    between atoms: N_6  and  S_7
REMARK    4  A    between atoms: S_7  and  C_10
REMARK    5  A    between atoms: C_15  and  C_16
REMARK    6  A    between atoms: C_16  and  C_17
REMARK                            x       y       z     vdW  Elec       q    Type
REMARK                         _______ _______ _______ _____ _____    ______ ____
ROOT
ATOM      1  C   UNL     1       4.984   6.445  16.441  0.00  0.00    +0.000 C 
ATOM      2  C   UNL     1       3.978   6.790  17.529  0.00  0.00    +0.000 C 
ATOM      3  C   UNL     1       4.192   5.732  18.587  0.00  0.00    +0.000 C 
ATOM      4  N   UNL     1       4.514   4.488  17.852  0.00  0.00    +0.000 NA
ATOM      5  C   UNL     1       5.203   4.906  16.564  0.00  0.00    +0.000 C 
ENDROOT
BRANCH   4   6
ATOM      6  S   UNL     1       3.342   3.272  17.870  0.00  0.00    +0.000 S 
ATOM      7  O   UNL     1       2.216   3.735  17.091  0.00  0.00    +0.000 OA
ATOM      8  O   UNL     1       3.980   2.002  17.578  0.00  0.00    +0.000 OA
BRANCH   6   9
ATOM      9  C   UNL     1       2.686   3.003  19.510  0.00  0.00    +0.000 A 
ATOM     10  C   UNL     1       3.316   2.594  20.674  0.00  0.00    +0.000 A 
ATOM     11  C   UNL     1       2.441   2.592  21.798  0.00  0.00    +0.000 A 
ATOM     12  C   UNL     1       1.167   2.980  21.454  0.00  0.00    +0.000 A 
ATOM     13  S   UNL     1       1.045   3.382  19.796  0.00  0.00    +0.000 S 
ENDBRANCH   6   9
ENDBRANCH   4   6
BRANCH   1  15
ATOM     14  C   UNL     1       7.202   6.296  17.311  0.00  0.00    +0.000 C 
ATOM     15  O   UNL     1       6.224   7.127  16.691  0.00  0.00    +0.000 OA
ENDBRANCH   1  15
BRANCH   5  16
ATOM     16  C   UNL     1       4.800   4.143  15.282  0.00  0.00    +0.000 C 
BRANCH  16  17
ATOM     17  C   UNL     1       5.785   4.212  14.128  0.00  0.00    +0.000 A 
ATOM     18  C   UNL     1       6.947   4.994  14.181  0.00  0.00    +0.000 A 
ATOM     19  C   UNL     1       7.803   5.075  13.081  0.00  0.00    +0.000 A 
ATOM     20  C   UNL     1       7.529   4.348  11.927  0.00  0.00    +0.000 A 
ATOM     21  C   UNL     1       6.415   3.514  11.883  0.00  0.00    +0.000 A 
ATOM     22  C   UNL     1       5.553   3.440  12.980  0.00  0.00    +0.000 A 
ENDBRANCH  16  17
ENDBRANCH   5  16
TORSDOF 5
ENDMDL
MODEL 5
REMARK VINA RESULT:      -7.2      2.081      4.465
REMARK  Name = 
REMARK  6 active torsions:
REMARK  status: ('A' for Active; 'I' for Inactive)
REMARK    1  A    between atoms: C_1  and  O_2
REMARK    2  A    between atoms: O_2  and  C_3
REMARK    3  A    between atoms: N_6  and  S_7
REMARK    4  A    between atoms: S_7  and  C_10
REMARK    5  A    between atoms: C_15  and  C_16
REMARK    6  A    between atoms: C_16  and  C_17
REMARK                            x       y       z     vdW  Elec       q    Type
REMARK                         _______ _______ _______ _____ _____    ______ ____
ROOT
ATOM      1  C   UNL     1       1.966   3.803  18.157  0.00  0.00    +0.000 C 
ATOM      2  C   UNL     1       2.958   2.688  17.861  0.00  0.00    +0.000 C 
ATOM      3  C   UNL     1       4.067   2.895  18.867  0.00  0.00    +0.000 C 
ATOM      4  N   UNL     1       4.196   4.361  19.026  0.00  0.00    +0.000 NA
ATOM      5  C   UNL     1       2.820   4.953  18.773  0.00  0.00    +0.000 C 
ENDROOT
BRANCH   4   6
ATOM      6  S   UNL     1       5.591   5.072  18.391  0.00  0.00    +0.000 S 
ATOM      7  O   UNL     1       5.423   6.506  18.455  0.00  0.00    +0.000 OA
ATOM      8  O   UNL     1       6.753   4.429  18.976  0.00  0.00    +0.000 OA
BRANCH   6   9
ATOM      9  C   UNL     1       5.790   4.711  16.652  0.00  0.00    +0.000 A 
ATOM     10  C   UNL     1       4.844   4.464  15.672  0.00  0.00    +0.000 A 
ATOM     11  C   UNL     1       5.423   4.309  14.379  0.00  0.00    +0.000 A 
ATOM     12  C   UNL     1       6.794   4.423  14.417  0.00  0.00    +0.000 A 
ATOM     13  S   UNL     1       7.366   4.755  15.994  0.00  0.00    +0.000 S 
ENDBRANCH   6   9
ENDBRANCH   4   6
BRANCH   1  15
ATOM     14  C   UNL     1       1.016   4.119  20.325  0.00  0.00    +0.000 C 
ATOM     15  O   UNL     1       1.001   3.353  19.123  0.00  0.00    +0.000 OA
ENDBRANCH   1  15
BRANCH   5  16
ATOM     16  C   UNL     1       2.765   6.250  17.935  0.00  0.00    +0.000 C 
BRANCH  16  17
ATOM     17  C   UNL     1       2.155   7.460  18.620  0.00  0.00    +0.000 A 
ATOM     18  C   UNL     1       1.951   7.513  20.006  0.00  0.00    +0.000 A 
ATOM     19  C   UNL     1       1.337   8.621  20.596  0.00  0.00    +0.000 A 
ATOM     20  C   UNL     1       0.953   9.706  19.813  0.00  0.00    +0.000 A 
ATOM     21  C   UNL     1       1.210   9.697  18.445  0.00  0.00    +0.000 A 
ATOM     22  C   UNL     1       1.815   8.585  17.853  0.00  0.00    +0.000 A 
ENDBRANCH  16  17
ENDBRANCH   5  16
TORSDOF 5
ENDMDL
MODEL 6
REMARK VINA RESULT:      -7.1      2.670      5.240
REMARK  Name = 
REMARK  6 active torsions:
REMARK  status: ('A' for Active; 'I' for Inactive)
REMARK    1  A    between atoms: C_1  and  O_2
REMARK    2  A    between atoms: O_2  and  C_3
REMARK    3  A    between atoms: N_6  and  S_7
REMARK    4  A    between atoms: S_7  and  C_10
REMARK    5  A    between atoms: C_15  and  C_16
REMARK    6  A    between atoms: C_16  and  C_17
REMARK                            x       y       z     vdW  Elec       q    Type
REMARK                         _______ _______ _______ _____ _____    ______ ____
ROOT
ATOM      1  C   UNL     1       5.847   6.005  16.948  0.00  0.00    +0.000 C 
ATOM      2  C   UNL     1       5.069   6.330  18.214  0.00  0.00    +0.000 C 
ATOM      3  C   UNL     1       5.074   5.038  18.999  0.00  0.00    +0.000 C 
ATOM      4  N   UNL     1       4.982   3.956  17.993  0.00  0.00    +0.000 NA
ATOM      5  C   UNL     1       5.648   4.474  16.730  0.00  0.00    +0.000 C 
ENDROOT
BRANCH   4   6
ATOM      6  S   UNL     1       3.528   3.097  17.935  0.00  0.00    +0.000 S 
ATOM      7  O   UNL     1       2.585   3.881  17.169  0.00  0.00    +0.000 OA
ATOM      8  O   UNL     1       3.812   1.718  17.584  0.00  0.00    +0.000 OA
BRANCH   6   9
ATOM      9  C   UNL     1       2.785   2.936  19.551  0.00  0.00    +0.000 A 
ATOM     10  C   UNL     1       3.338   2.551  20.761  0.00  0.00    +0.000 A 
ATOM     11  C   UNL     1       2.413   2.642  21.840  0.00  0.00    +0.000 A 
ATOM     12  C   UNL     1       1.177   3.075  21.418  0.00  0.00    +0.000 A 
ATOM     13  S   UNL     1       1.153   3.405  19.740  0.00  0.00    +0.000 S 
ENDBRANCH   6   9
ENDBRANCH   4   6
BRANCH   1  15
ATOM     14  C   UNL     1       7.495   7.632  17.533  0.00  0.00    +0.000 C 
ATOM     15  O   UNL     1       7.243   6.282  17.151  0.00  0.00    +0.000 OA
ENDBRANCH   1  15
BRANCH   5  16
ATOM     16  C   UNL     1       4.946   4.150  15.392  0.00  0.00    +0.000 C 
BRANCH  16  17
ATOM     17  C   UNL     1       5.821   4.196  14.152  0.00  0.00    +0.000 A 
ATOM     18  C   UNL     1       5.518   3.466  12.994  0.00  0.00    +0.000 A 
ATOM     19  C   UNL     1       6.374   3.490  11.890  0.00  0.00    +0.000 A 
ATOM     20  C   UNL     1       7.525   4.273  11.916  0.00  0.00    +0.000 A 
ATOM     21  C   UNL     1       7.804   5.056  13.033  0.00  0.00    +0.000 A 
ATOM     22  C   UNL     1       6.953   5.024  14.140  0.00  0.00    +0.000 A 
ENDBRANCH  16  17
ENDBRANCH   5  16
TORSDOF 5
ENDMDL
MODEL 7
REMARK VINA RESULT:      -7.1      2.157      4.657
REMARK  Name = 
REMARK  6 active torsions:
REMARK  status: ('A' for Active; 'I' for Inactive)
REMARK    1  A    between atoms: C_1  and  O_2
REMARK    2  A    between atoms: O_2  and  C_3
REMARK    3  A    between atoms: N_6  and  S_7
REMARK    4  A    between atoms: S_7  and  C_10
REMARK    5  A    between atoms: C_15  and  C_16
REMARK    6  A    between atoms: C_16  and  C_17
REMARK                            x       y       z     vdW  Elec       q    Type
REMARK                         _______ _______ _______ _____ _____    ______ ____
ROOT
ATOM      1  C   UNL     1       2.297   4.167  18.456  0.00  0.00    +0.000 C 
ATOM      2  C   UNL     1       3.150   2.958  18.106  0.00  0.00    +0.000 C 
ATOM      3  C   UNL     1       4.382   3.105  18.970  0.00  0.00    +0.000 C 
ATOM      4  N   UNL     1       4.652   4.559  19.041  0.00  0.00    +0.000 NA
ATOM      5  C   UNL     1       3.310   5.260  18.916  0.00  0.00    +0.000 C 
ENDROOT
BRANCH   4   6
ATOM      6  S   UNL     1       6.018   5.117  18.219  0.00  0.00    +0.000 S 
ATOM      7  O   UNL     1       6.005   6.561  18.274  0.00  0.00    +0.000 OA
ATOM      8  O   UNL     1       7.174   4.363  18.666  0.00  0.00    +0.000 OA
BRANCH   6   9
ATOM      9  C   UNL     1       5.955   4.724  16.477  0.00  0.00    +0.000 A 
ATOM     10  C   UNL     1       4.878   4.409  15.666  0.00  0.00    +0.000 A 
ATOM     11  C   UNL     1       5.250   4.250  14.299  0.00  0.00    +0.000 A 
ATOM     12  C   UNL     1       6.602   4.429  14.114  0.00  0.00    +0.000 A 
ATOM     13  S   UNL     1       7.401   4.827  15.573  0.00  0.00    +0.000 S 
ENDBRANCH   6   9
ENDBRANCH   4   6
BRANCH   1  15
ATOM     14  C   UNL     1       0.762   2.588  19.379  0.00  0.00    +0.000 C 
ATOM     15  O   UNL     1       1.416   3.843  19.546  0.00  0.00    +0.000 OA
ENDBRANCH   1  15
BRANCH   5  16
ATOM     16  C   UNL     1       3.267   6.523  18.027  0.00  0.00    +0.000 C 
BRANCH  16  17
ATOM     17  C   UNL     1       2.422   7.674  18.544  0.00  0.00    +0.000 A 
ATOM     18  C   UNL     1       1.998   8.724  17.716  0.00  0.00    +0.000 A 
ATOM     19  C   UNL     1       1.267   9.793  18.237  0.00  0.00    +0.000 A 
ATOM     20  C   UNL     1       0.916   9.809  19.584  0.00  0.00    +0.000 A 
ATOM     21  C   UNL     1       1.271   8.741  20.404  0.00  0.00    +0.000 A 
ATOM     22  C   UNL     1       2.012   7.677  19.885  0.00  0.00    +0.000 A 
ENDBRANCH  16  17
ENDBRANCH   5  16
TORSDOF 5
ENDMDL
MODEL 8
REMARK VINA RESULT:      -7.1      2.645      5.233
REMARK  Name = 
REMARK  6 active torsions:
REMARK  status: ('A' for Active; 'I' for Inactive)
REMARK    1  A    between atoms: C_1  and  O_2
REMARK    2  A    between atoms: O_2  and  C_3
REMARK    3  A    between atoms: N_6  and  S_7
REMARK    4  A    between atoms: S_7  and  C_10
REMARK    5  A    between atoms: C_15  and  C_16
REMARK    6  A    between atoms: C_16  and  C_17
REMARK                            x       y       z     vdW  Elec       q    Type
REMARK                         _______ _______ _______ _____ _____    ______ ____
ROOT
ATOM      1  C   UNL     1       5.801   6.132  16.601  0.00  0.00    +0.000 C 
ATOM      2  C   UNL     1       4.923   6.599  17.753  0.00  0.00    +0.000 C 
ATOM      3  C   UNL     1       4.910   5.431  18.712  0.00  0.00    +0.000 C 
ATOM      4  N   UNL     1       4.924   4.216  17.865  0.00  0.00    +0.000 NA
ATOM      5  C   UNL     1       5.664   4.579  16.590  0.00  0.00    +0.000 C 
ENDROOT
BRANCH   4   6
ATOM      6  S   UNL     1       3.505   3.300  17.832  0.00  0.00    +0.000 S 
ATOM      7  O   UNL     1       2.552   3.995  16.997  0.00  0.00    +0.000 OA
ATOM      8  O   UNL     1       3.848   1.913  17.578  0.00  0.00    +0.000 OA
BRANCH   6   9
ATOM      9  C   UNL     1       2.730   3.214  19.439  0.00  0.00    +0.000 A 
ATOM     10  C   UNL     1       1.454   3.573  19.841  0.00  0.00    +0.000 A 
ATOM     11  C   UNL     1       1.201   3.256  21.207  0.00  0.00    +0.000 A 
ATOM     12  C   UNL     1       2.298   2.683  21.810  0.00  0.00    +0.000 A 
ATOM     13  S   UNL     1       3.602   2.495  20.720  0.00  0.00    +0.000 S 
ENDBRANCH   6   9
ENDBRANCH   4   6
BRANCH   1  15
ATOM     14  C   UNL     1       7.304   7.753  17.504  0.00  0.00    +0.000 C 
ATOM     15  O   UNL     1       7.169   6.491  16.856  0.00  0.00    +0.000 OA
ENDBRANCH   1  15
BRANCH   5  16
ATOM     16  C   UNL     1       5.071   4.043  15.267  0.00  0.00    +0.000 C 
BRANCH  16  17
ATOM     17  C   UNL     1       5.964   4.150  14.044  0.00  0.00    +0.000 A 
ATOM     18  C   UNL     1       7.100   4.973  14.016  0.00  0.00    +0.000 A 
ATOM     19  C   UNL     1       7.869   5.088  12.855  0.00  0.00    +0.000 A 
ATOM     20  C   UNL     1       7.535   4.355  11.721  0.00  0.00    +0.000 A 
ATOM     21  C   UNL     1       6.451   3.483  11.754  0.00  0.00    +0.000 A 
ATOM     22  C   UNL     1       5.675   3.374  12.911  0.00  0.00    +0.000 A 
ENDBRANCH  16  17
ENDBRANCH   5  16
TORSDOF 5
ENDMDL
MODEL 9
REMARK VINA RESULT:      -7.0      2.553      5.203
REMARK  Name = 
REMARK  6 active torsions:
REMARK  status: ('A' for Active; 'I' for Inactive)
REMARK    1  A    between atoms: C_1  and  O_2
REMARK    2  A    between atoms: O_2  and  C_3
REMARK    3  A    between atoms: N_6  and  S_7
REMARK    4  A    between atoms: S_7  and  C_10
REMARK    5  A    between atoms: C_15  and  C_16
REMARK    6  A    between atoms: C_16  and  C_17
REMARK                            x       y       z     vdW  Elec       q    Type
REMARK                         _______ _______ _______ _____ _____    ______ ____
ROOT
ATOM      1  C   UNL     1       4.996   6.399  16.392  0.00  0.00    +0.000 C 
ATOM      2  C   UNL     1       4.009   6.748  17.495  0.00  0.00    +0.000 C 
ATOM      3  C   UNL     1       4.229   5.686  18.547  0.00  0.00    +0.000 C 
ATOM      4  N   UNL     1       4.532   4.442  17.804  0.00  0.00    +0.000 NA
ATOM      5  C   UNL     1       5.205   4.859  16.508  0.00  0.00    +0.000 C 
ENDROOT
BRANCH   4   6
ATOM      6  S   UNL     1       3.351   3.234  17.835  0.00  0.00    +0.000 S 
ATOM      7  O   UNL     1       2.286   3.637  16.945  0.00  0.00    +0.000 OA
ATOM      8  O   UNL     1       3.997   1.943  17.690  0.00  0.00    +0.000 OA
BRANCH   6   9
ATOM      9  C   UNL     1       2.581   3.097  19.441  0.00  0.00    +0.000 A 
ATOM     10  C   UNL     1       1.261   3.271  19.822  0.00  0.00    +0.000 A 
ATOM     11  C   UNL     1       1.045   2.977  21.199  0.00  0.00    +0.000 A 
ATOM     12  C   UNL     1       2.210   2.608  21.831  0.00  0.00    +0.000 A 
ATOM     13  S   UNL     1       3.540   2.578  20.756  0.00  0.00    +0.000 S 
ENDBRANCH   6   9
ENDBRANCH   4   6
BRANCH   1  15
ATOM     14  C   UNL     1       7.169   6.286  17.377  0.00  0.00    +0.000 C 
ATOM     15  O   UNL     1       6.245   7.071  16.627  0.00  0.00    +0.000 OA
ENDBRANCH   1  15
BRANCH   5  16
ATOM     16  C   UNL     1       4.779   4.102  15.229  0.00  0.00    +0.000 C 
BRANCH  16  17
ATOM     17  C   UNL     1       5.747   4.168  14.061  0.00  0.00    +0.000 A 
ATOM     18  C   UNL     1       5.555   3.428  12.886  0.00  0.00    +0.000 A 
ATOM     19  C   UNL     1       6.494   3.473  11.853  0.00  0.00    +0.000 A 
ATOM     20  C   UNL     1       7.618   4.285  11.965  0.00  0.00    +0.000 A 
ATOM     21  C   UNL     1       7.789   5.077  13.097  0.00  0.00    +0.000 A 
ATOM     22  C   UNL     1       6.855   5.025  14.135  0.00  0.00    +0.000 A 
ENDBRANCH  16  17
ENDBRANCH   5  16
TORSDOF 5
ENDMDL
