MODEL 1
REMARK VINA RESULT:      -8.5      0.000      0.000
REMARK  Name = 
REMARK  3 active torsions:
REMARK  status: ('A' for Active; 'I' for Inactive)
REMARK    1  A    between atoms: C_1  and  C_2
REMARK    2  A    between atoms: C_5  and  C_6
REMARK    3  A    between atoms: C_7  and  N_8
REMARK                            x       y       z     vdW  Elec       q    Type
REMARK                         _______ _______ _______ _____ _____    ______ ____
ROOT
ATOM      1  N   UNL     1       3.904   3.637  17.672  0.00  0.00    +0.000 N 
ATOM      2  C   UNL     1       5.178   4.089  17.399  0.00  0.00    +0.000 C 
ATOM      3  N   UNL     1       6.043   4.445  18.309  0.00  0.00    +0.000 NA
ATOM      4  S   UNL     1       7.440   4.967  17.648  0.00  0.00    +0.000 S 
ATOM      5  O   UNL     1       8.509   4.032  17.911  0.00  0.00    +0.000 OA
ATOM      6  O   UNL     1       7.582   6.392  17.837  0.00  0.00    +0.000 OA
ATOM      7  C   UNL     1       6.949   4.720  16.002  0.00  0.00    +0.000 A 
ATOM      8  C   UNL     1       7.663   5.005  14.855  0.00  0.00    +0.000 A 
ATOM      9  C   UNL     1       7.032   4.737  13.641  0.00  0.00    +0.000 A 
ATOM     10  C   UNL     1       5.729   4.201  13.615  0.00  0.00    +0.000 A 
ATOM     11  C   UNL     1       5.031   3.931  14.802  0.00  0.00    +0.000 A 
ATOM     12  C   UNL     1       5.665   4.205  16.001  0.00  0.00    +0.000 A 
ATOM     13  H   UNL     1       3.324   3.292  16.920  0.00  0.00    +0.000 HD
ENDROOT
BRANCH   1  20
ATOM     14  C   UNL     1       1.554   2.514  21.890  0.00  0.00    +0.000 C 
ATOM     15  C   UNL     1       1.949   3.536  20.867  0.00  0.00    +0.000 A 
ATOM     16  C   UNL     1       1.557   4.869  20.975  0.00  0.00    +0.000 A 
ATOM     17  C   UNL     1       1.947   5.795  20.005  0.00  0.00    +0.000 A 
ATOM     18  C   UNL     1       2.736   5.409  18.908  0.00  0.00    +0.000 A 
ATOM     19  C   UNL     1       3.099   6.439  17.874  0.00  0.00    +0.000 C 
ATOM     20  C   UNL     1       3.135   4.062  18.784  0.00  0.00    +0.000 A 
ATOM     21  C   UNL     1       2.730   3.148  19.772  0.00  0.00    +0.000 A 
ENDBRANCH   1  20
TORSDOF 1
ENDMDL
MODEL 2
REMARK VINA RESULT:      -8.2      1.631      2.945
REMARK  Name = 
REMARK  3 active torsions:
REMARK  status: ('A' for Active; 'I' for Inactive)
REMARK    1  A    between atoms: C_1  and  C_2
REMARK    2  A    between atoms: C_5  and  C_6
REMARK    3  A    between atoms: C_7  and  N_8
REMARK                            x       y       z     vdW  Elec       q    Type
REMARK                         _______ _______ _______ _____ _____    ______ ____
ROOT
ATOM      1  N   UNL     1       3.363   5.515  17.849  0.00  0.00    +0.000 N 
ATOM      2  C   UNL     1       4.728   5.520  17.652  0.00  0.00    +0.000 C 
ATOM      3  N   UNL     1       5.596   5.942  18.529  0.00  0.00    +0.000 NA
ATOM      4  S   UNL     1       7.125   5.849  17.965  0.00  0.00    +0.000 S 
ATOM      5  O   UNL     1       7.866   4.829  18.670  0.00  0.00    +0.000 OA
ATOM      6  O   UNL     1       7.651   7.172  17.722  0.00  0.00    +0.000 OA
ATOM      7  C   UNL     1       6.693   5.183  16.422  0.00  0.00    +0.000 A 
ATOM      8  C   UNL     1       7.532   4.875  15.370  0.00  0.00    +0.000 A 
ATOM      9  C   UNL     1       6.933   4.372  14.216  0.00  0.00    +0.000 A 
ATOM     10  C   UNL     1       5.536   4.195  14.155  0.00  0.00    +0.000 A 
ATOM     11  C   UNL     1       4.714   4.525  15.243  0.00  0.00    +0.000 A 
ATOM     12  C   UNL     1       5.319   5.028  16.381  0.00  0.00    +0.000 A 
ATOM     13  H   UNL     1       2.760   5.087  17.160  0.00  0.00    +0.000 HD
ENDROOT
BRANCH   1  20
ATOM     14  C   UNL     1       1.513  10.088  18.335  0.00  0.00    +0.000 C 
ATOM     15  C   UNL     1       1.761   8.729  18.917  0.00  0.00    +0.000 A 
ATOM     16  C   UNL     1       1.358   8.402  20.211  0.00  0.00    +0.000 A 
ATOM     17  C   UNL     1       1.602   7.125  20.719  0.00  0.00    +0.000 A 
ATOM     18  C   UNL     1       2.255   6.149  19.947  0.00  0.00    +0.000 A 
ATOM     19  C   UNL     1       2.525   4.800  20.555  0.00  0.00    +0.000 C 
ATOM     20  C   UNL     1       2.674   6.468  18.639  0.00  0.00    +0.000 A 
ATOM     21  C   UNL     1       2.418   7.761  18.149  0.00  0.00    +0.000 A 
ENDBRANCH   1  20
TORSDOF 1
ENDMDL
MODEL 3
REMARK VINA RESULT:      -8.2      2.327      6.214
REMARK  Name = 
REMARK  3 active torsions:
REMARK  status: ('A' for Active; 'I' for Inactive)
REMARK    1  A    between atoms: C_1  and  C_2
REMARK    2  A    between atoms: C_5  and  C_6
REMARK    3  A    between atoms: C_7  and  N_8
REMARK                            x       y       z     vdW  Elec       q    Type
REMARK                         _______ _______ _______ _____ _____    ______ ____
ROOT
ATOM      1  N   UNL     1       4.828   5.263  17.995  0.00  0.00    +0.000 N 
ATOM      2  C   UNL     1       4.474   4.170  18.758  0.00  0.00    +0.000 C 
ATOM      3  N   UNL     1       5.193   3.088  18.870  0.00  0.00    +0.000 NA
ATOM      4  S   UNL     1       4.469   1.973  19.816  0.00  0.00    +0.000 S 
ATOM      5  O   UNL     1       5.190   1.812  21.057  0.00  0.00    +0.000 OA
ATOM      6  O   UNL     1       4.023   0.853  19.020  0.00  0.00    +0.000 OA
ATOM      7  C   UNL     1       3.069   2.935  20.167  0.00  0.00    +0.000 A 
ATOM      8  C   UNL     1       1.966   2.581  20.919  0.00  0.00    +0.000 A 
ATOM      9  C   UNL     1       0.952   3.530  21.031  0.00  0.00    +0.000 A 
ATOM     10  C   UNL     1       1.073   4.784  20.399  0.00  0.00    +0.000 A 
ATOM     11  C   UNL     1       2.206   5.107  19.637  0.00  0.00    +0.000 A 
ATOM     12  C   UNL     1       3.204   4.155  19.529  0.00  0.00    +0.000 A 
ATOM     13  H   UNL     1       4.265   6.101  18.031  0.00  0.00    +0.000 HD
ENDROOT
BRANCH   1  20
ATOM     14  C   UNL     1       5.206   3.694  13.307  0.00  0.00    +0.000 C 
ATOM     15  C   UNL     1       5.808   4.405  14.481  0.00  0.00    +0.000 A 
ATOM     16  C   UNL     1       7.088   4.954  14.427  0.00  0.00    +0.000 A 
ATOM     17  C   UNL     1       7.616   5.613  15.539  0.00  0.00    +0.000 A 
ATOM     18  C   UNL     1       6.877   5.737  16.728  0.00  0.00    +0.000 A 
ATOM     19  C   UNL     1       7.506   6.426  17.908  0.00  0.00    +0.000 C 
ATOM     20  C   UNL     1       5.584   5.181  16.799  0.00  0.00    +0.000 A 
ATOM     21  C   UNL     1       5.073   4.522  15.667  0.00  0.00    +0.000 A 
ENDBRANCH   1  20
TORSDOF 1
ENDMDL
MODEL 4
REMARK VINA RESULT:      -8.2      0.671      1.958
REMARK  Name = 
REMARK  3 active torsions:
REMARK  status: ('A' for Active; 'I' for Inactive)
REMARK    1  A    between atoms: C_1  and  C_2
REMARK    2  A    between atoms: C_5  and  C_6
REMARK    3  A    between atoms: C_7  and  N_8
REMARK                            x       y       z     vdW  Elec       q    Type
REMARK                         _______ _______ _______ _____ _____    ______ ____
ROOT
ATOM      1  N   UNL     1       3.687   3.791  17.596  0.00  0.00    +0.000 N 
ATOM      2  C   UNL     1       4.975   4.240  17.393  0.00  0.00    +0.000 C 
ATOM      3  N   UNL     1       5.769   4.651  18.343  0.00  0.00    +0.000 NA
ATOM      4  S   UNL     1       7.208   5.151  17.759  0.00  0.00    +0.000 S 
ATOM      5  O   UNL     1       8.260   4.241  18.149  0.00  0.00    +0.000 OA
ATOM      6  O   UNL     1       7.328   6.585  17.883  0.00  0.00    +0.000 OA
ATOM      7  C   UNL     1       6.840   4.814  16.098  0.00  0.00    +0.000 A 
ATOM      8  C   UNL     1       7.635   5.045  14.992  0.00  0.00    +0.000 A 
ATOM      9  C   UNL     1       7.096   4.709  13.751  0.00  0.00    +0.000 A 
ATOM     10  C   UNL     1       5.802   4.160  13.659  0.00  0.00    +0.000 A 
ATOM     11  C   UNL     1       5.020   3.945  14.804  0.00  0.00    +0.000 A 
ATOM     12  C   UNL     1       5.563   4.287  16.030  0.00  0.00    +0.000 A 
ATOM     13  H   UNL     1       3.166   3.402  16.822  0.00  0.00    +0.000 HD
ENDROOT
BRANCH   1  20
ATOM     14  C   UNL     1       1.975   7.595  20.274  0.00  0.00    +0.000 C 
ATOM     15  C   UNL     1       1.980   6.126  19.978  0.00  0.00    +0.000 A 
ATOM     16  C   UNL     1       1.197   5.230  20.704  0.00  0.00    +0.000 A 
ATOM     17  C   UNL     1       1.224   3.868  20.399  0.00  0.00    +0.000 A 
ATOM     18  C   UNL     1       2.034   3.372  19.363  0.00  0.00    +0.000 A 
ATOM     19  C   UNL     1       2.052   1.892  19.098  0.00  0.00    +0.000 C 
ATOM     20  C   UNL     1       2.836   4.266  18.624  0.00  0.00    +0.000 A 
ATOM     21  C   UNL     1       2.793   5.633  18.950  0.00  0.00    +0.000 A 
ENDBRANCH   1  20
TORSDOF 1
ENDMDL
MODEL 5
REMARK VINA RESULT:      -7.7      2.701      6.533
REMARK  Name = 
REMARK  3 active torsions:
REMARK  status: ('A' for Active; 'I' for Inactive)
REMARK    1  A    between atoms: C_1  and  C_2
REMARK    2  A    between atoms: C_5  and  C_6
REMARK    3  A    between atoms: C_7  and  N_8
REMARK                            x       y       z     vdW  Elec       q    Type
REMARK                         _______ _______ _______ _____ _____    ______ ____
ROOT
ATOM      1  N   UNL     1       5.082   2.966  17.018  0.00  0.00    +0.000 N 
ATOM      2  C   UNL     1       3.912   3.446  17.567  0.00  0.00    +0.000 C 
ATOM      3  N   UNL     1       3.061   4.207  16.936  0.00  0.00    +0.000 NA
ATOM      4  S   UNL     1       1.804   4.631  17.886  0.00  0.00    +0.000 S 
ATOM      5  O   UNL     1       0.588   3.992  17.437  0.00  0.00    +0.000 OA
ATOM      6  O   UNL     1       1.874   6.036  18.213  0.00  0.00    +0.000 OA
ATOM      7  C   UNL     1       2.347   3.756  19.282  0.00  0.00    +0.000 A 
ATOM      8  C   UNL     1       1.755   3.702  20.529  0.00  0.00    +0.000 A 
ATOM      9  C   UNL     1       2.408   2.945  21.500  0.00  0.00    +0.000 A 
ATOM     10  C   UNL     1       3.610   2.276  21.197  0.00  0.00    +0.000 A 
ATOM     11  C   UNL     1       4.186   2.360  19.921  0.00  0.00    +0.000 A 
ATOM     12  C   UNL     1       3.533   3.118  18.966  0.00  0.00    +0.000 A 
ATOM     13  H   UNL     1       5.645   2.307  17.538  0.00  0.00    +0.000 HD
ENDROOT
BRANCH   1  20
ATOM     14  C   UNL     1       6.189   3.714  12.244  0.00  0.00    +0.000 C 
ATOM     15  C   UNL     1       6.422   4.041  13.688  0.00  0.00    +0.000 A 
ATOM     16  C   UNL     1       7.376   4.978  14.082  0.00  0.00    +0.000 A 
ATOM     17  C   UNL     1       7.564   5.261  15.436  0.00  0.00    +0.000 A 
ATOM     18  C   UNL     1       6.804   4.613  16.425  0.00  0.00    +0.000 A 
ATOM     19  C   UNL     1       7.070   4.929  17.871  0.00  0.00    +0.000 C 
ATOM     20  C   UNL     1       5.840   3.658  16.042  0.00  0.00    +0.000 A 
ATOM     21  C   UNL     1       5.669   3.390  14.672  0.00  0.00    +0.000 A 
ENDBRANCH   1  20
TORSDOF 1
ENDMDL
MODEL 6
REMARK VINA RESULT:      -7.2      5.078      7.350
REMARK  Name = 
REMARK  3 active torsions:
REMARK  status: ('A' for Active; 'I' for Inactive)
REMARK    1  A    between atoms: C_1  and  C_2
REMARK    2  A    between atoms: C_5  and  C_6
REMARK    3  A    between atoms: C_7  and  N_8
REMARK                            x       y       z     vdW  Elec       q    Type
REMARK                         _______ _______ _______ _____ _____    ______ ____
ROOT
ATOM      1  N   UNL     1       2.288   7.766  19.121  0.00  0.00    +0.000 N 
ATOM      2  C   UNL     1       1.513   8.418  20.056  0.00  0.00    +0.000 C 
ATOM      3  N   UNL     1       1.410   8.060  21.306  0.00  0.00    +0.000 NA
ATOM      4  S   UNL     1       0.382   9.020  22.132  0.00  0.00    +0.000 S 
ATOM      5  O   UNL     1       1.098   9.831  23.089  0.00  0.00    +0.000 OA
ATOM      6  O   UNL     1      -0.822   8.294  22.467  0.00  0.00    +0.000 OA
ATOM      7  C   UNL     1      -0.003  10.047  20.788  0.00  0.00    +0.000 A 
ATOM      8  C   UNL     1      -0.890  11.105  20.759  0.00  0.00    +0.000 A 
ATOM      9  C   UNL     1      -1.044  11.762  19.539  0.00  0.00    +0.000 A 
ATOM     10  C   UNL     1      -0.316  11.346  18.407  0.00  0.00    +0.000 A 
ATOM     11  C   UNL     1       0.572  10.262  18.472  0.00  0.00    +0.000 A 
ATOM     12  C   UNL     1       0.713   9.615  19.687  0.00  0.00    +0.000 A 
ATOM     13  H   UNL     1       2.389   8.157  18.195  0.00  0.00    +0.000 HD
ENDROOT
BRANCH   1  20
ATOM     14  C   UNL     1       1.256   3.280  20.961  0.00  0.00    +0.000 C 
ATOM     15  C   UNL     1       2.070   4.140  20.043  0.00  0.00    +0.000 A 
ATOM     16  C   UNL     1       3.078   3.607  19.242  0.00  0.00    +0.000 A 
ATOM     17  C   UNL     1       3.814   4.438  18.396  0.00  0.00    +0.000 A 
ATOM     18  C   UNL     1       3.559   5.819  18.332  0.00  0.00    +0.000 A 
ATOM     19  C   UNL     1       4.405   6.675  17.429  0.00  0.00    +0.000 C 
ATOM     20  C   UNL     1       2.546   6.373  19.141  0.00  0.00    +0.000 A 
ATOM     21  C   UNL     1       1.818   5.516  19.986  0.00  0.00    +0.000 A 
ENDBRANCH   1  20
TORSDOF 1
ENDMDL
MODEL 7
REMARK VINA RESULT:      -7.2      4.083      7.169
REMARK  Name = 
REMARK  3 active torsions:
REMARK  status: ('A' for Active; 'I' for Inactive)
REMARK    1  A    between atoms: C_1  and  C_2
REMARK    2  A    between atoms: C_5  and  C_6
REMARK    3  A    between atoms: C_7  and  N_8
REMARK                            x       y       z     vdW  Elec       q    Type
REMARK                         _______ _______ _______ _____ _____    ______ ____
ROOT
ATOM      1  N   UNL     1       2.510   6.272  19.339  0.00  0.00    +0.000 N 
ATOM      2  C   UNL     1       1.982   7.524  19.099  0.00  0.00    +0.000 C 
ATOM      3  N   UNL     1       1.868   8.060  17.916  0.00  0.00    +0.000 NA
ATOM      4  S   UNL     1       1.241   9.565  17.987  0.00  0.00    +0.000 S 
ATOM      5  O   UNL     1      -0.089   9.590  17.425  0.00  0.00    +0.000 OA
ATOM      6  O   UNL     1       2.250  10.544  17.656  0.00  0.00    +0.000 OA
ATOM      7  C   UNL     1       1.060   9.588  19.713  0.00  0.00    +0.000 A 
ATOM      8  C   UNL     1       0.600  10.624  20.501  0.00  0.00    +0.000 A 
ATOM      9  C   UNL     1       0.574  10.402  21.877  0.00  0.00    +0.000 A 
ATOM     10  C   UNL     1       1.000   9.170  22.410  0.00  0.00    +0.000 A 
ATOM     11  C   UNL     1       1.468   8.141  21.579  0.00  0.00    +0.000 A 
ATOM     12  C   UNL     1       1.494   8.374  20.215  0.00  0.00    +0.000 A 
ATOM     13  H   UNL     1       2.480   5.888  20.273  0.00  0.00    +0.000 HD
ENDROOT
BRANCH   1  20
ATOM     14  C   UNL     1       7.233   6.227  17.834  0.00  0.00    +0.000 C 
ATOM     15  C   UNL     1       5.855   5.639  17.775  0.00  0.00    +0.000 A 
ATOM     16  C   UNL     1       5.557   4.555  16.952  0.00  0.00    +0.000 A 
ATOM     17  C   UNL     1       4.264   4.030  16.926  0.00  0.00    +0.000 A 
ATOM     18  C   UNL     1       3.241   4.578  17.720  0.00  0.00    +0.000 A 
ATOM     19  C   UNL     1       1.857   3.997  17.627  0.00  0.00    +0.000 C 
ATOM     20  C   UNL     1       3.527   5.679  18.552  0.00  0.00    +0.000 A 
ATOM     21  C   UNL     1       4.837   6.191  18.561  0.00  0.00    +0.000 A 
ENDBRANCH   1  20
TORSDOF 1
ENDMDL
MODEL 8
REMARK VINA RESULT:      -7.0      4.655      6.591
REMARK  Name = 
REMARK  3 active torsions:
REMARK  status: ('A' for Active; 'I' for Inactive)
REMARK    1  A    between atoms: C_1  and  C_2
REMARK    2  A    between atoms: C_5  and  C_6
REMARK    3  A    between atoms: C_7  and  N_8
REMARK                            x       y       z     vdW  Elec       q    Type
REMARK                         _______ _______ _______ _____ _____    ______ ____
ROOT
ATOM      1  N   UNL     1       2.921   6.803  18.899  0.00  0.00    +0.000 N 
ATOM      2  C   UNL     1       2.124   7.595  19.698  0.00  0.00    +0.000 C 
ATOM      3  N   UNL     1       1.794   7.304  20.927  0.00  0.00    +0.000 NA
ATOM      4  S   UNL     1       0.809   8.432  21.575  0.00  0.00    +0.000 S 
ATOM      5  O   UNL     1       1.493   9.171  22.611  0.00  0.00    +0.000 OA
ATOM      6  O   UNL     1      -0.523   7.897  21.743  0.00  0.00    +0.000 OA
ATOM      7  C   UNL     1       0.774   9.449  20.170  0.00  0.00    +0.000 A 
ATOM      8  C   UNL     1       0.063  10.620  19.992  0.00  0.00    +0.000 A 
ATOM      9  C   UNL     1       0.182  11.243  18.750  0.00  0.00    +0.000 A 
ATOM     10  C   UNL     1       0.996  10.684  17.745  0.00  0.00    +0.000 A 
ATOM     11  C   UNL     1       1.698   9.489  17.959  0.00  0.00    +0.000 A 
ATOM     12  C   UNL     1       1.569   8.877  19.194  0.00  0.00    +0.000 A 
ATOM     13  H   UNL     1       3.209   7.139  17.991  0.00  0.00    +0.000 HD
ENDROOT
BRANCH   1  20
ATOM     14  C   UNL     1       0.520   2.466  18.902  0.00  0.00    +0.000 C 
ATOM     15  C   UNL     1       1.808   3.226  19.003  0.00  0.00    +0.000 A 
ATOM     16  C   UNL     1       3.027   2.580  19.202  0.00  0.00    +0.000 A 
ATOM     17  C   UNL     1       4.207   3.321  19.288  0.00  0.00    +0.000 A 
ATOM     18  C   UNL     1       4.195   4.722  19.177  0.00  0.00    +0.000 A 
ATOM     19  C   UNL     1       5.490   5.474  19.312  0.00  0.00    +0.000 C 
ATOM     20  C   UNL     1       2.969   5.389  18.982  0.00  0.00    +0.000 A 
ATOM     21  C   UNL     1       1.793   4.622  18.900  0.00  0.00    +0.000 A 
ENDBRANCH   1  20
TORSDOF 1
ENDMDL
MODEL 9
REMARK VINA RESULT:      -7.0      4.450      6.515
REMARK  Name = 
REMARK  3 active torsions:
REMARK  status: ('A' for Active; 'I' for Inactive)
REMARK    1  A    between atoms: C_1  and  C_2
REMARK    2  A    between atoms: C_5  and  C_6
REMARK    3  A    between atoms: C_7  and  N_8
REMARK                            x       y       z     vdW  Elec       q    Type
REMARK                         _______ _______ _______ _____ _____    ______ ____
ROOT
ATOM      1  N   UNL     1       2.803   6.619  19.168  0.00  0.00    +0.000 N 
ATOM      2  C   UNL     1       2.035   7.505  19.894  0.00  0.00    +0.000 C 
ATOM      3  N   UNL     1       1.603   7.284  21.105  0.00  0.00    +0.000 NA
ATOM      4  S   UNL     1       0.690   8.517  21.659  0.00  0.00    +0.000 S 
ATOM      5  O   UNL     1       1.374   9.222  22.718  0.00  0.00    +0.000 OA
ATOM      6  O   UNL     1      -0.694   8.113  21.755  0.00  0.00    +0.000 OA
ATOM      7  C   UNL     1       0.837   9.490  20.230  0.00  0.00    +0.000 A 
ATOM      8  C   UNL     1       0.252  10.714  19.976  0.00  0.00    +0.000 A 
ATOM      9  C   UNL     1       0.505  11.285  18.730  0.00  0.00    +0.000 A 
ATOM     10  C   UNL     1       1.324  10.623  17.794  0.00  0.00    +0.000 A 
ATOM     11  C   UNL     1       1.896   9.375  18.084  0.00  0.00    +0.000 A 
ATOM     12  C   UNL     1       1.634   8.816  19.322  0.00  0.00    +0.000 A 
ATOM     13  H   UNL     1       3.177   6.899  18.272  0.00  0.00    +0.000 HD
ENDROOT
BRANCH   1  20
ATOM     14  C   UNL     1       1.314   2.666  21.764  0.00  0.00    +0.000 C 
ATOM     15  C   UNL     1       2.002   3.233  20.558  0.00  0.00    +0.000 A 
ATOM     16  C   UNL     1       2.569   2.411  19.586  0.00  0.00    +0.000 A 
ATOM     17  C   UNL     1       3.199   2.973  18.474  0.00  0.00    +0.000 A 
ATOM     18  C   UNL     1       3.276   4.367  18.311  0.00  0.00    +0.000 A 
ATOM     19  C   UNL     1       3.996   4.921  17.112  0.00  0.00    +0.000 C 
ATOM     20  C   UNL     1       2.712   5.210  19.290  0.00  0.00    +0.000 A 
ATOM     21  C   UNL     1       2.084   4.621  20.401  0.00  0.00    +0.000 A 
ENDBRANCH   1  20
TORSDOF 1
ENDMDL
