MODEL 1
REMARK VINA RESULT:      -6.9      0.000      0.000
REMARK  Name = 
REMARK  9 active torsions:
REMARK  status: ('A' for Active; 'I' for Inactive)
REMARK    1  A    between atoms: C_1  and  O_2
REMARK    2  A    between atoms: O_2  and  C_3
REMARK    3  A    between atoms: C_13  and  C_15
REMARK    4  A    between atoms: C_24  and  O_25
REMARK    5  A    between atoms: O_25  and  C_26
REMARK    6  A    between atoms: C_27  and  O_28
REMARK    7  A    between atoms: O_28  and  C_29
REMARK    8  A    between atoms: C_30  and  O_31
REMARK    9  A    between atoms: O_31  and  C_32
REMARK                            x       y       z     vdW  Elec       q    Type
REMARK                         _______ _______ _______ _____ _____    ______ ____
ROOT
ATOM      1  C   UNL     1       0.523  13.798  19.992  0.00  0.00    +0.000 C 
ATOM      2  C   UNL     1      -0.083  12.804  19.314  0.00  0.00    +0.000 C 
ATOM      3  C   UNL     1      -0.931  11.686  19.921  0.00  0.00    +0.000 C 
ATOM      4  C   UNL     1      -0.670  11.622  21.442  0.00  0.00    +0.000 C 
ATOM      5  C   UNL     1      -0.066  12.591  22.150  0.00  0.00    +0.000 C 
ATOM      6  C   UNL     1       0.444  13.814  21.497  0.00  0.00    +0.000 C 
ATOM      7  O   UNL     1       0.842  14.730  22.209  0.00  0.00    +0.000 OA
ATOM      8  C   UNL     1      -0.843  10.271  22.074  0.00  0.00    +0.000 C 
ATOM      9  C   UNL     1       0.311   9.404  21.537  0.00  0.00    +0.000 C 
ATOM     10  N   UNL     1       0.549   9.557  20.079  0.00  0.00    +0.000 N 
ATOM     11  C   UNL     1       1.527   8.702  19.551  0.00  0.00    +0.000 C 
ATOM     12  O   UNL     1       2.001   7.811  20.275  0.00  0.00    +0.000 OA
ATOM     13  C   UNL     1      -0.577  10.216  19.372  0.00  0.00    +0.000 C 
ATOM     14  C   UNL     1      -0.763  10.134  17.863  0.00  0.00    +0.000 C 
ATOM     15  C   UNL     1      -2.257  10.249  17.576  0.00  0.00    +0.000 C 
ATOM     16  C   UNL     1      -3.011  11.217  18.463  0.00  0.00    +0.000 A 
ATOM     17  C   UNL     1      -4.382  11.349  18.202  0.00  0.00    +0.000 A 
ATOM     18  C   UNL     1      -5.205  12.201  18.940  0.00  0.00    +0.000 A 
ATOM     19  C   UNL     1      -4.628  12.998  19.950  0.00  0.00    +0.000 A 
ATOM     20  C   UNL     1      -3.237  12.879  20.220  0.00  0.00    +0.000 A 
ATOM     21  C   UNL     1      -2.426  11.935  19.535  0.00  0.00    +0.000 A 
ENDROOT
BRANCH  11  22
ATOM     22  C   UNL     1       2.042   8.862  18.104  0.00  0.00    +0.000 C 
ATOM     23  F   UNL     1       2.229  10.156  17.727  0.00  0.00    +0.000 F 
ATOM     24  F   UNL     1       3.247   8.251  17.917  0.00  0.00    +0.000 F 
ATOM     25  F   UNL     1       1.197   8.303  17.191  0.00  0.00    +0.000 F 
ENDBRANCH  11  22
BRANCH   1  27
ATOM     26  C   UNL     1       2.582  14.603  19.037  0.00  0.00    +0.000 C 
ATOM     27  O   UNL     1       1.184  14.768  19.248  0.00  0.00    +0.000 OA
ENDBRANCH   1  27
BRANCH  18  28
ATOM     28  O   UNL     1      -6.547  12.316  18.692  0.00  0.00    +0.000 OA
ATOM     29  C   UNL     1      -6.976  12.728  17.401  0.00  0.00    +0.000 C 
ENDBRANCH  18  28
BRANCH  19  30
ATOM     30  O   UNL     1      -5.291  13.924  20.712  0.00  0.00    +0.000 OA
ATOM     31  C   UNL     1      -5.948  13.557  21.911  0.00  0.00    +0.000 C 
ENDBRANCH  19  30
BRANCH  20  32
ATOM     32  O   UNL     1      -2.540  13.729  21.044  0.00  0.00    +0.000 OA
ATOM     33  C   UNL     1      -2.660  15.134  20.873  0.00  0.00    +0.000 C 
ENDBRANCH  20  32
TORSDOF 5
ENDMDL
MODEL 2
REMARK VINA RESULT:      -6.5      1.009      1.260
REMARK  Name = 
REMARK  9 active torsions:
REMARK  status: ('A' for Active; 'I' for Inactive)
REMARK    1  A    between atoms: C_1  and  O_2
REMARK    2  A    between atoms: O_2  and  C_3
REMARK    3  A    between atoms: C_13  and  C_15
REMARK    4  A    between atoms: C_24  and  O_25
REMARK    5  A    between atoms: O_25  and  C_26
REMARK    6  A    between atoms: C_27  and  O_28
REMARK    7  A    between atoms: O_28  and  C_29
REMARK    8  A    between atoms: C_30  and  O_31
REMARK    9  A    between atoms: O_31  and  C_32
REMARK                            x       y       z     vdW  Elec       q    Type
REMARK                         _______ _______ _______ _____ _____    ______ ____
ROOT
ATOM      1  C   UNL     1      -0.015  14.488  20.300  0.00  0.00    +0.000 C 
ATOM      2  C   UNL     1      -0.627  13.476  19.653  0.00  0.00    +0.000 C 
ATOM      3  C   UNL     1      -1.425  12.345  20.302  0.00  0.00    +0.000 C 
ATOM      4  C   UNL     1      -1.100  12.297  21.811  0.00  0.00    +0.000 C 
ATOM      5  C   UNL     1      -0.488  13.284  22.487  0.00  0.00    +0.000 C 
ATOM      6  C   UNL     1      -0.031  14.512  21.806  0.00  0.00    +0.000 C 
ATOM      7  O   UNL     1       0.376  15.442  22.495  0.00  0.00    +0.000 OA
ATOM      8  C   UNL     1      -1.218  10.948  22.458  0.00  0.00    +0.000 C 
ATOM      9  C   UNL     1      -0.069  10.101  21.878  0.00  0.00    +0.000 C 
ATOM     10  N   UNL     1       0.106  10.250  20.411  0.00  0.00    +0.000 N 
ATOM     11  C   UNL     1       1.078   9.412  19.848  0.00  0.00    +0.000 C 
ATOM     12  O   UNL     1       1.601   8.535  20.556  0.00  0.00    +0.000 OA
ATOM     13  C   UNL     1      -1.063  10.879  19.748  0.00  0.00    +0.000 C 
ATOM     14  C   UNL     1      -1.310  10.783  18.248  0.00  0.00    +0.000 C 
ATOM     15  C   UNL     1      -2.816  10.864  18.023  0.00  0.00    +0.000 C 
ATOM     16  C   UNL     1      -3.553  11.823  18.935  0.00  0.00    +0.000 A 
ATOM     17  C   UNL     1      -4.937  11.924  18.730  0.00  0.00    +0.000 A 
ATOM     18  C   UNL     1      -5.746  12.763  19.497  0.00  0.00    +0.000 A 
ATOM     19  C   UNL     1      -5.145  13.579  20.477  0.00  0.00    +0.000 A 
ATOM     20  C   UNL     1      -3.742  13.492  20.690  0.00  0.00    +0.000 A 
ATOM     21  C   UNL     1      -2.940  12.560  19.977  0.00  0.00    +0.000 A 
ENDROOT
BRANCH  11  22
ATOM     22  C   UNL     1       1.529   9.572  18.379  0.00  0.00    +0.000 C 
ATOM     23  F   UNL     1       2.662   8.882  18.074  0.00  0.00    +0.000 F 
ATOM     24  F   UNL     1       0.585   9.129  17.500  0.00  0.00    +0.000 F 
ATOM     25  F   UNL     1       1.760  10.876  18.050  0.00  0.00    +0.000 F 
ENDBRANCH  11  22
BRANCH   1  27
ATOM     26  C   UNL     1      -0.192  16.100  18.519  0.00  0.00    +0.000 C 
ATOM     27  O   UNL     1       0.593  15.466  19.522  0.00  0.00    +0.000 OA
ENDBRANCH   1  27
BRANCH  18  28
ATOM     28  O   UNL     1      -7.100  12.848  19.305  0.00  0.00    +0.000 OA
ATOM     29  C   UNL     1      -7.591  13.245  18.031  0.00  0.00    +0.000 C 
ENDBRANCH  18  28
BRANCH  19  30
ATOM     30  O   UNL     1      -5.795  14.497  21.261  0.00  0.00    +0.000 OA
ATOM     31  C   UNL     1      -6.351  14.135  22.512  0.00  0.00    +0.000 C 
ENDBRANCH  19  30
BRANCH  20  32
ATOM     32  O   UNL     1      -3.029  14.362  21.478  0.00  0.00    +0.000 OA
ATOM     33  C   UNL     1      -3.131  15.761  21.256  0.00  0.00    +0.000 C 
ENDBRANCH  20  32
TORSDOF 5
ENDMDL
MODEL 3
REMARK VINA RESULT:      -6.3      7.770     10.674
REMARK  Name = 
REMARK  9 active torsions:
REMARK  status: ('A' for Active; 'I' for Inactive)
REMARK    1  A    between atoms: C_1  and  O_2
REMARK    2  A    between atoms: O_2  and  C_3
REMARK    3  A    between atoms: C_13  and  C_15
REMARK    4  A    between atoms: C_24  and  O_25
REMARK    5  A    between atoms: O_25  and  C_26
REMARK    6  A    between atoms: C_27  and  O_28
REMARK    7  A    between atoms: O_28  and  C_29
REMARK    8  A    between atoms: C_30  and  O_31
REMARK    9  A    between atoms: O_31  and  C_32
REMARK                            x       y       z     vdW  Elec       q    Type
REMARK                         _______ _______ _______ _____ _____    ______ ____
ROOT
ATOM      1  C   UNL     1       6.248  15.266  18.756  0.00  0.00    +0.000 C 
ATOM      2  C   UNL     1       7.114  14.348  19.230  0.00  0.00    +0.000 C 
ATOM      3  C   UNL     1       8.218  14.597  20.257  0.00  0.00    +0.000 C 
ATOM      4  C   UNL     1       8.463  16.118  20.377  0.00  0.00    +0.000 C 
ATOM      5  C   UNL     1       7.625  17.060  19.914  0.00  0.00    +0.000 C 
ATOM      6  C   UNL     1       6.386  16.700  19.197  0.00  0.00    +0.000 C 
ATOM      7  O   UNL     1       5.585  17.591  18.937  0.00  0.00    +0.000 OA
ATOM      8  C   UNL     1       9.855  16.522  20.769  0.00  0.00    +0.000 C 
ATOM      9  C   UNL     1      10.750  16.169  19.566  0.00  0.00    +0.000 C 
ATOM     10  N   UNL     1      10.463  14.839  18.972  0.00  0.00    +0.000 N 
ATOM     11  C   UNL     1      11.333  14.455  17.942  0.00  0.00    +0.000 C 
ATOM     12  O   UNL     1      12.331  15.156  17.705  0.00  0.00    +0.000 OA
ATOM     13  C   UNL     1       9.645  13.972  19.857  0.00  0.00    +0.000 C 
ATOM     14  C   UNL     1       9.552  12.463  19.675  0.00  0.00    +0.000 C 
ATOM     15  C   UNL     1       9.289  11.849  21.046  0.00  0.00    +0.000 C 
ATOM     16  C   UNL     1       8.362  12.645  21.941  0.00  0.00    +0.000 A 
ATOM     17  C   UNL     1       8.095  12.086  23.199  0.00  0.00    +0.000 A 
ATOM     18  C   UNL     1       7.263  12.708  24.132  0.00  0.00    +0.000 A 
ATOM     19  C   UNL     1       6.626  13.914  23.777  0.00  0.00    +0.000 A 
ATOM     20  C   UNL     1       6.883  14.488  22.501  0.00  0.00    +0.000 A 
ATOM     21  C   UNL     1       7.811  13.903  21.598  0.00  0.00    +0.000 A 
ENDROOT
BRANCH  11  22
ATOM     22  C   UNL     1      11.062  13.201  17.082  0.00  0.00    +0.000 C 
ATOM     23  F   UNL     1      11.579  13.274  15.826  0.00  0.00    +0.000 F 
ATOM     24  F   UNL     1      11.600  12.075  17.633  0.00  0.00    +0.000 F 
ATOM     25  F   UNL     1       9.729  12.947  16.947  0.00  0.00    +0.000 F 
ENDBRANCH  11  22
BRANCH   1  27
ATOM     26  C   UNL     1       3.976  14.540  18.426  0.00  0.00    +0.000 C 
ATOM     27  O   UNL     1       5.261  14.822  17.884  0.00  0.00    +0.000 OA
ENDBRANCH   1  27
BRANCH  18  28
ATOM     28  O   UNL     1       7.016  12.167  25.365  0.00  0.00    +0.000 OA
ATOM     29  C   UNL     1       5.965  11.219  25.504  0.00  0.00    +0.000 C 
ENDBRANCH  18  28
BRANCH  19  30
ATOM     30  O   UNL     1       5.735  14.606  24.556  0.00  0.00    +0.000 OA
ATOM     31  C   UNL     1       6.173  15.566  25.500  0.00  0.00    +0.000 C 
ENDBRANCH  19  30
BRANCH  20  32
ATOM     32  O   UNL     1       6.183  15.550  21.982  0.00  0.00    +0.000 OA
ATOM     33  C   UNL     1       4.763  15.518  21.962  0.00  0.00    +0.000 C 
ENDBRANCH  20  32
TORSDOF 5
ENDMDL
MODEL 4
REMARK VINA RESULT:      -6.3      0.961      1.171
REMARK  Name = 
REMARK  9 active torsions:
REMARK  status: ('A' for Active; 'I' for Inactive)
REMARK    1  A    between atoms: C_1  and  O_2
REMARK    2  A    between atoms: O_2  and  C_3
REMARK    3  A    between atoms: C_13  and  C_15
REMARK    4  A    between atoms: C_24  and  O_25
REMARK    5  A    between atoms: O_25  and  C_26
REMARK    6  A    between atoms: C_27  and  O_28
REMARK    7  A    between atoms: O_28  and  C_29
REMARK    8  A    between atoms: C_30  and  O_31
REMARK    9  A    between atoms: O_31  and  C_32
REMARK                            x       y       z     vdW  Elec       q    Type
REMARK                         _______ _______ _______ _____ _____    ______ ____
ROOT
ATOM      1  C   UNL     1       0.478  14.138  20.166  0.00  0.00    +0.000 C 
ATOM      2  C   UNL     1      -0.182  13.157  19.518  0.00  0.00    +0.000 C 
ATOM      3  C   UNL     1      -1.025  12.059  20.165  0.00  0.00    +0.000 C 
ATOM      4  C   UNL     1      -0.695  11.989  21.673  0.00  0.00    +0.000 C 
ATOM      5  C   UNL     1      -0.036  12.945  22.350  0.00  0.00    +0.000 C 
ATOM      6  C   UNL     1       0.470  14.155  21.672  0.00  0.00    +0.000 C 
ATOM      7  O   UNL     1       0.922  15.062  22.364  0.00  0.00    +0.000 OA
ATOM      8  C   UNL     1      -0.869  10.642  22.313  0.00  0.00    +0.000 C 
ATOM      9  C   UNL     1       0.239   9.749  21.723  0.00  0.00    +0.000 C 
ATOM     10  N   UNL     1       0.412   9.897  20.256  0.00  0.00    +0.000 N 
ATOM     11  C   UNL     1       1.344   9.020  19.683  0.00  0.00    +0.000 C 
ATOM     12  O   UNL     1       1.831   8.118  20.385  0.00  0.00    +0.000 OA
ATOM     13  C   UNL     1      -0.731  10.581  19.602  0.00  0.00    +0.000 C 
ATOM     14  C   UNL     1      -0.989  10.504  18.103  0.00  0.00    +0.000 C 
ATOM     15  C   UNL     1      -2.492  10.652  17.887  0.00  0.00    +0.000 C 
ATOM     16  C   UNL     1      -3.181  11.638  18.807  0.00  0.00    +0.000 A 
ATOM     17  C   UNL     1      -4.560  11.800  18.610  0.00  0.00    +0.000 A 
ATOM     18  C   UNL     1      -5.328  12.671  19.386  0.00  0.00    +0.000 A 
ATOM     19  C   UNL     1      -4.687  13.454  20.366  0.00  0.00    +0.000 A 
ATOM     20  C   UNL     1      -3.287  13.304  20.571  0.00  0.00    +0.000 A 
ATOM     21  C   UNL     1      -2.531  12.342  19.849  0.00  0.00    +0.000 A 
ENDROOT
BRANCH  11  22
ATOM     22  C   UNL     1       1.794   9.169  18.213  0.00  0.00    +0.000 C 
ATOM     23  F   UNL     1       0.878   8.723  17.310  0.00  0.00    +0.000 F 
ATOM     24  F   UNL     1       2.034  10.469  17.877  0.00  0.00    +0.000 F 
ATOM     25  F   UNL     1       2.956   8.500  17.960  0.00  0.00    +0.000 F 
ENDBRANCH  11  22
BRANCH   1  27
ATOM     26  C   UNL     1       0.375  16.229  18.976  0.00  0.00    +0.000 C 
ATOM     27  O   UNL     1       1.125  15.092  19.390  0.00  0.00    +0.000 OA
ENDBRANCH   1  27
BRANCH  18  28
ATOM     28  O   UNL     1      -6.677  12.816  19.201  0.00  0.00    +0.000 OA
ATOM     29  C   UNL     1      -7.566  11.962  19.911  0.00  0.00    +0.000 C 
ENDBRANCH  18  28
BRANCH  19  30
ATOM     30  O   UNL     1      -5.291  14.396  21.158  0.00  0.00    +0.000 OA
ATOM     31  C   UNL     1      -5.668  15.659  20.643  0.00  0.00    +0.000 C 
ENDBRANCH  19  30
BRANCH  20  32
ATOM     32  O   UNL     1      -2.533  14.138  21.360  0.00  0.00    +0.000 OA
ATOM     33  C   UNL     1      -2.963  14.443  22.679  0.00  0.00    +0.000 C 
ENDBRANCH  20  32
TORSDOF 5
ENDMDL
MODEL 5
REMARK VINA RESULT:      -6.0      8.610     10.970
REMARK  Name = 
REMARK  9 active torsions:
REMARK  status: ('A' for Active; 'I' for Inactive)
REMARK    1  A    between atoms: C_1  and  O_2
REMARK    2  A    between atoms: O_2  and  C_3
REMARK    3  A    between atoms: C_13  and  C_15
REMARK    4  A    between atoms: C_24  and  O_25
REMARK    5  A    between atoms: O_25  and  C_26
REMARK    6  A    between atoms: C_27  and  O_28
REMARK    7  A    between atoms: O_28  and  C_29
REMARK    8  A    between atoms: C_30  and  O_31
REMARK    9  A    between atoms: O_31  and  C_32
REMARK                            x       y       z     vdW  Elec       q    Type
REMARK                         _______ _______ _______ _____ _____    ______ ____
ROOT
ATOM      1  C   UNL     1       6.545  15.787  19.704  0.00  0.00    +0.000 C 
ATOM      2  C   UNL     1       7.253  14.683  20.013  0.00  0.00    +0.000 C 
ATOM      3  C   UNL     1       8.490  14.627  20.910  0.00  0.00    +0.000 C 
ATOM      4  C   UNL     1       9.050  16.056  21.089  0.00  0.00    +0.000 C 
ATOM      5  C   UNL     1       8.375  17.178  20.788  0.00  0.00    +0.000 C 
ATOM      6  C   UNL     1       7.018  17.126  20.209  0.00  0.00    +0.000 C 
ATOM      7  O   UNL     1       6.391  18.174  20.103  0.00  0.00    +0.000 OA
ATOM      8  C   UNL     1      10.529  16.147  21.330  0.00  0.00    +0.000 C 
ATOM      9  C   UNL     1      11.198  15.728  20.008  0.00  0.00    +0.000 C 
ATOM     10  N   UNL     1      10.584  14.532  19.376  0.00  0.00    +0.000 N 
ATOM     11  C   UNL     1      11.241  14.073  18.226  0.00  0.00    +0.000 C 
ATOM     12  O   UNL     1      12.329  14.584  17.910  0.00  0.00    +0.000 OA
ATOM     13  C   UNL     1       9.709  13.771  20.302  0.00  0.00    +0.000 C 
ATOM     14  C   UNL     1       9.292  12.330  20.043  0.00  0.00    +0.000 C 
ATOM     15  C   UNL     1       9.060  11.667  21.398  0.00  0.00    +0.000 C 
ATOM     16  C   UNL     1       8.417  12.552  22.446  0.00  0.00    +0.000 A 
ATOM     17  C   UNL     1       8.179  11.954  23.692  0.00  0.00    +0.000 A 
ATOM     18  C   UNL     1       7.597  12.647  24.754  0.00  0.00    +0.000 A 
ATOM     19  C   UNL     1       7.183  13.979  24.552  0.00  0.00    +0.000 A 
ATOM     20  C   UNL     1       7.412  14.595  23.291  0.00  0.00    +0.000 A 
ATOM     21  C   UNL     1       8.098  13.918  22.247  0.00  0.00    +0.000 A 
ENDROOT
BRANCH  11  22
ATOM     22  C   UNL     1      10.630  12.970  17.334  0.00  0.00    +0.000 C 
ATOM     23  F   UNL     1      10.821  11.710  17.810  0.00  0.00    +0.000 F 
ATOM     24  F   UNL     1       9.280  13.108  17.198  0.00  0.00    +0.000 F 
ATOM     25  F   UNL     1      11.135  12.995  16.067  0.00  0.00    +0.000 F 
ENDBRANCH  11  22
BRANCH   1  27
ATOM     26  C   UNL     1       5.466  14.712  17.839  0.00  0.00    +0.000 C 
ATOM     27  O   UNL     1       5.400  15.617  18.935  0.00  0.00    +0.000 OA
ENDBRANCH   1  27
BRANCH  18  28
ATOM     28  O   UNL     1       7.380  12.065  25.975  0.00  0.00    +0.000 OA
ATOM     29  C   UNL     1       6.310  11.140  26.117  0.00  0.00    +0.000 C 
ENDBRANCH  18  28
BRANCH  19  30
ATOM     30  O   UNL     1       6.541  14.765  25.474  0.00  0.00    +0.000 OA
ATOM     31  C   UNL     1       7.264  15.528  26.422  0.00  0.00    +0.000 C 
ENDBRANCH  19  30
BRANCH  20  32
ATOM     32  O   UNL     1       6.889  15.812  22.925  0.00  0.00    +0.000 OA
ATOM     33  C   UNL     1       5.485  16.020  22.969  0.00  0.00    +0.000 C 
ENDBRANCH  20  32
TORSDOF 5
ENDMDL
MODEL 6
REMARK VINA RESULT:      -6.0      3.444      6.641
REMARK  Name = 
REMARK  9 active torsions:
REMARK  status: ('A' for Active; 'I' for Inactive)
REMARK    1  A    between atoms: C_1  and  O_2
REMARK    2  A    between atoms: O_2  and  C_3
REMARK    3  A    between atoms: C_13  and  C_15
REMARK    4  A    between atoms: C_24  and  O_25
REMARK    5  A    between atoms: O_25  and  C_26
REMARK    6  A    between atoms: C_27  and  O_28
REMARK    7  A    between atoms: O_28  and  C_29
REMARK    8  A    between atoms: C_30  and  O_31
REMARK    9  A    between atoms: O_31  and  C_32
REMARK                            x       y       z     vdW  Elec       q    Type
REMARK                         _______ _______ _______ _____ _____    ______ ____
ROOT
ATOM      1  C   UNL     1       0.660  14.329  20.639  0.00  0.00    +0.000 C 
ATOM      2  C   UNL     1       0.210  13.263  21.330  0.00  0.00    +0.000 C 
ATOM      3  C   UNL     1      -0.713  12.168  20.796  0.00  0.00    +0.000 C 
ATOM      4  C   UNL     1      -1.376  12.658  19.489  0.00  0.00    +0.000 C 
ATOM      5  C   UNL     1      -0.957  13.718  18.777  0.00  0.00    +0.000 C 
ATOM      6  C   UNL     1       0.183  14.542  19.226  0.00  0.00    +0.000 C 
ATOM      7  O   UNL     1       0.619  15.396  18.462  0.00  0.00    +0.000 OA
ATOM      8  C   UNL     1      -2.729  12.080  19.192  0.00  0.00    +0.000 C 
ATOM      9  C   UNL     1      -3.681  12.672  20.249  0.00  0.00    +0.000 C 
ATOM     10  N   UNL     1      -3.121  12.679  21.624  0.00  0.00    +0.000 N 
ATOM     11  C   UNL     1      -4.008  13.119  22.617  0.00  0.00    +0.000 C 
ATOM     12  O   UNL     1      -5.196  13.323  22.315  0.00  0.00    +0.000 OA
ATOM     13  C   UNL     1      -1.936  11.799  21.774  0.00  0.00    +0.000 C 
ATOM     14  C   UNL     1      -1.430  11.321  23.128  0.00  0.00    +0.000 C 
ATOM     15  C   UNL     1      -0.751   9.972  22.916  0.00  0.00    +0.000 C 
ATOM     16  C   UNL     1       0.042   9.844  21.631  0.00  0.00    +0.000 A 
ATOM     17  C   UNL     1       0.687   8.616  21.429  0.00  0.00    +0.000 A 
ATOM     18  C   UNL     1       1.450   8.352  20.289  0.00  0.00    +0.000 A 
ATOM     19  C   UNL     1       1.622   9.374  19.334  0.00  0.00    +0.000 A 
ATOM     20  C   UNL     1       0.978  10.627  19.531  0.00  0.00    +0.000 A 
ATOM     21  C   UNL     1       0.120  10.853  20.641  0.00  0.00    +0.000 A 
ENDROOT
BRANCH  11  22
ATOM     22  C   UNL     1      -3.536  13.379  24.064  0.00  0.00    +0.000 C 
ATOM     23  F   UNL     1      -2.234  13.764  24.156  0.00  0.00    +0.000 F 
ATOM     24  F   UNL     1      -4.252  14.369  24.669  0.00  0.00    +0.000 F 
ATOM     25  F   UNL     1      -3.679  12.279  24.858  0.00  0.00    +0.000 F 
ENDBRANCH  11  22
BRANCH   1  27
ATOM     26  C   UNL     1       2.933  14.800  21.281  0.00  0.00    +0.000 C 
ATOM     27  O   UNL     1       1.560  15.172  21.281  0.00  0.00    +0.000 OA
ENDBRANCH   1  27
BRANCH  18  28
ATOM     28  O   UNL     1       2.067   7.147  20.087  0.00  0.00    +0.000 OA
ATOM     29  C   UNL     1       1.545   5.989  20.727  0.00  0.00    +0.000 C 
ENDBRANCH  18  28
BRANCH  19  30
ATOM     30  O   UNL     1       2.390   9.289  18.202  0.00  0.00    +0.000 OA
ATOM     31  C   UNL     1       2.496   8.080  17.473  0.00  0.00    +0.000 C 
ENDBRANCH  19  30
BRANCH  20  32
ATOM     32  O   UNL     1       1.222  11.744  18.770  0.00  0.00    +0.000 OA
ATOM     33  C   UNL     1       2.553  12.065  18.393  0.00  0.00    +0.000 C 
ENDBRANCH  20  32
TORSDOF 5
ENDMDL
MODEL 7
REMARK VINA RESULT:      -6.0      4.066      6.241
REMARK  Name = 
REMARK  9 active torsions:
REMARK  status: ('A' for Active; 'I' for Inactive)
REMARK    1  A    between atoms: C_1  and  O_2
REMARK    2  A    between atoms: O_2  and  C_3
REMARK    3  A    between atoms: C_13  and  C_15
REMARK    4  A    between atoms: C_24  and  O_25
REMARK    5  A    between atoms: O_25  and  C_26
REMARK    6  A    between atoms: C_27  and  O_28
REMARK    7  A    between atoms: O_28  and  C_29
REMARK    8  A    between atoms: C_30  and  O_31
REMARK    9  A    between atoms: O_31  and  C_32
REMARK                            x       y       z     vdW  Elec       q    Type
REMARK                         _______ _______ _______ _____ _____    ______ ____
ROOT
ATOM      1  C   UNL     1      -0.466  11.780  22.334  0.00  0.00    +0.000 C 
ATOM      2  C   UNL     1      -1.671  12.383  22.367  0.00  0.00    +0.000 C 
ATOM      3  C   UNL     1      -2.162  13.468  21.409  0.00  0.00    +0.000 C 
ATOM      4  C   UNL     1      -0.952  14.060  20.653  0.00  0.00    +0.000 C 
ATOM      5  C   UNL     1       0.264  13.489  20.602  0.00  0.00    +0.000 C 
ATOM      6  C   UNL     1       0.553  12.233  21.321  0.00  0.00    +0.000 C 
ATOM      7  O   UNL     1       1.626  11.677  21.112  0.00  0.00    +0.000 OA
ATOM      8  C   UNL     1      -1.095  15.489  20.216  0.00  0.00    +0.000 C 
ATOM      9  C   UNL     1      -1.079  16.328  21.508  0.00  0.00    +0.000 C 
ATOM     10  N   UNL     1      -1.906  15.761  22.603  0.00  0.00    +0.000 N 
ATOM     11  C   UNL     1      -1.987  16.560  23.751  0.00  0.00    +0.000 C 
ATOM     12  O   UNL     1      -1.505  17.705  23.723  0.00  0.00    +0.000 OA
ATOM     13  C   UNL     1      -2.858  14.724  22.134  0.00  0.00    +0.000 C 
ATOM     14  C   UNL     1      -4.066  14.285  22.952  0.00  0.00    +0.000 C 
ATOM     15  C   UNL     1      -5.142  13.824  21.973  0.00  0.00    +0.000 C 
ATOM     16  C   UNL     1      -4.630  13.073  20.761  0.00  0.00    +0.000 A 
ATOM     17  C   UNL     1      -5.607  12.625  19.859  0.00  0.00    +0.000 A 
ATOM     18  C   UNL     1      -5.284  11.923  18.696  0.00  0.00    +0.000 A 
ATOM     19  C   UNL     1      -3.934  11.606  18.446  0.00  0.00    +0.000 A 
ATOM     20  C   UNL     1      -2.935  12.047  19.356  0.00  0.00    +0.000 A 
ATOM     21  C   UNL     1      -3.259  12.849  20.483  0.00  0.00    +0.000 A 
ENDROOT
BRANCH  11  22
ATOM     22  C   UNL     1      -2.635  16.039  25.053  0.00  0.00    +0.000 C 
ATOM     23  F   UNL     1      -2.410  14.718  25.289  0.00  0.00    +0.000 F 
ATOM     24  F   UNL     1      -2.168  16.691  26.157  0.00  0.00    +0.000 F 
ATOM     25  F   UNL     1      -3.987  16.217  25.063  0.00  0.00    +0.000 F 
ENDBRANCH  11  22
BRANCH   1  27
ATOM     26  C   UNL     1      -0.499   9.422  22.822  0.00  0.00    +0.000 C 
ATOM     27  O   UNL     1      -0.240  10.755  23.246  0.00  0.00    +0.000 OA
ENDBRANCH   1  27
BRANCH  18  28
ATOM     28  O   UNL     1      -6.239  11.501  17.810  0.00  0.00    +0.000 OA
ATOM     29  C   UNL     1      -7.175  12.445  17.304  0.00  0.00    +0.000 C 
ENDBRANCH  18  28
BRANCH  19  30
ATOM     30  O   UNL     1      -3.470  10.870  17.386  0.00  0.00    +0.000 OA
ATOM     31  C   UNL     1      -3.295  11.450  16.107  0.00  0.00    +0.000 C 
ENDBRANCH  19  30
BRANCH  20  32
ATOM     32  O   UNL     1      -1.623  11.641  19.312  0.00  0.00    +0.000 OA
ATOM     33  C   UNL     1      -1.315  10.263  19.162  0.00  0.00    +0.000 C 
ENDBRANCH  20  32
TORSDOF 5
ENDMDL
MODEL 8
REMARK VINA RESULT:      -5.9      2.829      5.588
REMARK  Name = 
REMARK  9 active torsions:
REMARK  status: ('A' for Active; 'I' for Inactive)
REMARK    1  A    between atoms: C_1  and  O_2
REMARK    2  A    between atoms: O_2  and  C_3
REMARK    3  A    between atoms: C_13  and  C_15
REMARK    4  A    between atoms: C_24  and  O_25
REMARK    5  A    between atoms: O_25  and  C_26
REMARK    6  A    between atoms: C_27  and  O_28
REMARK    7  A    between atoms: O_28  and  C_29
REMARK    8  A    between atoms: C_30  and  O_31
REMARK    9  A    between atoms: O_31  and  C_32
REMARK                            x       y       z     vdW  Elec       q    Type
REMARK                         _______ _______ _______ _____ _____    ______ ____
ROOT
ATOM      1  C   UNL     1      -2.061  11.684  22.885  0.00  0.00    +0.000 C 
ATOM      2  C   UNL     1      -1.646  12.144  21.687  0.00  0.00    +0.000 C 
ATOM      3  C   UNL     1      -2.328  13.229  20.854  0.00  0.00    +0.000 C 
ATOM      4  C   UNL     1      -3.765  13.442  21.379  0.00  0.00    +0.000 C 
ATOM      5  C   UNL     1      -4.214  12.995  22.564  0.00  0.00    +0.000 C 
ATOM      6  C   UNL     1      -3.348  12.209  23.465  0.00  0.00    +0.000 C 
ATOM      7  O   UNL     1      -3.757  11.964  24.595  0.00  0.00    +0.000 OA
ATOM      8  C   UNL     1      -4.764  13.914  20.362  0.00  0.00    +0.000 C 
ATOM      9  C   UNL     1      -4.972  12.733  19.396  0.00  0.00    +0.000 C 
ATOM     10  N   UNL     1      -3.712  12.056  18.995  0.00  0.00    +0.000 N 
ATOM     11  C   UNL     1      -3.868  11.044  18.038  0.00  0.00    +0.000 C 
ATOM     12  O   UNL     1      -4.979  10.888  17.503  0.00  0.00    +0.000 OA
ATOM     13  C   UNL     1      -2.500  12.857  19.298  0.00  0.00    +0.000 C 
ATOM     14  C   UNL     1      -1.151  12.589  18.646  0.00  0.00    +0.000 C 
ATOM     15  C   UNL     1      -0.394  13.912  18.592  0.00  0.00    +0.000 C 
ATOM     16  C   UNL     1      -0.579  14.809  19.798  0.00  0.00    +0.000 A 
ATOM     17  C   UNL     1       0.124  16.022  19.774  0.00  0.00    +0.000 A 
ATOM     18  C   UNL     1       0.047  16.951  20.814  0.00  0.00    +0.000 A 
ATOM     19  C   UNL     1      -0.722  16.636  21.952  0.00  0.00    +0.000 A 
ATOM     20  C   UNL     1      -1.434  15.406  21.992  0.00  0.00    +0.000 A 
ATOM     21  C   UNL     1      -1.434  14.512  20.888  0.00  0.00    +0.000 A 
ENDROOT
BRANCH  11  22
ATOM     22  C   UNL     1      -2.701  10.107  17.656  0.00  0.00    +0.000 C 
ATOM     23  F   UNL     1      -1.899   9.774  18.703  0.00  0.00    +0.000 F 
ATOM     24  F   UNL     1      -3.141   8.922  17.143  0.00  0.00    +0.000 F 
ATOM     25  F   UNL     1      -1.896  10.650  16.698  0.00  0.00    +0.000 F 
ENDBRANCH  11  22
BRANCH   1  27
ATOM     26  C   UNL     1      -0.344  10.003  22.723  0.00  0.00    +0.000 C 
ATOM     27  O   UNL     1      -1.255  10.749  23.523  0.00  0.00    +0.000 OA
ENDBRANCH   1  27
BRANCH  18  28
ATOM     28  O   UNL     1       0.723  18.142  20.780  0.00  0.00    +0.000 OA
ATOM     29  C   UNL     1       2.133  18.139  20.958  0.00  0.00    +0.000 C 
ENDBRANCH  18  28
BRANCH  19  30
ATOM     30  O   UNL     1      -0.842  17.413  23.075  0.00  0.00    +0.000 OA
ATOM     31  C   UNL     1      -1.821  18.432  23.165  0.00  0.00    +0.000 C 
ENDBRANCH  19  30
BRANCH  20  32
ATOM     32  O   UNL     1      -2.057  14.915  23.114  0.00  0.00    +0.000 OA
ATOM     33  C   UNL     1      -1.345  14.836  24.340  0.00  0.00    +0.000 C 
ENDBRANCH  20  32
TORSDOF 5
ENDMDL
MODEL 9
REMARK VINA RESULT:      -5.7      8.654     11.135
REMARK  Name = 
REMARK  9 active torsions:
REMARK  status: ('A' for Active; 'I' for Inactive)
REMARK    1  A    between atoms: C_1  and  O_2
REMARK    2  A    between atoms: O_2  and  C_3
REMARK    3  A    between atoms: C_13  and  C_15
REMARK    4  A    between atoms: C_24  and  O_25
REMARK    5  A    between atoms: O_25  and  C_26
REMARK    6  A    between atoms: C_27  and  O_28
REMARK    7  A    between atoms: O_28  and  C_29
REMARK    8  A    between atoms: C_30  and  O_31
REMARK    9  A    between atoms: O_31  and  C_32
REMARK                            x       y       z     vdW  Elec       q    Type
REMARK                         _______ _______ _______ _____ _____    ______ ____
ROOT
ATOM      1  C   UNL     1       6.746  15.639  19.861  0.00  0.00    +0.000 C 
ATOM      2  C   UNL     1       7.285  14.594  20.520  0.00  0.00    +0.000 C 
ATOM      3  C   UNL     1       8.561  14.621  21.361  0.00  0.00    +0.000 C 
ATOM      4  C   UNL     1       9.360  15.901  21.028  0.00  0.00    +0.000 C 
ATOM      5  C   UNL     1       8.857  16.959  20.370  0.00  0.00    +0.000 C 
ATOM      6  C   UNL     1       7.469  16.961  19.867  0.00  0.00    +0.000 C 
ATOM      7  O   UNL     1       7.016  18.008  19.416  0.00  0.00    +0.000 OA
ATOM      8  C   UNL     1      10.848  15.801  21.199  0.00  0.00    +0.000 C 
ATOM      9  C   UNL     1      11.335  14.848  20.090  0.00  0.00    +0.000 C 
ATOM     10  N   UNL     1      10.487  13.641  19.919  0.00  0.00    +0.000 N 
ATOM     11  C   UNL     1      10.969  12.712  18.987  0.00  0.00    +0.000 C 
ATOM     12  O   UNL     1      12.098  12.882  18.497  0.00  0.00    +0.000 OA
ATOM     13  C   UNL     1       9.573  13.406  21.065  0.00  0.00    +0.000 C 
ATOM     14  C   UNL     1       8.908  12.062  21.325  0.00  0.00    +0.000 C 
ATOM     15  C   UNL     1       8.675  11.946  22.828  0.00  0.00    +0.000 C 
ATOM     16  C   UNL     1       8.269  13.232  23.518  0.00  0.00    +0.000 A 
ATOM     17  C   UNL     1       8.034  13.140  24.897  0.00  0.00    +0.000 A 
ATOM     18  C   UNL     1       7.656  14.243  25.666  0.00  0.00    +0.000 A 
ATOM     19  C   UNL     1       7.452  15.481  25.024  0.00  0.00    +0.000 A 
ATOM     20  C   UNL     1       7.680  15.586  23.624  0.00  0.00    +0.000 A 
ATOM     21  C   UNL     1       8.163  14.485  22.867  0.00  0.00    +0.000 A 
ENDROOT
BRANCH  11  22
ATOM     22  C   UNL     1      10.119  11.503  18.539  0.00  0.00    +0.000 C 
ATOM     23  F   UNL     1       8.809  11.801  18.326  0.00  0.00    +0.000 F 
ATOM     24  F   UNL     1      10.565  10.967  17.366  0.00  0.00    +0.000 F 
ATOM     25  F   UNL     1      10.151  10.486  19.447  0.00  0.00    +0.000 F 
ENDBRANCH  11  22
BRANCH   1  27
ATOM     26  C   UNL     1       5.558  14.788  17.948  0.00  0.00    +0.000 C 
ATOM     27  O   UNL     1       5.532  15.430  19.217  0.00  0.00    +0.000 OA
ENDBRANCH   1  27
BRANCH  18  28
ATOM     28  O   UNL     1       7.442  14.154  27.016  0.00  0.00    +0.000 OA
ATOM     29  C   UNL     1       7.379  12.868  27.620  0.00  0.00    +0.000 C 
ENDBRANCH  18  28
BRANCH  19  30
ATOM     30  O   UNL     1       7.020  16.633  25.630  0.00  0.00    +0.000 OA
ATOM     31  C   UNL     1       7.931  17.540  26.222  0.00  0.00    +0.000 C 
ENDBRANCH  19  30
BRANCH  20  32
ATOM     32  O   UNL     1       7.337  16.682  22.870  0.00  0.00    +0.000 OA
ATOM     33  C   UNL     1       6.021  17.211  22.950  0.00  0.00    +0.000 C 
ENDBRANCH  20  32
TORSDOF 5
ENDMDL
