MODEL 1
REMARK VINA RESULT:      -8.1      0.000      0.000
REMARK  Name = 
REMARK  5 active torsions:
REMARK  status: ('A' for Active; 'I' for Inactive)
REMARK    1  A    between atoms: C_2  and  C_3
REMARK    2  A    between atoms: C_3  and  C_4
REMARK    3  A    between atoms: C_4  and  C_5
REMARK    4  A    between atoms: N_12  and  C_13
REMARK    5  A    between atoms: C_16  and  C_17
REMARK                            x       y       z     vdW  Elec       q    Type
REMARK                         _______ _______ _______ _____ _____    ______ ____
ROOT
ATOM      1  C   UNL     1       5.734   5.057  17.177  0.00  0.00    +0.000 C 
ATOM      2  O   UNL     1       5.548   5.767  16.190  0.00  0.00    +0.000 OA
ATOM      3  N   UNL     1       4.674   4.435  17.856  0.00  0.00    +0.000 N 
ATOM      4  C   UNL     1       4.849   3.649  19.083  0.00  0.00    +0.000 C 
ATOM      5  C   UNL     1       3.742   2.649  19.421  0.00  0.00    +0.000 C 
ATOM      6  C   UNL     1       3.433   2.608  20.907  0.00  0.00    +0.000 C 
ATOM      7  O   UNL     1       2.018   2.475  21.046  0.00  0.00    +0.000 OA
ATOM      8  N   UNL     1       1.388   2.959  19.821  0.00  0.00    +0.000 NA
ATOM      9  C   UNL     1       0.838   4.265  20.124  0.00  0.00    +0.000 C 
ATOM     10  C   UNL     1       2.388   2.812  18.766  0.00  0.00    +0.000 C 
ATOM     11  C   UNL     1       2.357   3.682  17.510  0.00  0.00    +0.000 C 
ATOM     12  C   UNL     1       3.316   4.880  17.503  0.00  0.00    +0.000 C 
ENDROOT
BRANCH  12  13
ATOM     13  C   UNL     1       2.826   6.106  18.276  0.00  0.00    +0.000 A 
ATOM     14  C   UNL     1       2.817   6.188  19.678  0.00  0.00    +0.000 A 
ATOM     15  C   UNL     1       2.211   7.260  20.339  0.00  0.00    +0.000 A 
ATOM     16  C   UNL     1       1.647   8.294  19.603  0.00  0.00    +0.000 A 
ATOM     17 BR   UNL     1       0.721   9.680  20.491  0.00  0.00    +0.000 Br
ATOM     18  C   UNL     1       1.743   8.296  18.215  0.00  0.00    +0.000 A 
ATOM     19  C   UNL     1       2.346   7.220  17.559  0.00  0.00    +0.000 A 
ENDBRANCH  12  13
BRANCH   1  20
ATOM     20  C   UNL     1       7.132   4.825  17.731  0.00  0.00    +0.000 C 
BRANCH  20  21
ATOM     21  C   UNL     1       7.627   6.038  18.522  0.00  0.00    +0.000 C 
BRANCH  21  23
ATOM     22  C   UNL     1       8.196   8.430  18.021  0.00  0.00    +0.000 C 
ATOM     23  C   UNL     1       7.563   7.294  17.699  0.00  0.00    +0.000 C 
ENDBRANCH  21  23
ENDBRANCH  20  21
ENDBRANCH   1  20
TORSDOF 4
ENDMDL
MODEL 2
REMARK VINA RESULT:      -7.5      1.131      1.758
REMARK  Name = 
REMARK  5 active torsions:
REMARK  status: ('A' for Active; 'I' for Inactive)
REMARK    1  A    between atoms: C_2  and  C_3
REMARK    2  A    between atoms: C_3  and  C_4
REMARK    3  A    between atoms: C_4  and  C_5
REMARK    4  A    between atoms: N_12  and  C_13
REMARK    5  A    between atoms: C_16  and  C_17
REMARK                            x       y       z     vdW  Elec       q    Type
REMARK                         _______ _______ _______ _____ _____    ______ ____
ROOT
ATOM      1  C   UNL     1       5.225   5.842  16.975  0.00  0.00    +0.000 C 
ATOM      2  O   UNL     1       4.886   6.705  16.168  0.00  0.00    +0.000 OA
ATOM      3  N   UNL     1       4.285   5.057  17.662  0.00  0.00    +0.000 N 
ATOM      4  C   UNL     1       4.648   4.076  18.691  0.00  0.00    +0.000 C 
ATOM      5  C   UNL     1       3.624   2.977  18.983  0.00  0.00    +0.000 C 
ATOM      6  C   UNL     1       3.524   2.658  20.464  0.00  0.00    +0.000 C 
ATOM      7  O   UNL     1       2.145   2.431  20.760  0.00  0.00    +0.000 OA
ATOM      8  N   UNL     1       1.340   3.093  19.738  0.00  0.00    +0.000 NA
ATOM      9  C   UNL     1       0.805   4.295  20.344  0.00  0.00    +0.000 C 
ATOM     10  C   UNL     1       2.188   3.186  18.552  0.00  0.00    +0.000 C 
ATOM     11  C   UNL     1       1.962   4.262  17.492  0.00  0.00    +0.000 C 
ATOM     12  C   UNL     1       2.880   5.490  17.577  0.00  0.00    +0.000 C 
ENDROOT
BRANCH  12  13
ATOM     13  C   UNL     1       2.471   6.533  18.619  0.00  0.00    +0.000 A 
ATOM     14  C   UNL     1       2.518   6.308  20.004  0.00  0.00    +0.000 A 
ATOM     15  C   UNL     1       1.982   7.228  20.908  0.00  0.00    +0.000 A 
ATOM     16  C   UNL     1       1.434   8.416  20.440  0.00  0.00    +0.000 A 
ATOM     17 BR   UNL     1       0.600   9.604  21.648  0.00  0.00    +0.000 Br
ATOM     18  C   UNL     1       1.478   8.717  19.082  0.00  0.00    +0.000 A 
ATOM     19  C   UNL     1       2.011   7.791  18.182  0.00  0.00    +0.000 A 
ENDBRANCH  12  13
BRANCH   1  20
ATOM     20  C   UNL     1       6.692   5.586  17.289  0.00  0.00    +0.000 C 
BRANCH  20  21
ATOM     21  C   UNL     1       7.259   4.462  16.419  0.00  0.00    +0.000 C 
BRANCH  21  23
ATOM     22  C   UNL     1       6.322   3.948  14.149  0.00  0.00    +0.000 C 
ATOM     23  C   UNL     1       7.042   4.736  14.957  0.00  0.00    +0.000 C 
ENDBRANCH  21  23
ENDBRANCH  20  21
ENDBRANCH   1  20
TORSDOF 4
ENDMDL
MODEL 3
REMARK VINA RESULT:      -7.5      0.403      1.080
REMARK  Name = 
REMARK  5 active torsions:
REMARK  status: ('A' for Active; 'I' for Inactive)
REMARK    1  A    between atoms: C_2  and  C_3
REMARK    2  A    between atoms: C_3  and  C_4
REMARK    3  A    between atoms: C_4  and  C_5
REMARK    4  A    between atoms: N_12  and  C_13
REMARK    5  A    between atoms: C_16  and  C_17
REMARK                            x       y       z     vdW  Elec       q    Type
REMARK                         _______ _______ _______ _____ _____    ______ ____
ROOT
ATOM      1  C   UNL     1       5.732   4.984  17.383  0.00  0.00    +0.000 C 
ATOM      2  O   UNL     1       5.575   5.651  16.363  0.00  0.00    +0.000 OA
ATOM      3  N   UNL     1       4.670   4.301  17.997  0.00  0.00    +0.000 N 
ATOM      4  C   UNL     1       4.803   3.563  19.258  0.00  0.00    +0.000 C 
ATOM      5  C   UNL     1       3.748   2.491  19.540  0.00  0.00    +0.000 C 
ATOM      6  C   UNL     1       3.324   2.466  20.998  0.00  0.00    +0.000 C 
ATOM      7  O   UNL     1       1.916   2.229  21.029  0.00  0.00    +0.000 OA
ATOM      8  N   UNL     1       1.353   2.632  19.744  0.00  0.00    +0.000 NA
ATOM      9  C   UNL     1       0.686   3.900  19.961  0.00  0.00    +0.000 C 
ATOM     10  C   UNL     1       2.443   2.534  18.775  0.00  0.00    +0.000 C 
ATOM     11  C   UNL     1       2.450   3.365  17.494  0.00  0.00    +0.000 C 
ATOM     12  C   UNL     1       3.315   4.633  17.524  0.00  0.00    +0.000 C 
ENDROOT
BRANCH  12  13
ATOM     13  C   UNL     1       2.676   5.838  18.216  0.00  0.00    +0.000 A 
ATOM     14  C   UNL     1       2.063   6.896  17.526  0.00  0.00    +0.000 A 
ATOM     15  C   UNL     1       1.640   8.049  18.192  0.00  0.00    +0.000 A 
ATOM     16  C   UNL     1       1.779   8.139  19.571  0.00  0.00    +0.000 A 
ATOM     17 BR   UNL     1       1.321   9.744  20.457  0.00  0.00    +0.000 Br
ATOM     18  C   UNL     1       2.278   7.060  20.295  0.00  0.00    +0.000 A 
ATOM     19  C   UNL     1       2.704   5.911  19.623  0.00  0.00    +0.000 A 
ENDBRANCH  12  13
BRANCH   1  20
ATOM     20  C   UNL     1       7.094   4.873  18.052  0.00  0.00    +0.000 C 
BRANCH  20  21
ATOM     21  C   UNL     1       7.322   6.014  19.046  0.00  0.00    +0.000 C 
BRANCH  21  23
ATOM     22  C   UNL     1       7.712   8.059  17.644  0.00  0.00    +0.000 C 
ATOM     23  C   UNL     1       8.178   7.098  18.452  0.00  0.00    +0.000 C 
ENDBRANCH  21  23
ENDBRANCH  20  21
ENDBRANCH   1  20
TORSDOF 4
ENDMDL
MODEL 4
REMARK VINA RESULT:      -7.2      1.591      4.973
REMARK  Name = 
REMARK  5 active torsions:
REMARK  status: ('A' for Active; 'I' for Inactive)
REMARK    1  A    between atoms: C_2  and  C_3
REMARK    2  A    between atoms: C_3  and  C_4
REMARK    3  A    between atoms: C_4  and  C_5
REMARK    4  A    between atoms: N_12  and  C_13
REMARK    5  A    between atoms: C_16  and  C_17
REMARK                            x       y       z     vdW  Elec       q    Type
REMARK                         _______ _______ _______ _____ _____    ______ ____
ROOT
ATOM      1  C   UNL     1       3.925   2.749  19.267  0.00  0.00    +0.000 C 
ATOM      2  O   UNL     1       3.475   2.928  20.397  0.00  0.00    +0.000 OA
ATOM      3  N   UNL     1       4.833   3.643  18.677  0.00  0.00    +0.000 N 
ATOM      4  C   UNL     1       5.327   3.506  17.303  0.00  0.00    +0.000 C 
ATOM      5  C   UNL     1       6.639   4.220  16.971  0.00  0.00    +0.000 C 
ATOM      6  C   UNL     1       6.620   4.854  15.591  0.00  0.00    +0.000 C 
ATOM      7  O   UNL     1       7.293   6.110  15.688  0.00  0.00    +0.000 OA
ATOM      8  N   UNL     1       7.255   6.546  17.081  0.00  0.00    +0.000 NA
ATOM      9  C   UNL     1       6.252   7.590  17.162  0.00  0.00    +0.000 C 
ATOM     10  C   UNL     1       7.114   5.332  17.882  0.00  0.00    +0.000 C 
ATOM     11  C   UNL     1       6.489   5.363  19.275  0.00  0.00    +0.000 C 
ATOM     12  C   UNL     1       5.017   4.936  19.358  0.00  0.00    +0.000 C 
ENDROOT
BRANCH  12  13
ATOM     13  C   UNL     1       4.006   6.014  18.960  0.00  0.00    +0.000 A 
ATOM     14  C   UNL     1       3.969   6.614  17.691  0.00  0.00    +0.000 A 
ATOM     15  C   UNL     1       3.138   7.705  17.428  0.00  0.00    +0.000 A 
ATOM     16  C   UNL     1       2.290   8.182  18.420  0.00  0.00    +0.000 A 
ATOM     17 BR   UNL     1       1.256   9.731  18.105  0.00  0.00    +0.000 Br
ATOM     18  C   UNL     1       2.222   7.535  19.650  0.00  0.00    +0.000 A 
ATOM     19  C   UNL     1       3.060   6.448  19.910  0.00  0.00    +0.000 A 
ENDBRANCH  12  13
BRANCH   1  20
ATOM     20  C   UNL     1       3.507   1.547  18.431  0.00  0.00    +0.000 C 
BRANCH  20  21
ATOM     21  C   UNL     1       2.168   1.792  17.733  0.00  0.00    +0.000 C 
BRANCH  21  23
ATOM     22  C   UNL     1       1.314   4.142  17.523  0.00  0.00    +0.000 C 
ATOM     23  C   UNL     1       1.497   3.034  18.251  0.00  0.00    +0.000 C 
ENDBRANCH  21  23
ENDBRANCH  20  21
ENDBRANCH   1  20
TORSDOF 4
ENDMDL
MODEL 5
REMARK VINA RESULT:      -7.1      7.768     11.343
REMARK  Name = 
REMARK  5 active torsions:
REMARK  status: ('A' for Active; 'I' for Inactive)
REMARK    1  A    between atoms: C_2  and  C_3
REMARK    2  A    between atoms: C_3  and  C_4
REMARK    3  A    between atoms: C_4  and  C_5
REMARK    4  A    between atoms: N_12  and  C_13
REMARK    5  A    between atoms: C_16  and  C_17
REMARK                            x       y       z     vdW  Elec       q    Type
REMARK                         _______ _______ _______ _____ _____    ______ ____
ROOT
ATOM      1  C   UNL     1       9.647  12.290  19.875  0.00  0.00    +0.000 C 
ATOM      2  O   UNL     1       9.030  11.967  20.888  0.00  0.00    +0.000 OA
ATOM      3  N   UNL     1       9.811  13.633  19.502  0.00  0.00    +0.000 N 
ATOM      4  C   UNL     1      10.469  14.054  18.260  0.00  0.00    +0.000 C 
ATOM      5  C   UNL     1      11.011  15.484  18.220  0.00  0.00    +0.000 C 
ATOM      6  C   UNL     1      10.784  16.152  16.875  0.00  0.00    +0.000 C 
ATOM      7  O   UNL     1      10.433  17.513  17.129  0.00  0.00    +0.000 OA
ATOM      8  N   UNL     1       9.910  17.609  18.488  0.00  0.00    +0.000 NA
ATOM      9  C   UNL     1       8.471  17.734  18.371  0.00  0.00    +0.000 C 
ATOM     10  C   UNL     1      10.490  16.488  19.225  0.00  0.00    +0.000 C 
ATOM     11  C   UNL     1       9.803  15.902  20.457  0.00  0.00    +0.000 C 
ATOM     12  C   UNL     1       8.990  14.621  20.223  0.00  0.00    +0.000 C 
ENDROOT
BRANCH  12  13
ATOM     13  C   UNL     1       7.593  14.838  19.637  0.00  0.00    +0.000 A 
ATOM     14  C   UNL     1       7.227  14.449  18.338  0.00  0.00    +0.000 A 
ATOM     15  C   UNL     1       5.994  14.814  17.792  0.00  0.00    +0.000 A 
ATOM     16  C   UNL     1       5.085  15.533  18.558  0.00  0.00    +0.000 A 
ATOM     17 BR   UNL     1       3.471  16.131  17.782  0.00  0.00    +0.000 Br
ATOM     18  C   UNL     1       5.375  15.832  19.886  0.00  0.00    +0.000 A 
ATOM     19  C   UNL     1       6.612  15.470  20.425  0.00  0.00    +0.000 A 
ENDBRANCH  12  13
BRANCH   1  20
ATOM     20  C   UNL     1      10.258  11.244  18.955  0.00  0.00    +0.000 C 
BRANCH  20  21
ATOM     21  C   UNL     1       9.204  10.631  18.030  0.00  0.00    +0.000 C 
BRANCH  21  23
ATOM     22  C   UNL     1       8.027   8.423  17.841  0.00  0.00    +0.000 C 
ATOM     23  C   UNL     1       8.685   9.330  18.575  0.00  0.00    +0.000 C 
ENDBRANCH  21  23
ENDBRANCH  20  21
ENDBRANCH   1  20
TORSDOF 4
ENDMDL
MODEL 6
REMARK VINA RESULT:      -7.0      7.429     11.398
REMARK  Name = 
REMARK  5 active torsions:
REMARK  status: ('A' for Active; 'I' for Inactive)
REMARK    1  A    between atoms: C_2  and  C_3
REMARK    2  A    between atoms: C_3  and  C_4
REMARK    3  A    between atoms: C_4  and  C_5
REMARK    4  A    between atoms: N_12  and  C_13
REMARK    5  A    between atoms: C_16  and  C_17
REMARK                            x       y       z     vdW  Elec       q    Type
REMARK                         _______ _______ _______ _____ _____    ______ ____
ROOT
ATOM      1  C   UNL     1       9.573  11.040  19.411  0.00  0.00    +0.000 C 
ATOM      2  O   UNL     1       9.546  10.617  20.566  0.00  0.00    +0.000 OA
ATOM      3  N   UNL     1      10.307  12.181  19.054  0.00  0.00    +0.000 N 
ATOM      4  C   UNL     1      10.298  12.761  17.706  0.00  0.00    +0.000 C 
ATOM      5  C   UNL     1      11.480  13.658  17.337  0.00  0.00    +0.000 C 
ATOM      6  C   UNL     1      11.057  14.869  16.524  0.00  0.00    +0.000 C 
ATOM      7  O   UNL     1      11.834  15.979  16.976  0.00  0.00    +0.000 OA
ATOM      8  N   UNL     1      12.304  15.693  18.328  0.00  0.00    +0.000 NA
ATOM      9  C   UNL     1      11.485  16.479  19.229  0.00  0.00    +0.000 C 
ATOM     10  C   UNL     1      12.331  14.236  18.447  0.00  0.00    +0.000 C 
ATOM     11  C   UNL     1      12.215  13.544  19.803  0.00  0.00    +0.000 C 
ATOM     12  C   UNL     1      10.824  13.003  20.162  0.00  0.00    +0.000 C 
ENDROOT
BRANCH  12  13
ATOM     13  C   UNL     1       9.840  14.048  20.692  0.00  0.00    +0.000 A 
ATOM     14  C   UNL     1       8.666  14.422  20.019  0.00  0.00    +0.000 A 
ATOM     15  C   UNL     1       7.886  15.494  20.461  0.00  0.00    +0.000 A 
ATOM     16  C   UNL     1       8.244  16.177  21.616  0.00  0.00    +0.000 A 
ATOM     17 BR   UNL     1       7.261  17.701  22.146  0.00  0.00    +0.000 Br
ATOM     18  C   UNL     1       9.337  15.756  22.366  0.00  0.00    +0.000 A 
ATOM     19  C   UNL     1      10.117  14.687  21.917  0.00  0.00    +0.000 A 
ENDBRANCH  12  13
BRANCH   1  20
ATOM     20  C   UNL     1       8.793  10.352  18.300  0.00  0.00    +0.000 C 
BRANCH  20  21
ATOM     21  C   UNL     1       8.621   8.858  18.582  0.00  0.00    +0.000 C 
BRANCH  21  23
ATOM     22  C   UNL     1       7.397   6.909  17.581  0.00  0.00    +0.000 C 
ATOM     23  C   UNL     1       7.763   8.197  17.540  0.00  0.00    +0.000 C 
ENDBRANCH  21  23
ENDBRANCH  20  21
ENDBRANCH   1  20
TORSDOF 4
ENDMDL
MODEL 7
REMARK VINA RESULT:      -6.9      7.322     11.260
REMARK  Name = 
REMARK  5 active torsions:
REMARK  status: ('A' for Active; 'I' for Inactive)
REMARK    1  A    between atoms: C_2  and  C_3
REMARK    2  A    between atoms: C_3  and  C_4
REMARK    3  A    between atoms: C_4  and  C_5
REMARK    4  A    between atoms: N_12  and  C_13
REMARK    5  A    between atoms: C_16  and  C_17
REMARK                            x       y       z     vdW  Elec       q    Type
REMARK                         _______ _______ _______ _____ _____    ______ ____
ROOT
ATOM      1  C   UNL     1       9.461  11.094  19.366  0.00  0.00    +0.000 C 
ATOM      2  O   UNL     1       9.384  10.686  20.523  0.00  0.00    +0.000 OA
ATOM      3  N   UNL     1      10.233  12.216  19.023  0.00  0.00    +0.000 N 
ATOM      4  C   UNL     1      10.285  12.780  17.670  0.00  0.00    +0.000 C 
ATOM      5  C   UNL     1      11.500  13.647  17.334  0.00  0.00    +0.000 C 
ATOM      6  C   UNL     1      11.133  14.858  16.494  0.00  0.00    +0.000 C 
ATOM      7  O   UNL     1      11.918  15.956  16.962  0.00  0.00    +0.000 OA
ATOM      8  N   UNL     1      12.333  15.674  18.333  0.00  0.00    +0.000 NA
ATOM      9  C   UNL     1      11.501  16.488  19.196  0.00  0.00    +0.000 C 
ATOM     10  C   UNL     1      12.323  14.218  18.468  0.00  0.00    +0.000 C 
ATOM     11  C   UNL     1      12.144  13.544  19.826  0.00  0.00    +0.000 C 
ATOM     12  C   UNL     1      10.729  13.038  20.140  0.00  0.00    +0.000 C 
ENDROOT
BRANCH  12  13
ATOM     13  C   UNL     1       9.750  14.110  20.625  0.00  0.00    +0.000 A 
ATOM     14  C   UNL     1       9.869  14.770  21.858  0.00  0.00    +0.000 A 
ATOM     15  C   UNL     1       8.864  15.621  22.326  0.00  0.00    +0.000 A 
ATOM     16  C   UNL     1       7.744  15.863  21.541  0.00  0.00    +0.000 A 
ATOM     17 BR   UNL     1       6.330  16.913  22.223  0.00  0.00    +0.000 Br
ATOM     18  C   UNL     1       7.654  15.313  20.266  0.00  0.00    +0.000 A 
ATOM     19  C   UNL     1       8.659  14.460  19.805  0.00  0.00    +0.000 A 
ENDBRANCH  12  13
BRANCH   1  20
ATOM     20  C   UNL     1       8.706  10.412  18.235  0.00  0.00    +0.000 C 
BRANCH  20  21
ATOM     21  C   UNL     1       8.673   8.894  18.423  0.00  0.00    +0.000 C 
BRANCH  21  23
ATOM     22  C   UNL     1       7.350   6.945  17.559  0.00  0.00    +0.000 C 
ATOM     23  C   UNL     1       7.629   8.254  17.551  0.00  0.00    +0.000 C 
ENDBRANCH  21  23
ENDBRANCH  20  21
ENDBRANCH   1  20
TORSDOF 4
ENDMDL
MODEL 8
REMARK VINA RESULT:      -6.8      8.708     12.383
REMARK  Name = 
REMARK  5 active torsions:
REMARK  status: ('A' for Active; 'I' for Inactive)
REMARK    1  A    between atoms: C_2  and  C_3
REMARK    2  A    between atoms: C_3  and  C_4
REMARK    3  A    between atoms: C_4  and  C_5
REMARK    4  A    between atoms: N_12  and  C_13
REMARK    5  A    between atoms: C_16  and  C_17
REMARK                            x       y       z     vdW  Elec       q    Type
REMARK                         _______ _______ _______ _____ _____    ______ ____
ROOT
ATOM      1  C   UNL     1      10.745  13.162  18.084  0.00  0.00    +0.000 C 
ATOM      2  O   UNL     1      11.974  13.126  18.125  0.00  0.00    +0.000 OA
ATOM      3  N   UNL     1      10.033  14.369  18.170  0.00  0.00    +0.000 N 
ATOM      4  C   UNL     1       8.569  14.443  18.206  0.00  0.00    +0.000 C 
ATOM      5  C   UNL     1       7.939  15.778  17.804  0.00  0.00    +0.000 C 
ATOM      6  C   UNL     1       6.749  16.144  18.674  0.00  0.00    +0.000 C 
ATOM      7  O   UNL     1       6.809  17.551  18.910  0.00  0.00    +0.000 OA
ATOM      8  N   UNL     1       8.186  17.993  18.718  0.00  0.00    +0.000 NA
ATOM      9  C   UNL     1       8.743  18.207  20.039  0.00  0.00    +0.000 C 
ATOM     10  C   UNL     1       8.801  17.022  17.813  0.00  0.00    +0.000 C 
ATOM     11  C   UNL     1      10.309  16.786  17.801  0.00  0.00    +0.000 C 
ATOM     12  C   UNL     1      10.801  15.557  18.578  0.00  0.00    +0.000 C 
ENDROOT
BRANCH  12  13
ATOM     13  C   UNL     1      10.917  15.751  20.091  0.00  0.00    +0.000 A 
ATOM     14  C   UNL     1      10.126  15.064  21.026  0.00  0.00    +0.000 A 
ATOM     15  C   UNL     1      10.154  15.393  22.383  0.00  0.00    +0.000 A 
ATOM     16  C   UNL     1      11.016  16.385  22.835  0.00  0.00    +0.000 A 
ATOM     17 BR   UNL     1      10.967  16.915  24.647  0.00  0.00    +0.000 Br
ATOM     18  C   UNL     1      11.893  17.003  21.949  0.00  0.00    +0.000 A 
ATOM     19  C   UNL     1      11.857  16.674  20.592  0.00  0.00    +0.000 A 
ENDBRANCH  12  13
BRANCH   1  20
ATOM     20  C   UNL     1       9.922  11.889  17.953  0.00  0.00    +0.000 C 
BRANCH  20  21
ATOM     21  C   UNL     1      10.087  10.990  19.180  0.00  0.00    +0.000 C 
BRANCH  21  23
ATOM     22  C   UNL     1       8.417   9.463  18.094  0.00  0.00    +0.000 C 
ATOM     23  C   UNL     1       9.078   9.875  19.183  0.00  0.00    +0.000 C 
ENDBRANCH  21  23
ENDBRANCH  20  21
ENDBRANCH   1  20
TORSDOF 4
ENDMDL
MODEL 9
REMARK VINA RESULT:      -6.8      0.993      1.894
REMARK  Name = 
REMARK  5 active torsions:
REMARK  status: ('A' for Active; 'I' for Inactive)
REMARK    1  A    between atoms: C_2  and  C_3
REMARK    2  A    between atoms: C_3  and  C_4
REMARK    3  A    between atoms: C_4  and  C_5
REMARK    4  A    between atoms: N_12  and  C_13
REMARK    5  A    between atoms: C_16  and  C_17
REMARK                            x       y       z     vdW  Elec       q    Type
REMARK                         _______ _______ _______ _____ _____    ______ ____
ROOT
ATOM      1  C   UNL     1       5.383   6.003  17.379  0.00  0.00    +0.000 C 
ATOM      2  O   UNL     1       5.090   6.857  16.545  0.00  0.00    +0.000 OA
ATOM      3  N   UNL     1       4.425   5.131  17.920  0.00  0.00    +0.000 N 
ATOM      4  C   UNL     1       4.722   4.155  18.974  0.00  0.00    +0.000 C 
ATOM      5  C   UNL     1       3.759   2.974  19.107  0.00  0.00    +0.000 C 
ATOM      6  C   UNL     1       3.484   2.611  20.556  0.00  0.00    +0.000 C 
ATOM      7  O   UNL     1       2.101   2.271  20.656  0.00  0.00    +0.000 OA
ATOM      8  N   UNL     1       1.392   2.893  19.543  0.00  0.00    +0.000 NA
ATOM      9  C   UNL     1       0.684   4.035  20.086  0.00  0.00    +0.000 C 
ATOM     10  C   UNL     1       2.383   3.081  18.486  0.00  0.00    +0.000 C 
ATOM     11  C   UNL     1       2.218   4.162  17.419  0.00  0.00    +0.000 C 
ATOM     12  C   UNL     1       3.014   5.455  17.648  0.00  0.00    +0.000 C 
ENDROOT
BRANCH  12  13
ATOM     13  C   UNL     1       2.385   6.437  18.638  0.00  0.00    +0.000 A 
ATOM     14  C   UNL     1       1.831   7.671  18.262  0.00  0.00    +0.000 A 
ATOM     15  C   UNL     1       1.417   8.603  19.218  0.00  0.00    +0.000 A 
ATOM     16  C   UNL     1       1.505   8.290  20.569  0.00  0.00    +0.000 A 
ATOM     17 BR   UNL     1       1.061   9.593  21.863  0.00  0.00    +0.000 Br
ATOM     18  C   UNL     1       1.942   7.031  20.967  0.00  0.00    +0.000 A 
ATOM     19  C   UNL     1       2.360   6.105  20.007  0.00  0.00    +0.000 A 
ENDBRANCH  12  13
BRANCH   1  20
ATOM     20  C   UNL     1       6.810   5.853  17.888  0.00  0.00    +0.000 C 
BRANCH  20  21
ATOM     21  C   UNL     1       7.518   4.672  17.222  0.00  0.00    +0.000 C 
BRANCH  21  23
ATOM     22  C   UNL     1       6.414   3.766  15.158  0.00  0.00    +0.000 C 
ATOM     23  C   UNL     1       7.250   4.634  15.743  0.00  0.00    +0.000 C 
ENDBRANCH  21  23
ENDBRANCH  20  21
ENDBRANCH   1  20
TORSDOF 4
ENDMDL
