MODEL 1
REMARK VINA RESULT:      -8.3      0.000      0.000
REMARK  Name = 
REMARK  3 active torsions:
REMARK  status: ('A' for Active; 'I' for Inactive)
REMARK    1  A    between atoms: C_2  and  C_3
REMARK    2  A    between atoms: CA_13  and  C_14
REMARK    3  A    between atoms: C_14  and  O_15
REMARK                            x       y       z     vdW  Elec       q    Type
REMARK                         _______ _______ _______ _____ _____    ______ ____
ROOT
ATOM      1  O   UNL     1       2.539   8.112  16.986  0.00  0.00    +0.000 OA
ATOM      2  C   UNL     1       2.385   7.752  18.147  0.00  0.00    +0.000 C 
ATOM      3  N   UNL     1       2.717   6.473  18.588  0.00  0.00    +0.000 N 
ATOM      4  C   UNL     1       2.234   5.834  19.804  0.00  0.00    +0.000 C 
ATOM      5  C   UNL     1       2.606   4.371  19.702  0.00  0.00    +0.000 C 
ATOM      6  C   UNL     1       2.884   4.148  18.215  0.00  0.00    +0.000 C 
ATOM      7  CA  UNL     1       3.842   3.002  17.893  0.00  0.00    +0.000 C 
ATOM      8  N   UNL     1       5.175   3.248  18.451  0.00  0.00    +0.000 N 
ATOM      9  C   UNL     1       5.702   4.536  18.323  0.00  0.00    +0.000 A 
ATOM     10  C   UNL     1       7.061   4.728  18.610  0.00  0.00    +0.000 A 
ATOM     11  C   UNL     1       7.668   5.972  18.429  0.00  0.00    +0.000 A 
ATOM     12  C   UNL     1       6.917   7.035  17.946  0.00  0.00    +0.000 A 
ATOM     13 BR   UNL     1       7.730   8.717  17.659  0.00  0.00    +0.000 Br
ATOM     14  C   UNL     1       5.560   6.871  17.682  0.00  0.00    +0.000 A 
ATOM     15  C   UNL     1       4.930   5.632  17.907  0.00  0.00    +0.000 A 
ATOM     16  C   UNL     1       3.427   5.506  17.732  0.00  0.00    +0.000 C 
ATOM     17  H   UNL     1       5.282   2.880  19.398  0.00  0.00    +0.000 HD
ENDROOT
BRANCH   2  18
ATOM     18  C   UNL     1       1.810   8.732  19.117  0.00  0.00    +0.000 A 
ATOM     19  C   UNL     1       1.449  10.002  18.670  0.00  0.00    +0.000 A 
ATOM     20  C   UNL     1       0.866  10.868  19.579  0.00  0.00    +0.000 A 
ATOM     21  N   UNL     1       0.606  10.547  20.865  0.00  0.00    +0.000 NA
ATOM     22  C   UNL     1       1.018   9.335  21.284  0.00  0.00    +0.000 A 
ATOM     23  C   UNL     1       1.667   8.428  20.468  0.00  0.00    +0.000 A 
ENDBRANCH   2  18
BRANCH   7  24
ATOM     24  C   UNL     1       3.328   1.626  18.379  0.00  0.00    +0.000 C 
BRANCH  24  25
ATOM     25  O   UNL     1       4.387   0.675  18.505  0.00  0.00    +0.000 OA
ATOM     26  H   UNL     1       5.168   1.151  18.839  0.00  0.00    +0.000 HD
ENDBRANCH  24  25
ENDBRANCH   7  24
TORSDOF 3
ENDMDL
MODEL 2
REMARK VINA RESULT:      -7.2      1.060      1.415
REMARK  Name = 
REMARK  3 active torsions:
REMARK  status: ('A' for Active; 'I' for Inactive)
REMARK    1  A    between atoms: C_2  and  C_3
REMARK    2  A    between atoms: CA_13  and  C_14
REMARK    3  A    between atoms: C_14  and  O_15
REMARK                            x       y       z     vdW  Elec       q    Type
REMARK                         _______ _______ _______ _____ _____    ______ ____
ROOT
ATOM      1  O   UNL     1       2.452   8.313  16.810  0.00  0.00    +0.000 OA
ATOM      2  C   UNL     1       2.251   8.205  18.014  0.00  0.00    +0.000 C 
ATOM      3  N   UNL     1       2.412   7.002  18.698  0.00  0.00    +0.000 N 
ATOM      4  C   UNL     1       1.848   6.676  20.001  0.00  0.00    +0.000 C 
ATOM      5  C   UNL     1       2.024   5.185  20.188  0.00  0.00    +0.000 C 
ATOM      6  C   UNL     1       2.271   4.647  18.777  0.00  0.00    +0.000 C 
ATOM      7  CA  UNL     1       3.069   3.347  18.703  0.00  0.00    +0.000 C 
ATOM      8  N   UNL     1       4.423   3.520  19.239  0.00  0.00    +0.000 N 
ATOM      9  C   UNL     1       5.115   4.681  18.882  0.00  0.00    +0.000 A 
ATOM     10  C   UNL     1       6.487   4.746  19.162  0.00  0.00    +0.000 A 
ATOM     11  C   UNL     1       7.253   5.843  18.763  0.00  0.00    +0.000 A 
ATOM     12  C   UNL     1       6.649   6.882  18.068  0.00  0.00    +0.000 A 
ATOM     13 BR   UNL     1       7.677   8.359  17.489  0.00  0.00    +0.000 Br
ATOM     14  C   UNL     1       5.283   6.848  17.806  0.00  0.00    +0.000 A 
ATOM     15  C   UNL     1       4.494   5.767  18.246  0.00  0.00    +0.000 A 
ATOM     16  C   UNL     1       2.987   5.805  18.059  0.00  0.00    +0.000 C 
ATOM     17  H   UNL     1       4.480   3.330  20.241  0.00  0.00    +0.000 HD
ENDROOT
BRANCH   2  18
ATOM     18  C   UNL     1       1.811   9.419  18.765  0.00  0.00    +0.000 A 
ATOM     19  C   UNL     1       1.146   9.266  19.980  0.00  0.00    +0.000 A 
ATOM     20  C   UNL     1       0.801  10.411  20.680  0.00  0.00    +0.000 A 
ATOM     21  N   UNL     1       1.093  11.663  20.265  0.00  0.00    +0.000 NA
ATOM     22  C   UNL     1       1.684  11.782  19.061  0.00  0.00    +0.000 A 
ATOM     23  C   UNL     1       2.006  10.702  18.261  0.00  0.00    +0.000 A 
ENDBRANCH   2  18
BRANCH   7  24
ATOM     24  C   UNL     1       2.378   2.168  19.428  0.00  0.00    +0.000 C 
BRANCH  24  25
ATOM     25  O   UNL     1       1.501   1.448  18.560  0.00  0.00    +0.000 OA
ATOM     26  H   UNL     1       0.609   1.488  18.949  0.00  0.00    +0.000 HD
ENDBRANCH  24  25
ENDBRANCH   7  24
TORSDOF 3
ENDMDL
MODEL 3
REMARK VINA RESULT:      -6.9      6.489      9.075
REMARK  Name = 
REMARK  3 active torsions:
REMARK  status: ('A' for Active; 'I' for Inactive)
REMARK    1  A    between atoms: C_2  and  C_3
REMARK    2  A    between atoms: CA_13  and  C_14
REMARK    3  A    between atoms: C_14  and  O_15
REMARK                            x       y       z     vdW  Elec       q    Type
REMARK                         _______ _______ _______ _____ _____    ______ ____
ROOT
ATOM      1  O   UNL     1      -0.415  13.368  18.129  0.00  0.00    +0.000 OA
ATOM      2  C   UNL     1       0.167  13.855  19.091  0.00  0.00    +0.000 C 
ATOM      3  N   UNL     1      -0.220  13.612  20.406  0.00  0.00    +0.000 N 
ATOM      4  C   UNL     1       0.140  14.415  21.567  0.00  0.00    +0.000 C 
ATOM      5  C   UNL     1      -0.748  13.957  22.703  0.00  0.00    +0.000 C 
ATOM      6  C   UNL     1      -1.901  13.221  22.016  0.00  0.00    +0.000 C 
ATOM      7  CA  UNL     1      -2.593  12.154  22.864  0.00  0.00    +0.000 C 
ATOM      8  N   UNL     1      -1.669  11.074  23.220  0.00  0.00    +0.000 N 
ATOM      9  C   UNL     1      -0.814  10.598  22.221  0.00  0.00    +0.000 A 
ATOM     10  C   UNL     1      -0.115   9.406  22.460  0.00  0.00    +0.000 A 
ATOM     11  C   UNL     1       0.695   8.836  21.476  0.00  0.00    +0.000 A 
ATOM     12  C   UNL     1       0.802   9.453  20.237  0.00  0.00    +0.000 A 
ATOM     13 BR   UNL     1       1.865   8.677  18.880  0.00  0.00    +0.000 Br
ATOM     14  C   UNL     1       0.139  10.652  19.992  0.00  0.00    +0.000 A 
ATOM     15  C   UNL     1      -0.643  11.258  20.995  0.00  0.00    +0.000 A 
ATOM     16  C   UNL     1      -1.258  12.625  20.751  0.00  0.00    +0.000 C 
ATOM     17  H   UNL     1      -1.177  11.247  24.099  0.00  0.00    +0.000 HD
ENDROOT
BRANCH   2  18
ATOM     18  C   UNL     1       1.334  14.750  18.826  0.00  0.00    +0.000 A 
ATOM     19  C   UNL     1       2.618  14.209  18.804  0.00  0.00    +0.000 A 
ATOM     20  C   UNL     1       3.673  15.053  18.498  0.00  0.00    +0.000 A 
ATOM     21  N   UNL     1       3.526  16.362  18.198  0.00  0.00    +0.000 NA
ATOM     22  C   UNL     1       2.283  16.870  18.283  0.00  0.00    +0.000 A 
ATOM     23  C   UNL     1       1.178  16.122  18.644  0.00  0.00    +0.000 A 
ENDBRANCH   2  18
BRANCH   7  24
ATOM     24  C   UNL     1      -3.237  12.724  24.150  0.00  0.00    +0.000 C 
BRANCH  24  25
ATOM     25  O   UNL     1      -4.413  12.004  24.521  0.00  0.00    +0.000 OA
ATOM     26  H   UNL     1      -4.871  11.749  23.701  0.00  0.00    +0.000 HD
ENDBRANCH  24  25
ENDBRANCH   7  24
TORSDOF 3
ENDMDL
MODEL 4
REMARK VINA RESULT:      -6.7      3.996      8.856
REMARK  Name = 
REMARK  3 active torsions:
REMARK  status: ('A' for Active; 'I' for Inactive)
REMARK    1  A    between atoms: C_2  and  C_3
REMARK    2  A    between atoms: CA_13  and  C_14
REMARK    3  A    between atoms: C_14  and  O_15
REMARK                            x       y       z     vdW  Elec       q    Type
REMARK                         _______ _______ _______ _____ _____    ______ ____
ROOT
ATOM      1  O   UNL     1       1.830  10.399  18.059  0.00  0.00    +0.000 OA
ATOM      2  C   UNL     1       1.400   9.769  19.019  0.00  0.00    +0.000 C 
ATOM      3  N   UNL     1       0.579  10.341  19.987  0.00  0.00    +0.000 N 
ATOM      4  C   UNL     1       0.337   9.816  21.324  0.00  0.00    +0.000 C 
ATOM      5  C   UNL     1      -0.354  10.914  22.102  0.00  0.00    +0.000 C 
ATOM      6  C   UNL     1      -0.065  12.188  21.308  0.00  0.00    +0.000 C 
ATOM      7  CA  UNL     1      -1.091  13.308  21.470  0.00  0.00    +0.000 C 
ATOM      8  N   UNL     1      -2.410  12.898  20.980  0.00  0.00    +0.000 N 
ATOM      9  C   UNL     1      -2.461  12.196  19.772  0.00  0.00    +0.000 A 
ATOM     10  C   UNL     1      -3.710  12.025  19.157  0.00  0.00    +0.000 A 
ATOM     11  C   UNL     1      -3.822  11.401  17.913  0.00  0.00    +0.000 A 
ATOM     12  C   UNL     1      -2.677  10.953  17.268  0.00  0.00    +0.000 A 
ATOM     13 BR   UNL     1      -2.805  10.139  15.567  0.00  0.00    +0.000 Br
ATOM     14  C   UNL     1      -1.433  11.089  17.875  0.00  0.00    +0.000 A 
ATOM     15  C   UNL     1      -1.316  11.674  19.151  0.00  0.00    +0.000 A 
ATOM     16  C   UNL     1       0.032  11.702  19.850  0.00  0.00    +0.000 C 
ATOM     17  H   UNL     1      -2.985  12.462  21.704  0.00  0.00    +0.000 HD
ENDROOT
BRANCH   2  18
ATOM     18  C   UNL     1       1.788   8.332  19.145  0.00  0.00    +0.000 A 
ATOM     19  C   UNL     1       2.277   7.656  18.029  0.00  0.00    +0.000 A 
ATOM     20  C   UNL     1       2.681   6.341  18.192  0.00  0.00    +0.000 A 
ATOM     21  N   UNL     1       2.651   5.686  19.372  0.00  0.00    +0.000 NA
ATOM     22  C   UNL     1       2.121   6.344  20.420  0.00  0.00    +0.000 A 
ATOM     23  C   UNL     1       1.630   7.633  20.339  0.00  0.00    +0.000 A 
ENDBRANCH   2  18
BRANCH   7  24
ATOM     24  C   UNL     1      -1.219  13.808  22.929  0.00  0.00    +0.000 C 
BRANCH  24  25
ATOM     25  O   UNL     1      -0.152  14.686  23.288  0.00  0.00    +0.000 OA
ATOM     26  H   UNL     1      -0.022  15.305  22.548  0.00  0.00    +0.000 HD
ENDBRANCH  24  25
ENDBRANCH   7  24
TORSDOF 3
ENDMDL
MODEL 5
REMARK VINA RESULT:      -6.6      6.300      9.616
REMARK  Name = 
REMARK  3 active torsions:
REMARK  status: ('A' for Active; 'I' for Inactive)
REMARK    1  A    between atoms: C_2  and  C_3
REMARK    2  A    between atoms: CA_13  and  C_14
REMARK    3  A    between atoms: C_14  and  O_15
REMARK                            x       y       z     vdW  Elec       q    Type
REMARK                         _______ _______ _______ _____ _____    ______ ____
ROOT
ATOM      1  O   UNL     1      -3.639  12.764  21.838  0.00  0.00    +0.000 OA
ATOM      2  C   UNL     1      -2.817  13.483  21.283  0.00  0.00    +0.000 C 
ATOM      3  N   UNL     1      -1.842  12.985  20.421  0.00  0.00    +0.000 N 
ATOM      4  C   UNL     1      -0.618  13.668  20.027  0.00  0.00    +0.000 C 
ATOM      5  C   UNL     1       0.255  12.635  19.348  0.00  0.00    +0.000 C 
ATOM      6  C   UNL     1      -0.323  11.291  19.795  0.00  0.00    +0.000 C 
ATOM      7  CA  UNL     1      -0.080  10.124  18.839  0.00  0.00    +0.000 C 
ATOM      8  N   UNL     1      -0.724  10.353  17.543  0.00  0.00    +0.000 N 
ATOM      9  C   UNL     1      -2.021  10.875  17.549  0.00  0.00    +0.000 A 
ATOM     10  C   UNL     1      -2.749  10.857  16.351  0.00  0.00    +0.000 A 
ATOM     11  C   UNL     1      -4.075  11.292  16.305  0.00  0.00    +0.000 A 
ATOM     12  C   UNL     1      -4.687  11.739  17.468  0.00  0.00    +0.000 A 
ATOM     13 BR   UNL     1      -6.493  12.297  17.433  0.00  0.00    +0.000 Br
ATOM     14  C   UNL     1      -3.973  11.790  18.661  0.00  0.00    +0.000 A 
ATOM     15  C   UNL     1      -2.621  11.398  18.705  0.00  0.00    +0.000 A 
ATOM     16  C   UNL     1      -1.823  11.577  19.985  0.00  0.00    +0.000 C 
ATOM     17  H   UNL     1      -0.118  10.837  16.878  0.00  0.00    +0.000 HD
ENDROOT
BRANCH   2  18
ATOM     18  C   UNL     1      -2.869  14.951  21.556  0.00  0.00    +0.000 A 
ATOM     19  C   UNL     1      -2.272  15.452  22.711  0.00  0.00    +0.000 A 
ATOM     20  C   UNL     1      -2.288  16.823  22.907  0.00  0.00    +0.000 A 
ATOM     21  N   UNL     1      -2.826  17.702  22.034  0.00  0.00    +0.000 NA
ATOM     22  C   UNL     1      -3.446  17.186  20.956  0.00  0.00    +0.000 A 
ATOM     23  C   UNL     1      -3.540  15.830  20.709  0.00  0.00    +0.000 A 
ENDBRANCH   2  18
BRANCH   7  24
ATOM     24  C   UNL     1       1.422   9.822  18.619  0.00  0.00    +0.000 C 
BRANCH  24  25
ATOM     25  O   UNL     1       1.863  10.228  17.322  0.00  0.00    +0.000 OA
ATOM     26  H   UNL     1       1.386  11.045  17.094  0.00  0.00    +0.000 HD
ENDBRANCH  24  25
ENDBRANCH   7  24
TORSDOF 3
ENDMDL
MODEL 6
REMARK VINA RESULT:      -6.6      1.492      1.679
REMARK  Name = 
REMARK  3 active torsions:
REMARK  status: ('A' for Active; 'I' for Inactive)
REMARK    1  A    between atoms: C_2  and  C_3
REMARK    2  A    between atoms: CA_13  and  C_14
REMARK    3  A    between atoms: C_14  and  O_15
REMARK                            x       y       z     vdW  Elec       q    Type
REMARK                         _______ _______ _______ _____ _____    ______ ____
ROOT
ATOM      1  O   UNL     1       2.212   8.235  16.910  0.00  0.00    +0.000 OA
ATOM      2  C   UNL     1       2.096   8.307  18.128  0.00  0.00    +0.000 C 
ATOM      3  N   UNL     1       2.207   7.197  18.961  0.00  0.00    +0.000 N 
ATOM      4  C   UNL     1       1.719   7.102  20.330  0.00  0.00    +0.000 C 
ATOM      5  C   UNL     1       1.784   5.639  20.711  0.00  0.00    +0.000 C 
ATOM      6  C   UNL     1       1.875   4.897  19.377  0.00  0.00    +0.000 C 
ATOM      7  CA  UNL     1       2.554   3.530  19.434  0.00  0.00    +0.000 C 
ATOM      8  N   UNL     1       3.954   3.645  19.852  0.00  0.00    +0.000 N 
ATOM      9  C   UNL     1       4.712   4.679  19.292  0.00  0.00    +0.000 A 
ATOM     10  C   UNL     1       6.103   4.652  19.471  0.00  0.00    +0.000 A 
ATOM     11  C   UNL     1       6.925   5.610  18.875  0.00  0.00    +0.000 A 
ATOM     12  C   UNL     1       6.359   6.598  18.083  0.00  0.00    +0.000 A 
ATOM     13 BR   UNL     1       7.459   7.882  17.238  0.00  0.00    +0.000 Br
ATOM     14  C   UNL     1       4.978   6.658  17.916  0.00  0.00    +0.000 A 
ATOM     15  C   UNL     1       4.138   5.723  18.552  0.00  0.00    +0.000 A 
ATOM     16  C   UNL     1       2.630   5.877  18.460  0.00  0.00    +0.000 C 
ATOM     17  H   UNL     1       4.072   3.586  20.864  0.00  0.00    +0.000 HD
ENDROOT
BRANCH   2  18
ATOM     18  C   UNL     1       1.818   9.647  18.728  0.00  0.00    +0.000 A 
ATOM     19  C   UNL     1       2.314  10.791  18.106  0.00  0.00    +0.000 A 
ATOM     20  C   UNL     1       1.991  12.020  18.654  0.00  0.00    +0.000 A 
ATOM     21  N   UNL     1       1.204  12.176  19.741  0.00  0.00    +0.000 NA
ATOM     22  C   UNL     1       0.787  11.053  20.355  0.00  0.00    +0.000 A 
ATOM     23  C   UNL     1       1.112   9.782  19.921  0.00  0.00    +0.000 A 
ENDBRANCH   2  18
BRANCH   7  24
ATOM     24  C   UNL     1       1.824   2.528  20.359  0.00  0.00    +0.000 C 
BRANCH  24  25
ATOM     25  O   UNL     1       2.383   2.510  21.674  0.00  0.00    +0.000 OA
ATOM     26  H   UNL     1       3.348   2.422  21.579  0.00  0.00    +0.000 HD
ENDBRANCH  24  25
ENDBRANCH   7  24
TORSDOF 3
ENDMDL
MODEL 7
REMARK VINA RESULT:      -6.6      5.188     10.025
REMARK  Name = 
REMARK  3 active torsions:
REMARK  status: ('A' for Active; 'I' for Inactive)
REMARK    1  A    between atoms: C_2  and  C_3
REMARK    2  A    between atoms: CA_13  and  C_14
REMARK    3  A    between atoms: C_14  and  O_15
REMARK                            x       y       z     vdW  Elec       q    Type
REMARK                         _______ _______ _______ _____ _____    ______ ____
ROOT
ATOM      1  O   UNL     1       0.419  11.999  18.977  0.00  0.00    +0.000 OA
ATOM      2  C   UNL     1       0.163  11.172  19.843  0.00  0.00    +0.000 C 
ATOM      3  N   UNL     1      -0.718  11.429  20.892  0.00  0.00    +0.000 N 
ATOM      4  C   UNL     1      -0.796  10.690  22.144  0.00  0.00    +0.000 C 
ATOM      5  C   UNL     1      -1.661  11.509  23.077  0.00  0.00    +0.000 C 
ATOM      6  C   UNL     1      -1.664  12.911  22.465  0.00  0.00    +0.000 C 
ATOM      7  CA  UNL     1      -2.887  13.766  22.795  0.00  0.00    +0.000 C 
ATOM      8  N   UNL     1      -4.116  13.166  22.268  0.00  0.00    +0.000 N 
ATOM      9  C   UNL     1      -4.073  12.637  20.974  0.00  0.00    +0.000 A 
ATOM     10  C   UNL     1      -5.286  12.300  20.356  0.00  0.00    +0.000 A 
ATOM     11  C   UNL     1      -5.320  11.840  19.039  0.00  0.00    +0.000 A 
ATOM     12  C   UNL     1      -4.136  11.725  18.324  0.00  0.00    +0.000 A 
ATOM     13 BR   UNL     1      -4.166  11.139  16.527  0.00  0.00    +0.000 Br
ATOM     14  C   UNL     1      -2.920  12.029  18.929  0.00  0.00    +0.000 A 
ATOM     15  C   UNL     1      -2.873  12.449  20.273  0.00  0.00    +0.000 A 
ATOM     16  C   UNL     1      -1.531  12.656  20.953  0.00  0.00    +0.000 C 
ATOM     17  H   UNL     1      -4.562  12.529  22.930  0.00  0.00    +0.000 HD
ENDROOT
BRANCH   2  18
ATOM     18  C   UNL     1       0.834   9.840  19.763  0.00  0.00    +0.000 A 
ATOM     19  C   UNL     1       1.455   9.459  18.575  0.00  0.00    +0.000 A 
ATOM     20  C   UNL     1       2.119   8.244  18.549  0.00  0.00    +0.000 A 
ATOM     21  N   UNL     1       2.219   7.419  19.614  0.00  0.00    +0.000 NA
ATOM     22  C   UNL     1       1.561   7.785  20.731  0.00  0.00    +0.000 A 
ATOM     23  C   UNL     1       0.819   8.946  20.830  0.00  0.00    +0.000 A 
ENDBRANCH   2  18
BRANCH   7  24
ATOM     24  C   UNL     1      -3.054  14.028  24.311  0.00  0.00    +0.000 C 
BRANCH  24  25
ATOM     25  O   UNL     1      -4.133  13.275  24.867  0.00  0.00    +0.000 OA
ATOM     26  H   UNL     1      -3.750  12.488  25.294  0.00  0.00    +0.000 HD
ENDBRANCH  24  25
ENDBRANCH   7  24
TORSDOF 3
ENDMDL
MODEL 8
REMARK VINA RESULT:      -6.6      8.700      9.514
REMARK  Name = 
REMARK  3 active torsions:
REMARK  status: ('A' for Active; 'I' for Inactive)
REMARK    1  A    between atoms: C_2  and  C_3
REMARK    2  A    between atoms: CA_13  and  C_14
REMARK    3  A    between atoms: C_14  and  O_15
REMARK                            x       y       z     vdW  Elec       q    Type
REMARK                         _______ _______ _______ _____ _____    ______ ____
ROOT
ATOM      1  O   UNL     1       6.364  16.723  20.210  0.00  0.00    +0.000 OA
ATOM      2  C   UNL     1       5.979  15.834  19.460  0.00  0.00    +0.000 C 
ATOM      3  N   UNL     1       6.838  14.882  18.917  0.00  0.00    +0.000 N 
ATOM      4  C   UNL     1       6.568  14.050  17.753  0.00  0.00    +0.000 C 
ATOM      5  C   UNL     1       7.884  13.412  17.362  0.00  0.00    +0.000 C 
ATOM      6  C   UNL     1       8.946  14.273  18.049  0.00  0.00    +0.000 C 
ATOM      7  CA  UNL     1      10.264  13.563  18.356  0.00  0.00    +0.000 C 
ATOM      8  N   UNL     1      10.068  12.456  19.296  0.00  0.00    +0.000 N 
ATOM      9  C   UNL     1       9.227  12.679  20.391  0.00  0.00    +0.000 A 
ATOM     10  C   UNL     1       9.230  11.739  21.431  0.00  0.00    +0.000 A 
ATOM     11  C   UNL     1       8.473  11.939  22.586  0.00  0.00    +0.000 A 
ATOM     12  C   UNL     1       7.712  13.094  22.713  0.00  0.00    +0.000 A 
ATOM     13 BR   UNL     1       6.709  13.400  24.285  0.00  0.00    +0.000 Br
ATOM     14  C   UNL     1       7.675  14.025  21.679  0.00  0.00    +0.000 A 
ATOM     15  C   UNL     1       8.399  13.808  20.491  0.00  0.00    +0.000 A 
ATOM     16  C   UNL     1       8.249  14.772  19.327  0.00  0.00    +0.000 C 
ATOM     17  H   UNL     1       9.866  11.570  18.829  0.00  0.00    +0.000 HD
ENDROOT
BRANCH   2  18
ATOM     18  C   UNL     1       4.525  15.786  19.118  0.00  0.00    +0.000 A 
ATOM     19  C   UNL     1       3.693  14.895  19.794  0.00  0.00    +0.000 A 
ATOM     20  C   UNL     1       2.341  14.915  19.495  0.00  0.00    +0.000 A 
ATOM     21  N   UNL     1       1.780  15.762  18.605  0.00  0.00    +0.000 NA
ATOM     22  C   UNL     1       2.615  16.570  17.925  0.00  0.00    +0.000 A 
ATOM     23  C   UNL     1       3.984  16.576  18.107  0.00  0.00    +0.000 A 
ENDBRANCH   2  18
BRANCH   7  24
ATOM     24  C   UNL     1      10.981  13.039  17.089  0.00  0.00    +0.000 C 
BRANCH  24  25
ATOM     25  O   UNL     1      11.142  14.061  16.105  0.00  0.00    +0.000 OA
ATOM     26  H   UNL     1      10.260  14.261  15.745  0.00  0.00    +0.000 HD
ENDBRANCH  24  25
ENDBRANCH   7  24
TORSDOF 3
ENDMDL
MODEL 9
REMARK VINA RESULT:      -6.6      5.258      8.158
REMARK  Name = 
REMARK  3 active torsions:
REMARK  status: ('A' for Active; 'I' for Inactive)
REMARK    1  A    between atoms: C_2  and  C_3
REMARK    2  A    between atoms: CA_13  and  C_14
REMARK    3  A    between atoms: C_14  and  O_15
REMARK                            x       y       z     vdW  Elec       q    Type
REMARK                         _______ _______ _______ _____ _____    ______ ____
ROOT
ATOM      1  O   UNL     1      -3.184  13.065  20.167  0.00  0.00    +0.000 OA
ATOM      2  C   UNL     1      -2.414  12.696  21.047  0.00  0.00    +0.000 C 
ATOM      3  N   UNL     1      -1.261  11.963  20.779  0.00  0.00    +0.000 N 
ATOM      4  C   UNL     1      -0.509  11.168  21.740  0.00  0.00    +0.000 C 
ATOM      5  C   UNL     1       0.458  10.323  20.939  0.00  0.00    +0.000 C 
ATOM      6  C   UNL     1      -0.104  10.338  19.517  0.00  0.00    +0.000 C 
ATOM      7  CA  UNL     1       0.922  10.119  18.406  0.00  0.00    +0.000 C 
ATOM      8  N   UNL     1       1.922  11.190  18.384  0.00  0.00    +0.000 N 
ATOM      9  C   UNL     1       1.466  12.503  18.542  0.00  0.00    +0.000 A 
ATOM     10  C   UNL     1       2.356  13.551  18.266  0.00  0.00    +0.000 A 
ATOM     11  C   UNL     1       1.944  14.883  18.330  0.00  0.00    +0.000 A 
ATOM     12  C   UNL     1       0.628  15.175  18.661  0.00  0.00    +0.000 A 
ATOM     13 BR   UNL     1       0.041  16.971  18.717  0.00  0.00    +0.000 Br
ATOM     14  C   UNL     1      -0.262  14.150  18.966  0.00  0.00    +0.000 A 
ATOM     15  C   UNL     1       0.158  12.806  18.950  0.00  0.00    +0.000 A 
ATOM     16  C   UNL     1      -0.791  11.711  19.405  0.00  0.00    +0.000 C 
ATOM     17  H   UNL     1       2.731  10.989  18.973  0.00  0.00    +0.000 HD
ENDROOT
BRANCH   2  18
ATOM     18  C   UNL     1      -2.744  13.048  22.461  0.00  0.00    +0.000 A 
ATOM     19  C   UNL     1      -2.158  14.173  23.038  0.00  0.00    +0.000 A 
ATOM     20  C   UNL     1      -2.528  14.506  24.331  0.00  0.00    +0.000 A 
ATOM     21  N   UNL     1      -3.439  13.819  25.053  0.00  0.00    +0.000 NA
ATOM     22  C   UNL     1      -3.946  12.705  24.492  0.00  0.00    +0.000 A 
ATOM     23  C   UNL     1      -3.588  12.257  23.235  0.00  0.00    +0.000 A 
ENDBRANCH   2  18
BRANCH   7  24
ATOM     24  C   UNL     1       1.638   8.751  18.501  0.00  0.00    +0.000 C 
BRANCH  24  25
ATOM     25  O   UNL     1       2.585   8.570  17.448  0.00  0.00    +0.000 OA
ATOM     26  H   UNL     1       2.168   8.879  16.624  0.00  0.00    +0.000 HD
ENDBRANCH  24  25
ENDBRANCH   7  24
TORSDOF 3
ENDMDL
