MODEL 1
REMARK VINA RESULT:      -6.6      0.000      0.000
REMARK  Name = 
REMARK  9 active torsions:
REMARK  status: ('A' for Active; 'I' for Inactive)
REMARK    1  A    between atoms: C_1  and  C_2
REMARK    2  A    between atoms: C_2  and  C_3
REMARK    3  A    between atoms: C_2  and  N_5
REMARK    4  A    between atoms: C_2  and  C_12
REMARK    5  A    between atoms: C_3  and  O_4
REMARK    6  A    between atoms: N_5  and  C_6
REMARK    7  A    between atoms: C_6  and  C_7
REMARK    8  A    between atoms: C_7  and  S_8
REMARK    9  A    between atoms: S_8  and  C_9
REMARK                            x       y       z     vdW  Elec       q    Type
REMARK                         _______ _______ _______ _____ _____    ______ ____
ROOT
ATOM      1  C   UNL     1       4.181   2.280  19.532  0.00  0.00    +0.000 C 
ATOM      2  C   UNL     1       4.261   3.536  18.647  0.00  0.00    +0.000 C 
ENDROOT
BRANCH   2   3
ATOM      3  C   UNL     1       2.834   4.174  18.309  0.00  0.00    +0.000 C 
ATOM      4  C   UNL     1       1.654   3.180  18.195  0.00  0.00    +0.000 C 
ATOM      5  C   UNL     1       0.985   2.804  19.516  0.00  0.00    +0.000 C 
ATOM      6  C   UNL     1       0.666   3.993  20.416  0.00  0.00    +0.000 C 
ATOM      7  C   UNL     1       1.782   5.026  20.511  0.00  0.00    +0.000 C 
ATOM      8  C   UNL     1       2.361   5.381  19.150  0.00  0.00    +0.000 C 
ENDBRANCH   2   3
BRANCH   2   9
ATOM      9  N   UNL     1       4.837   3.157  17.314  0.00  0.00    +0.000 NA
ATOM     10  H   UNL     1       4.420   2.269  17.032  0.00  0.00    +0.000 HD
BRANCH   9  11
ATOM     11  C   UNL     1       4.658   4.118  16.214  0.00  0.00    +0.000 C 
BRANCH  11  12
ATOM     12  C   UNL     1       5.803   3.983  15.216  0.00  0.00    +0.000 C 
BRANCH  12  13
ATOM     13  S   UNL     1       7.166   5.034  15.695  0.00  0.00    +0.000 S 
ATOM     14  C   UNL     1       6.346   6.419  16.439  0.00  0.00    +0.000 C 
ATOM     15  O   UNL     1       7.919   4.368  16.741  0.00  0.00    +0.000 OA
ATOM     16  O   UNL     1       7.822   5.510  14.491  0.00  0.00    +0.000 OA
ENDBRANCH  12  13
ENDBRANCH  11  12
ENDBRANCH   9  11
ENDBRANCH   2   9
BRANCH   2  17
ATOM     17  C   UNL     1       5.138   4.629  19.358  0.00  0.00    +0.000 C 
BRANCH  17  18
ATOM     18  O   UNL     1       6.543   4.464  19.195  0.00  0.00    +0.000 OA
ATOM     19  H   UNL     1       6.992   5.099  19.777  0.00  0.00    +0.000 HD
ENDBRANCH  17  18
ENDBRANCH   2  17
TORSDOF 7
ENDMDL
MODEL 2
REMARK VINA RESULT:      -6.5      1.650      2.557
REMARK  Name = 
REMARK  9 active torsions:
REMARK  status: ('A' for Active; 'I' for Inactive)
REMARK    1  A    between atoms: C_1  and  C_2
REMARK    2  A    between atoms: C_2  and  C_3
REMARK    3  A    between atoms: C_2  and  N_5
REMARK    4  A    between atoms: C_2  and  C_12
REMARK    5  A    between atoms: C_3  and  O_4
REMARK    6  A    between atoms: N_5  and  C_6
REMARK    7  A    between atoms: C_6  and  C_7
REMARK    8  A    between atoms: C_7  and  S_8
REMARK    9  A    between atoms: S_8  and  C_9
REMARK                            x       y       z     vdW  Elec       q    Type
REMARK                         _______ _______ _______ _____ _____    ______ ____
ROOT
ATOM      1  C   UNL     1       2.553   3.626  17.277  0.00  0.00    +0.000 C 
ATOM      2  C   UNL     1       3.599   2.957  18.187  0.00  0.00    +0.000 C 
ENDROOT
BRANCH   2   3
ATOM      3  C   UNL     1       3.617   3.536  19.678  0.00  0.00    +0.000 C 
ATOM      4  C   UNL     1       3.526   5.076  19.811  0.00  0.00    +0.000 C 
ATOM      5  C   UNL     1       2.111   5.652  19.783  0.00  0.00    +0.000 C 
ATOM      6  C   UNL     1       1.122   4.924  20.688  0.00  0.00    +0.000 C 
ATOM      7  C   UNL     1       1.217   3.406  20.629  0.00  0.00    +0.000 C 
ATOM      8  C   UNL     1       2.653   2.910  20.711  0.00  0.00    +0.000 C 
ENDBRANCH   2   3
BRANCH   2   9
ATOM      9  N   UNL     1       4.969   3.246  17.648  0.00  0.00    +0.000 NA
ATOM     10  H   UNL     1       5.387   2.360  17.360  0.00  0.00    +0.000 HD
BRANCH   9  11
ATOM     11  C   UNL     1       5.056   4.183  16.517  0.00  0.00    +0.000 C 
BRANCH  11  12
ATOM     12  C   UNL     1       5.624   5.517  16.989  0.00  0.00    +0.000 C 
BRANCH  12  13
ATOM     13  S   UNL     1       7.133   5.254  17.908  0.00  0.00    +0.000 S 
ATOM     14  C   UNL     1       7.829   6.883  17.986  0.00  0.00    +0.000 C 
ATOM     15  O   UNL     1       6.789   4.868  19.264  0.00  0.00    +0.000 OA
ATOM     16  O   UNL     1       8.023   4.437  17.104  0.00  0.00    +0.000 OA
ENDBRANCH  12  13
ENDBRANCH  11  12
ENDBRANCH   9  11
ENDBRANCH   2   9
BRANCH   2  17
ATOM     17  C   UNL     1       3.328   1.411  18.257  0.00  0.00    +0.000 C 
BRANCH  17  18
ATOM     18  O   UNL     1       4.445   0.627  18.662  0.00  0.00    +0.000 OA
ATOM     19  H   UNL     1       4.694   0.050  17.922  0.00  0.00    +0.000 HD
ENDBRANCH  17  18
ENDBRANCH   2  17
TORSDOF 7
ENDMDL
MODEL 3
REMARK VINA RESULT:      -6.3      1.724      2.678
REMARK  Name = 
REMARK  9 active torsions:
REMARK  status: ('A' for Active; 'I' for Inactive)
REMARK    1  A    between atoms: C_1  and  C_2
REMARK    2  A    between atoms: C_2  and  C_3
REMARK    3  A    between atoms: C_2  and  N_5
REMARK    4  A    between atoms: C_2  and  C_12
REMARK    5  A    between atoms: C_3  and  O_4
REMARK    6  A    between atoms: N_5  and  C_6
REMARK    7  A    between atoms: C_6  and  C_7
REMARK    8  A    between atoms: C_7  and  S_8
REMARK    9  A    between atoms: S_8  and  C_9
REMARK                            x       y       z     vdW  Elec       q    Type
REMARK                         _______ _______ _______ _____ _____    ______ ____
ROOT
ATOM      1  C   UNL     1       3.318   5.008  18.528  0.00  0.00    +0.000 C 
ATOM      2  C   UNL     1       4.181   3.750  18.330  0.00  0.00    +0.000 C 
ENDROOT
BRANCH   2   3
ATOM      3  C   UNL     1       3.587   2.447  19.042  0.00  0.00    +0.000 C 
ATOM      4  C   UNL     1       3.686   2.408  20.586  0.00  0.00    +0.000 C 
ATOM      5  C   UNL     1       2.560   3.123  21.331  0.00  0.00    +0.000 C 
ATOM      6  C   UNL     1       1.162   2.785  20.823  0.00  0.00    +0.000 C 
ATOM      7  C   UNL     1       1.035   2.756  19.306  0.00  0.00    +0.000 C 
ATOM      8  C   UNL     1       2.167   1.985  18.644  0.00  0.00    +0.000 C 
ENDBRANCH   2   3
BRANCH   2   9
ATOM      9  N   UNL     1       5.515   3.967  18.982  0.00  0.00    +0.000 NA
ATOM     10  H   UNL     1       6.224   3.508  18.408  0.00  0.00    +0.000 HD
BRANCH   9  11
ATOM     11  C   UNL     1       5.932   5.362  19.196  0.00  0.00    +0.000 C 
BRANCH  11  12
ATOM     12  C   UNL     1       7.304   5.596  18.573  0.00  0.00    +0.000 C 
BRANCH  12  13
ATOM     13  S   UNL     1       7.148   6.581  17.091  0.00  0.00    +0.000 S 
ATOM     14  C   UNL     1       5.425   6.999  17.083  0.00  0.00    +0.000 C 
ATOM     15  O   UNL     1       7.889   7.815  17.274  0.00  0.00    +0.000 OA
ATOM     16  O   UNL     1       7.395   5.725  15.945  0.00  0.00    +0.000 OA
ENDBRANCH  12  13
ENDBRANCH  11  12
ENDBRANCH   9  11
ENDBRANCH   2   9
BRANCH   2  17
ATOM     17  C   UNL     1       4.337   3.451  16.796  0.00  0.00    +0.000 C 
BRANCH  17  18
ATOM     18  O   UNL     1       5.682   3.326  16.346  0.00  0.00    +0.000 OA
ATOM     19  H   UNL     1       6.080   2.560  16.790  0.00  0.00    +0.000 HD
ENDBRANCH  17  18
ENDBRANCH   2  17
TORSDOF 7
ENDMDL
MODEL 4
REMARK VINA RESULT:      -6.3      1.202      1.554
REMARK  Name = 
REMARK  9 active torsions:
REMARK  status: ('A' for Active; 'I' for Inactive)
REMARK    1  A    between atoms: C_1  and  C_2
REMARK    2  A    between atoms: C_2  and  C_3
REMARK    3  A    between atoms: C_2  and  N_5
REMARK    4  A    between atoms: C_2  and  C_12
REMARK    5  A    between atoms: C_3  and  O_4
REMARK    6  A    between atoms: N_5  and  C_6
REMARK    7  A    between atoms: C_6  and  C_7
REMARK    8  A    between atoms: C_7  and  S_8
REMARK    9  A    between atoms: S_8  and  C_9
REMARK                            x       y       z     vdW  Elec       q    Type
REMARK                         _______ _______ _______ _____ _____    ______ ____
ROOT
ATOM      1  C   UNL     1       4.388   3.086  19.119  0.00  0.00    +0.000 C 
ATOM      2  C   UNL     1       4.113   4.491  18.553  0.00  0.00    +0.000 C 
ENDROOT
BRANCH   2   3
ATOM      3  C   UNL     1       2.585   4.946  18.682  0.00  0.00    +0.000 C 
ATOM      4  C   UNL     1       1.543   4.043  17.978  0.00  0.00    +0.000 C 
ATOM      5  C   UNL     1       1.076   2.832  18.784  0.00  0.00    +0.000 C 
ATOM      6  C   UNL     1       0.697   3.150  20.227  0.00  0.00    +0.000 C 
ATOM      7  C   UNL     1       1.668   4.083  20.939  0.00  0.00    +0.000 C 
ATOM      8  C   UNL     1       2.046   5.287  20.090  0.00  0.00    +0.000 C 
ENDBRANCH   2   3
BRANCH   2   9
ATOM      9  N   UNL     1       4.387   4.484  17.078  0.00  0.00    +0.000 NA
ATOM     10  H   UNL     1       4.682   5.424  16.808  0.00  0.00    +0.000 HD
BRANCH   9  11
ATOM     11  C   UNL     1       5.396   3.530  16.592  0.00  0.00    +0.000 C 
BRANCH  11  12
ATOM     12  C   UNL     1       6.711   4.254  16.328  0.00  0.00    +0.000 C 
BRANCH  12  13
ATOM     13  S   UNL     1       6.623   5.148  14.784  0.00  0.00    +0.000 S 
ATOM     14  C   UNL     1       6.073   3.905  13.646  0.00  0.00    +0.000 C 
ATOM     15  O   UNL     1       5.567   6.139  14.881  0.00  0.00    +0.000 OA
ATOM     16  O   UNL     1       7.969   5.529  14.398  0.00  0.00    +0.000 OA
ENDBRANCH  12  13
ENDBRANCH  11  12
ENDBRANCH   9  11
ENDBRANCH   2   9
BRANCH   2  17
ATOM     17  C   UNL     1       5.010   5.545  19.296  0.00  0.00    +0.000 C 
BRANCH  17  18
ATOM     18  O   UNL     1       6.268   5.048  19.741  0.00  0.00    +0.000 OA
ATOM     19  H   UNL     1       6.780   5.793  20.095  0.00  0.00    +0.000 HD
ENDBRANCH  17  18
ENDBRANCH   2  17
TORSDOF 7
ENDMDL
MODEL 5
REMARK VINA RESULT:      -6.3      1.701      2.463
REMARK  Name = 
REMARK  9 active torsions:
REMARK  status: ('A' for Active; 'I' for Inactive)
REMARK    1  A    between atoms: C_1  and  C_2
REMARK    2  A    between atoms: C_2  and  C_3
REMARK    3  A    between atoms: C_2  and  N_5
REMARK    4  A    between atoms: C_2  and  C_12
REMARK    5  A    between atoms: C_3  and  O_4
REMARK    6  A    between atoms: N_5  and  C_6
REMARK    7  A    between atoms: C_6  and  C_7
REMARK    8  A    between atoms: C_7  and  S_8
REMARK    9  A    between atoms: S_8  and  C_9
REMARK                            x       y       z     vdW  Elec       q    Type
REMARK                         _______ _______ _______ _____ _____    ______ ____
ROOT
ATOM      1  C   UNL     1       2.242   3.846  17.419  0.00  0.00    +0.000 C 
ATOM      2  C   UNL     1       3.337   3.184  18.274  0.00  0.00    +0.000 C 
ENDROOT
BRANCH   2   3
ATOM      3  C   UNL     1       3.600   3.925  19.666  0.00  0.00    +0.000 C 
ATOM      4  C   UNL     1       3.967   5.426  19.580  0.00  0.00    +0.000 C 
ATOM      5  C   UNL     1       2.781   6.385  19.486  0.00  0.00    +0.000 C 
ATOM      6  C   UNL     1       1.672   6.108  20.496  0.00  0.00    +0.000 C 
ATOM      7  C   UNL     1       1.320   4.635  20.653  0.00  0.00    +0.000 C 
ATOM      8  C   UNL     1       2.552   3.754  20.789  0.00  0.00    +0.000 C 
ENDBRANCH   2   3
BRANCH   2   9
ATOM      9  N   UNL     1       4.644   3.269  17.542  0.00  0.00    +0.000 NA
ATOM     10  H   UNL     1       4.950   2.317  17.332  0.00  0.00    +0.000 HD
BRANCH   9  11
ATOM     11  C   UNL     1       4.657   4.040  16.289  0.00  0.00    +0.000 C 
BRANCH  11  12
ATOM     12  C   UNL     1       5.943   3.761  15.520  0.00  0.00    +0.000 C 
BRANCH  12  13
ATOM     13  S   UNL     1       7.200   4.949  15.967  0.00  0.00    +0.000 S 
ATOM     14  C   UNL     1       6.252   6.264  16.687  0.00  0.00    +0.000 C 
ATOM     15  O   UNL     1       8.019   4.383  17.022  0.00  0.00    +0.000 OA
ATOM     16  O   UNL     1       7.800   5.461  14.749  0.00  0.00    +0.000 OA
ENDBRANCH  12  13
ENDBRANCH  11  12
ENDBRANCH   9  11
ENDBRANCH   2   9
BRANCH   2  17
ATOM     17  C   UNL     1       2.945   1.692  18.571  0.00  0.00    +0.000 C 
BRANCH  17  18
ATOM     18  O   UNL     1       1.545   1.432  18.573  0.00  0.00    +0.000 OA
ATOM     19  H   UNL     1       1.216   1.550  19.479  0.00  0.00    +0.000 HD
ENDBRANCH  17  18
ENDBRANCH   2  17
TORSDOF 7
ENDMDL
MODEL 6
REMARK VINA RESULT:      -6.2      1.383      1.803
REMARK  Name = 
REMARK  9 active torsions:
REMARK  status: ('A' for Active; 'I' for Inactive)
REMARK    1  A    between atoms: C_1  and  C_2
REMARK    2  A    between atoms: C_2  and  C_3
REMARK    3  A    between atoms: C_2  and  N_5
REMARK    4  A    between atoms: C_2  and  C_12
REMARK    5  A    between atoms: C_3  and  O_4
REMARK    6  A    between atoms: N_5  and  C_6
REMARK    7  A    between atoms: C_6  and  C_7
REMARK    8  A    between atoms: C_7  and  S_8
REMARK    9  A    between atoms: S_8  and  C_9
REMARK                            x       y       z     vdW  Elec       q    Type
REMARK                         _______ _______ _______ _____ _____    ______ ____
ROOT
ATOM      1  C   UNL     1       3.919   2.887  17.214  0.00  0.00    +0.000 C 
ATOM      2  C   UNL     1       3.975   4.092  18.170  0.00  0.00    +0.000 C 
ENDROOT
BRANCH   2   3
ATOM      3  C   UNL     1       2.536   4.684  18.539  0.00  0.00    +0.000 C 
ATOM      4  C   UNL     1       1.326   3.762  18.252  0.00  0.00    +0.000 C 
ATOM      5  C   UNL     1       1.002   2.748  19.348  0.00  0.00    +0.000 C 
ATOM      6  C   UNL     1       0.972   3.336  20.755  0.00  0.00    +0.000 C 
ATOM      7  C   UNL     1       2.116   4.294  21.059  0.00  0.00    +0.000 C 
ATOM      8  C   UNL     1       2.342   5.302  19.942  0.00  0.00    +0.000 C 
ENDBRANCH   2   3
BRANCH   2   9
ATOM      9  N   UNL     1       4.691   5.221  17.491  0.00  0.00    +0.000 NA
ATOM     10  H   UNL     1       4.265   6.096  17.800  0.00  0.00    +0.000 HD
BRANCH   9  11
ATOM     11  C   UNL     1       6.143   5.315  17.709  0.00  0.00    +0.000 C 
BRANCH  11  12
ATOM     12  C   UNL     1       6.881   4.493  16.659  0.00  0.00    +0.000 C 
BRANCH  12  13
ATOM     13  S   UNL     1       6.667   5.221  15.042  0.00  0.00    +0.000 S 
ATOM     14  C   UNL     1       5.955   3.892  14.108  0.00  0.00    +0.000 C 
ATOM     15  O   UNL     1       5.664   6.266  15.133  0.00  0.00    +0.000 OA
ATOM     16  O   UNL     1       7.979   5.493  14.484  0.00  0.00    +0.000 OA
ENDBRANCH  12  13
ENDBRANCH  11  12
ENDBRANCH   9  11
ENDBRANCH   2   9
BRANCH   2  17
ATOM     17  C   UNL     1       4.697   3.676  19.502  0.00  0.00    +0.000 C 
BRANCH  17  18
ATOM     18  O   UNL     1       5.075   2.305  19.573  0.00  0.00    +0.000 OA
ATOM     19  H   UNL     1       6.032   2.246  19.423  0.00  0.00    +0.000 HD
ENDBRANCH  17  18
ENDBRANCH   2  17
TORSDOF 7
ENDMDL
MODEL 7
REMARK VINA RESULT:      -6.2      1.831      2.388
REMARK  Name = 
REMARK  9 active torsions:
REMARK  status: ('A' for Active; 'I' for Inactive)
REMARK    1  A    between atoms: C_1  and  C_2
REMARK    2  A    between atoms: C_2  and  C_3
REMARK    3  A    between atoms: C_2  and  N_5
REMARK    4  A    between atoms: C_2  and  C_12
REMARK    5  A    between atoms: C_3  and  O_4
REMARK    6  A    between atoms: N_5  and  C_6
REMARK    7  A    between atoms: C_6  and  C_7
REMARK    8  A    between atoms: C_7  and  S_8
REMARK    9  A    between atoms: S_8  and  C_9
REMARK                            x       y       z     vdW  Elec       q    Type
REMARK                         _______ _______ _______ _____ _____    ______ ____
ROOT
ATOM      1  C   UNL     1       4.708   3.925  16.620  0.00  0.00    +0.000 C 
ATOM      2  C   UNL     1       4.232   3.968  18.084  0.00  0.00    +0.000 C 
ENDROOT
BRANCH   2   3
ATOM      3  C   UNL     1       2.856   4.756  18.287  0.00  0.00    +0.000 C 
ATOM      4  C   UNL     1       1.564   3.959  17.987  0.00  0.00    +0.000 C 
ATOM      5  C   UNL     1       1.045   3.097  19.138  0.00  0.00    +0.000 C 
ATOM      6  C   UNL     1       0.994   3.815  20.483  0.00  0.00    +0.000 C 
ATOM      7  C   UNL     1       2.224   4.658  20.791  0.00  0.00    +0.000 C 
ATOM      8  C   UNL     1       2.646   5.523  19.613  0.00  0.00    +0.000 C 
ENDBRANCH   2   3
BRANCH   2   9
ATOM      9  N   UNL     1       5.234   4.730  18.900  0.00  0.00    +0.000 NA
ATOM     10  H   UNL     1       5.130   4.443  19.874  0.00  0.00    +0.000 HD
BRANCH   9  11
ATOM     11  C   UNL     1       6.650   4.580  18.527  0.00  0.00    +0.000 C 
BRANCH  11  12
ATOM     12  C   UNL     1       7.372   5.913  18.683  0.00  0.00    +0.000 C 
BRANCH  12  13
ATOM     13  S   UNL     1       7.006   6.978  17.297  0.00  0.00    +0.000 S 
ATOM     14  C   UNL     1       7.872   8.469  17.713  0.00  0.00    +0.000 C 
ATOM     15  O   UNL     1       7.639   6.431  16.111  0.00  0.00    +0.000 OA
ATOM     16  O   UNL     1       5.587   7.280  17.313  0.00  0.00    +0.000 OA
ENDBRANCH  12  13
ENDBRANCH  11  12
ENDBRANCH   9  11
ENDBRANCH   2   9
BRANCH   2  17
ATOM     17  C   UNL     1       4.051   2.504  18.623  0.00  0.00    +0.000 C 
BRANCH  17  18
ATOM     18  O   UNL     1       4.838   2.188  19.767  0.00  0.00    +0.000 OA
ATOM     19  H   UNL     1       5.650   1.750  19.465  0.00  0.00    +0.000 HD
ENDBRANCH  17  18
ENDBRANCH   2  17
TORSDOF 7
ENDMDL
MODEL 8
REMARK VINA RESULT:      -6.2      1.294      1.513
REMARK  Name = 
REMARK  9 active torsions:
REMARK  status: ('A' for Active; 'I' for Inactive)
REMARK    1  A    between atoms: C_1  and  C_2
REMARK    2  A    between atoms: C_2  and  C_3
REMARK    3  A    between atoms: C_2  and  N_5
REMARK    4  A    between atoms: C_2  and  C_12
REMARK    5  A    between atoms: C_3  and  O_4
REMARK    6  A    between atoms: N_5  and  C_6
REMARK    7  A    between atoms: C_6  and  C_7
REMARK    8  A    between atoms: C_7  and  S_8
REMARK    9  A    between atoms: S_8  and  C_9
REMARK                            x       y       z     vdW  Elec       q    Type
REMARK                         _______ _______ _______ _____ _____    ______ ____
ROOT
ATOM      1  C   UNL     1       4.326   2.896  18.785  0.00  0.00    +0.000 C 
ATOM      2  C   UNL     1       4.099   4.398  18.535  0.00  0.00    +0.000 C 
ENDROOT
BRANCH   2   3
ATOM      3  C   UNL     1       2.629   4.897  18.919  0.00  0.00    +0.000 C 
ATOM      4  C   UNL     1       1.456   4.068  18.343  0.00  0.00    +0.000 C 
ATOM      5  C   UNL     1       1.067   2.834  19.155  0.00  0.00    +0.000 C 
ATOM      6  C   UNL     1       0.926   3.090  20.652  0.00  0.00    +0.000 C 
ATOM      7  C   UNL     1       2.031   3.951  21.248  0.00  0.00    +0.000 C 
ATOM      8  C   UNL     1       2.325   5.184  20.407  0.00  0.00    +0.000 C 
ENDBRANCH   2   3
BRANCH   2   9
ATOM      9  N   UNL     1       4.225   4.671  17.065  0.00  0.00    +0.000 NA
ATOM     10  H   UNL     1       3.319   4.486  16.632  0.00  0.00    +0.000 HD
BRANCH   9  11
ATOM     11  C   UNL     1       4.653   6.023  16.673  0.00  0.00    +0.000 C 
BRANCH  11  12
ATOM     12  C   UNL     1       5.375   5.971  15.331  0.00  0.00    +0.000 C 
BRANCH  12  13
ATOM     13  S   UNL     1       6.603   4.675  15.341  0.00  0.00    +0.000 S 
ATOM     14  C   UNL     1       7.506   4.985  13.847  0.00  0.00    +0.000 C 
ATOM     15  O   UNL     1       7.512   4.906  16.448  0.00  0.00    +0.000 OA
ATOM     16  O   UNL     1       5.926   3.401  15.186  0.00  0.00    +0.000 OA
ENDBRANCH  12  13
ENDBRANCH  11  12
ENDBRANCH   9  11
ENDBRANCH   2   9
BRANCH   2  17
ATOM     17  C   UNL     1       5.141   5.235  19.362  0.00  0.00    +0.000 C 
BRANCH  17  18
ATOM     18  O   UNL     1       6.476   4.744  19.309  0.00  0.00    +0.000 OA
ATOM     19  H   UNL     1       6.758   4.532  20.214  0.00  0.00    +0.000 HD
ENDBRANCH  17  18
ENDBRANCH   2  17
TORSDOF 7
ENDMDL
MODEL 9
REMARK VINA RESULT:      -6.2      1.204      1.834
REMARK  Name = 
REMARK  9 active torsions:
REMARK  status: ('A' for Active; 'I' for Inactive)
REMARK    1  A    between atoms: C_1  and  C_2
REMARK    2  A    between atoms: C_2  and  C_3
REMARK    3  A    between atoms: C_2  and  N_5
REMARK    4  A    between atoms: C_2  and  C_12
REMARK    5  A    between atoms: C_3  and  O_4
REMARK    6  A    between atoms: N_5  and  C_6
REMARK    7  A    between atoms: C_6  and  C_7
REMARK    8  A    between atoms: C_7  and  S_8
REMARK    9  A    between atoms: S_8  and  C_9
REMARK                            x       y       z     vdW  Elec       q    Type
REMARK                         _______ _______ _______ _____ _____    ______ ____
ROOT
ATOM      1  C   UNL     1       3.870   2.584  17.324  0.00  0.00    +0.000 C 
ATOM      2  C   UNL     1       4.088   3.661  18.401  0.00  0.00    +0.000 C 
ENDROOT
BRANCH   2   3
ATOM      3  C   UNL     1       2.757   4.460  18.788  0.00  0.00    +0.000 C 
ATOM      4  C   UNL     1       1.421   3.798  18.373  0.00  0.00    +0.000 C 
ATOM      5  C   UNL     1       0.877   2.754  19.348  0.00  0.00    +0.000 C 
ATOM      6  C   UNL     1       0.884   3.200  20.807  0.00  0.00    +0.000 C 
ATOM      7  C   UNL     1       2.161   3.908  21.241  0.00  0.00    +0.000 C 
ATOM      8  C   UNL     1       2.608   4.963  20.241  0.00  0.00    +0.000 C 
ENDBRANCH   2   3
BRANCH   2   9
ATOM      9  N   UNL     1       5.020   4.707  17.864  0.00  0.00    +0.000 NA
ATOM     10  H   UNL     1       5.939   4.279  17.745  0.00  0.00    +0.000 HD
BRANCH   9  11
ATOM     11  C   UNL     1       4.643   5.345  16.593  0.00  0.00    +0.000 C 
BRANCH  11  12
ATOM     12  C   UNL     1       5.835   6.101  16.018  0.00  0.00    +0.000 C 
BRANCH  12  13
ATOM     13  S   UNL     1       7.064   4.952  15.417  0.00  0.00    +0.000 S 
ATOM     14  C   UNL     1       6.082   3.739  14.575  0.00  0.00    +0.000 C 
ATOM     15  O   UNL     1       7.873   5.620  14.415  0.00  0.00    +0.000 OA
ATOM     16  O   UNL     1       7.678   4.300  16.559  0.00  0.00    +0.000 OA
ENDBRANCH  12  13
ENDBRANCH  11  12
ENDBRANCH   9  11
ENDBRANCH   2   9
BRANCH   2  17
ATOM     17  C   UNL     1       4.665   2.997  19.703  0.00  0.00    +0.000 C 
BRANCH  17  18
ATOM     18  O   UNL     1       4.932   1.603  19.593  0.00  0.00    +0.000 OA
ATOM     19  H   UNL     1       5.450   1.456  18.785  0.00  0.00    +0.000 HD
ENDBRANCH  17  18
ENDBRANCH   2  17
TORSDOF 7
ENDMDL
