MODEL 1
REMARK VINA RESULT:      -7.8      0.000      0.000
REMARK  Name = 
REMARK  7 active torsions:
REMARK  status: ('A' for Active; 'I' for Inactive)
REMARK    1  A    between atoms: C_1  and  C_2
REMARK    2  A    between atoms: C_4  and  C_5
REMARK    3  A    between atoms: C_5  and  N_6
REMARK    4  A    between atoms: C_7  and  C_9
REMARK    5  A    between atoms: N_19  and  C_20
REMARK    6  A    between atoms: C_20  and  C_21
REMARK    7  A    between atoms: C_20  and  C_22
REMARK                            x       y       z     vdW  Elec       q    Type
REMARK                         _______ _______ _______ _____ _____    ______ ____
ROOT
ATOM      1  C   UNL     1       2.037   5.160  20.674  0.00  0.00    +0.000 C 
ATOM      2  C   UNL     1       2.369   6.226  19.673  0.00  0.00    +0.000 A 
ATOM      3  C   UNL     1       1.762   7.497  19.750  0.00  0.00    +0.000 A 
ATOM      4  C   UNL     1       2.038   8.512  18.802  0.00  0.00    +0.000 A 
ATOM      5  C   UNL     1       2.966   8.266  17.781  0.00  0.00    +0.000 A 
ATOM      6  C   UNL     1       3.559   7.015  17.704  0.00  0.00    +0.000 A 
ATOM      7  C   UNL     1       3.264   6.013  18.628  0.00  0.00    +0.000 A 
ATOM      8  C   UNL     1       4.047   4.814  18.244  0.00  0.00    +0.000 C 
ATOM      9  O   UNL     1       4.048   3.757  18.843  0.00  0.00    +0.000 OA
ATOM     10  N   UNL     1       4.761   5.149  17.096  0.00  0.00    +0.000 N 
ATOM     11  C   UNL     1       4.539   6.524  16.695  0.00  0.00    +0.000 C 
ENDROOT
BRANCH  10  12
ATOM     12  C   UNL     1       5.721   4.309  16.378  0.00  0.00    +0.000 C 
ATOM     13  C   UNL     1       5.585   4.452  14.864  0.00  0.00    +0.000 C 
ATOM     14  C   UNL     1       7.161   4.546  16.825  0.00  0.00    +0.000 C 
ENDBRANCH  10  12
BRANCH   4  15
ATOM     15  C   UNL     1       1.332   9.844  18.866  0.00  0.00    +0.000 C 
BRANCH  15  16
ATOM     16  N   UNL     1       0.228   9.926  17.945  0.00  0.00    +0.000 N 
ATOM     17  C   UNL     1      -0.998  10.418  18.351  0.00  0.00    +0.000 C 
ATOM     18  O   UNL     1      -1.194  10.798  19.505  0.00  0.00    +0.000 OA
ATOM     19  H   UNL     1       0.364   9.693  16.969  0.00  0.00    +0.000 HD
BRANCH  17  20
ATOM     20  C   UNL     1      -2.014  10.451  17.329  0.00  0.00    +0.000 A 
ATOM     21  C   UNL     1      -3.156  11.210  17.190  0.00  0.00    +0.000 A 
ATOM     22  C   UNL     1      -3.732  10.755  15.991  0.00  0.00    +0.000 A 
ATOM     23  N   UNL     1      -3.006   9.790  15.423  0.00  0.00    +0.000 NA
ATOM     24  O   UNL     1      -1.923   9.601  16.266  0.00  0.00    +0.000 OA
ENDBRANCH  17  20
ENDBRANCH  15  16
ENDBRANCH   4  15
TORSDOF 4
ENDMDL
MODEL 2
REMARK VINA RESULT:      -7.6      2.551      3.186
REMARK  Name = 
REMARK  7 active torsions:
REMARK  status: ('A' for Active; 'I' for Inactive)
REMARK    1  A    between atoms: C_1  and  C_2
REMARK    2  A    between atoms: C_4  and  C_5
REMARK    3  A    between atoms: C_5  and  N_6
REMARK    4  A    between atoms: C_7  and  C_9
REMARK    5  A    between atoms: N_19  and  C_20
REMARK    6  A    between atoms: C_20  and  C_21
REMARK    7  A    between atoms: C_20  and  C_22
REMARK                            x       y       z     vdW  Elec       q    Type
REMARK                         _______ _______ _______ _____ _____    ______ ____
ROOT
ATOM      1  C   UNL     1       2.226   5.171  20.594  0.00  0.00    +0.000 C 
ATOM      2  C   UNL     1       2.583   6.170  19.535  0.00  0.00    +0.000 A 
ATOM      3  C   UNL     1       1.869   7.381  19.419  0.00  0.00    +0.000 A 
ATOM      4  C   UNL     1       2.170   8.329  18.412  0.00  0.00    +0.000 A 
ATOM      5  C   UNL     1       3.229   8.081  17.528  0.00  0.00    +0.000 A 
ATOM      6  C   UNL     1       3.928   6.890  17.639  0.00  0.00    +0.000 A 
ATOM      7  C   UNL     1       3.610   5.950  18.620  0.00  0.00    +0.000 A 
ATOM      8  C   UNL     1       4.529   4.800  18.444  0.00  0.00    +0.000 C 
ATOM      9  O   UNL     1       4.546   3.804  19.141  0.00  0.00    +0.000 OA
ATOM     10  N   UNL     1       5.342   5.097  17.354  0.00  0.00    +0.000 N 
ATOM     11  C   UNL     1       5.057   6.404  16.797  0.00  0.00    +0.000 C 
ENDROOT
BRANCH  10  12
ATOM     12  C   UNL     1       6.447   4.290  16.831  0.00  0.00    +0.000 C 
ATOM     13  C   UNL     1       6.633   4.481  15.328  0.00  0.00    +0.000 C 
ATOM     14  C   UNL     1       7.755   4.524  17.582  0.00  0.00    +0.000 C 
ENDBRANCH  10  12
BRANCH   4  15
ATOM     15  C   UNL     1       1.354   9.590  18.266  0.00  0.00    +0.000 C 
BRANCH  15  16
ATOM     16  N   UNL     1       0.589   9.890  19.449  0.00  0.00    +0.000 N 
ATOM     17  C   UNL     1       0.749  11.095  20.108  0.00  0.00    +0.000 C 
ATOM     18  O   UNL     1       1.545  11.948  19.718  0.00  0.00    +0.000 OA
ATOM     19  H   UNL     1      -0.129   9.250  19.763  0.00  0.00    +0.000 HD
BRANCH  17  20
ATOM     20  C   UNL     1      -0.083  11.270  21.273  0.00  0.00    +0.000 A 
ATOM     21  C   UNL     1      -1.215  12.025  21.492  0.00  0.00    +0.000 A 
ATOM     22  C   UNL     1      -1.538  11.784  22.839  0.00  0.00    +0.000 A 
ATOM     23  N   UNL     1      -0.679  10.942  23.416  0.00  0.00    +0.000 NA
ATOM     24  O   UNL     1       0.237  10.618  22.428  0.00  0.00    +0.000 OA
ENDBRANCH  17  20
ENDBRANCH  15  16
ENDBRANCH   4  15
TORSDOF 4
ENDMDL
MODEL 3
REMARK VINA RESULT:      -7.5      1.661      3.284
REMARK  Name = 
REMARK  7 active torsions:
REMARK  status: ('A' for Active; 'I' for Inactive)
REMARK    1  A    between atoms: C_1  and  C_2
REMARK    2  A    between atoms: C_4  and  C_5
REMARK    3  A    between atoms: C_5  and  N_6
REMARK    4  A    between atoms: C_7  and  C_9
REMARK    5  A    between atoms: N_19  and  C_20
REMARK    6  A    between atoms: C_20  and  C_21
REMARK    7  A    between atoms: C_20  and  C_22
REMARK                            x       y       z     vdW  Elec       q    Type
REMARK                         _______ _______ _______ _____ _____    ______ ____
ROOT
ATOM      1  C   UNL     1       5.165   6.247  16.393  0.00  0.00    +0.000 C 
ATOM      2  C   UNL     1       4.057   6.682  17.303  0.00  0.00    +0.000 A 
ATOM      3  C   UNL     1       3.559   8.001  17.251  0.00  0.00    +0.000 A 
ATOM      4  C   UNL     1       2.532   8.444  18.117  0.00  0.00    +0.000 A 
ATOM      5  C   UNL     1       1.963   7.543  19.028  0.00  0.00    +0.000 A 
ATOM      6  C   UNL     1       2.455   6.248  19.083  0.00  0.00    +0.000 A 
ATOM      7  C   UNL     1       3.484   5.826  18.241  0.00  0.00    +0.000 A 
ATOM      8  C   UNL     1       3.775   4.411  18.575  0.00  0.00    +0.000 C 
ATOM      9  O   UNL     1       4.606   3.718  18.022  0.00  0.00    +0.000 OA
ATOM     10  N   UNL     1       2.919   4.058  19.614  0.00  0.00    +0.000 N 
ATOM     11  C   UNL     1       2.030   5.141  19.984  0.00  0.00    +0.000 C 
ENDROOT
BRANCH  10  12
ATOM     12  C   UNL     1       2.791   2.742  20.243  0.00  0.00    +0.000 C 
ATOM     13  C   UNL     1       2.312   2.844  21.689  0.00  0.00    +0.000 C 
ATOM     14  C   UNL     1       1.913   1.786  19.440  0.00  0.00    +0.000 C 
ENDBRANCH  10  12
BRANCH   4  15
ATOM     15  C   UNL     1       2.056   9.876  18.087  0.00  0.00    +0.000 C 
BRANCH  15  16
ATOM     16  N   UNL     1       0.643   9.980  17.825  0.00  0.00    +0.000 N 
ATOM     17  C   UNL     1      -0.184  10.689  18.677  0.00  0.00    +0.000 C 
ATOM     18  O   UNL     1       0.248  11.249  19.684  0.00  0.00    +0.000 OA
ATOM     19  H   UNL     1       0.257   9.598  16.972  0.00  0.00    +0.000 HD
BRANCH  17  20
ATOM     20  C   UNL     1      -1.574  10.720  18.295  0.00  0.00    +0.000 A 
ATOM     21  C   UNL     1      -2.282  10.021  17.341  0.00  0.00    +0.000 A 
ATOM     22  C   UNL     1      -3.592  10.520  17.447  0.00  0.00    +0.000 A 
ATOM     23  N   UNL     1      -3.696  11.455  18.394  0.00  0.00    +0.000 NA
ATOM     24  O   UNL     1      -2.424  11.578  18.929  0.00  0.00    +0.000 OA
ENDBRANCH  17  20
ENDBRANCH  15  16
ENDBRANCH   4  15
TORSDOF 4
ENDMDL
MODEL 4
REMARK VINA RESULT:      -7.4      4.384      8.535
REMARK  Name = 
REMARK  7 active torsions:
REMARK  status: ('A' for Active; 'I' for Inactive)
REMARK    1  A    between atoms: C_1  and  C_2
REMARK    2  A    between atoms: C_4  and  C_5
REMARK    3  A    between atoms: C_5  and  N_6
REMARK    4  A    between atoms: C_7  and  C_9
REMARK    5  A    between atoms: N_19  and  C_20
REMARK    6  A    between atoms: C_20  and  C_21
REMARK    7  A    between atoms: C_20  and  C_22
REMARK                            x       y       z     vdW  Elec       q    Type
REMARK                         _______ _______ _______ _____ _____    ______ ____
ROOT
ATOM      1  C   UNL     1       3.326   7.767  17.765  0.00  0.00    +0.000 C 
ATOM      2  C   UNL     1       3.975   6.468  17.394  0.00  0.00    +0.000 A 
ATOM      3  C   UNL     1       4.951   6.416  16.376  0.00  0.00    +0.000 A 
ATOM      4  C   UNL     1       5.559   5.199  15.989  0.00  0.00    +0.000 A 
ATOM      5  C   UNL     1       5.216   4.015  16.656  0.00  0.00    +0.000 A 
ATOM      6  C   UNL     1       4.254   4.064  17.653  0.00  0.00    +0.000 A 
ATOM      7  C   UNL     1       3.642   5.265  18.013  0.00  0.00    +0.000 A 
ATOM      8  C   UNL     1       2.662   4.958  19.082  0.00  0.00    +0.000 C 
ATOM      9  O   UNL     1       1.962   5.776  19.646  0.00  0.00    +0.000 OA
ATOM     10  N   UNL     1       2.721   3.584  19.300  0.00  0.00    +0.000 N 
ATOM     11  C   UNL     1       3.714   2.939  18.466  0.00  0.00    +0.000 C 
ENDROOT
BRANCH  10  12
ATOM     12  C   UNL     1       1.980   2.818  20.304  0.00  0.00    +0.000 C 
ATOM     13  C   UNL     1       2.285   3.291  21.724  0.00  0.00    +0.000 C 
ATOM     14  C   UNL     1       0.476   2.801  20.042  0.00  0.00    +0.000 C 
ENDBRANCH  10  12
BRANCH   4  15
ATOM     15  C   UNL     1       6.555   5.156  14.856  0.00  0.00    +0.000 C 
BRANCH  15  16
ATOM     16  N   UNL     1       6.343   4.033  13.979  0.00  0.00    +0.000 N 
ATOM     17  C   UNL     1       6.822   4.047  12.683  0.00  0.00    +0.000 C 
ATOM     18  O   UNL     1       7.438   5.011  12.229  0.00  0.00    +0.000 OA
ATOM     19  H   UNL     1       5.907   3.190  14.332  0.00  0.00    +0.000 HD
BRANCH  17  20
ATOM     20  C   UNL     1       6.546   2.858  11.916  0.00  0.00    +0.000 A 
ATOM     21  C   UNL     1       5.369   2.202  11.624  0.00  0.00    +0.000 A 
ATOM     22  C   UNL     1       5.770   1.096  10.854  0.00  0.00    +0.000 A 
ATOM     23  N   UNL     1       7.092   1.064  10.675  0.00  0.00    +0.000 NA
ATOM     24  O   UNL     1       7.579   2.176  11.343  0.00  0.00    +0.000 OA
ENDBRANCH  17  20
ENDBRANCH  15  16
ENDBRANCH   4  15
TORSDOF 4
ENDMDL
MODEL 5
REMARK VINA RESULT:      -7.4      0.808      1.124
REMARK  Name = 
REMARK  7 active torsions:
REMARK  status: ('A' for Active; 'I' for Inactive)
REMARK    1  A    between atoms: C_1  and  C_2
REMARK    2  A    between atoms: C_4  and  C_5
REMARK    3  A    between atoms: C_5  and  N_6
REMARK    4  A    between atoms: C_7  and  C_9
REMARK    5  A    between atoms: N_19  and  C_20
REMARK    6  A    between atoms: C_20  and  C_21
REMARK    7  A    between atoms: C_20  and  C_22
REMARK                            x       y       z     vdW  Elec       q    Type
REMARK                         _______ _______ _______ _____ _____    ______ ____
ROOT
ATOM      1  C   UNL     1       2.266   5.229  20.569  0.00  0.00    +0.000 C 
ATOM      2  C   UNL     1       2.496   6.345  19.594  0.00  0.00    +0.000 A 
ATOM      3  C   UNL     1       1.740   7.534  19.670  0.00  0.00    +0.000 A 
ATOM      4  C   UNL     1       1.920   8.590  18.746  0.00  0.00    +0.000 A 
ATOM      5  C   UNL     1       2.901   8.475  17.751  0.00  0.00    +0.000 A 
ATOM      6  C   UNL     1       3.641   7.306  17.674  0.00  0.00    +0.000 A 
ATOM      7  C   UNL     1       3.441   6.259  18.575  0.00  0.00    +0.000 A 
ATOM      8  C   UNL     1       4.373   5.169  18.198  0.00  0.00    +0.000 C 
ATOM      9  O   UNL     1       4.482   4.109  18.782  0.00  0.00    +0.000 OA
ATOM     10  N   UNL     1       5.074   5.607  17.078  0.00  0.00    +0.000 N 
ATOM     11  C   UNL     1       4.702   6.953  16.690  0.00  0.00    +0.000 C 
ENDROOT
BRANCH  10  12
ATOM     12  C   UNL     1       6.149   4.901  16.378  0.00  0.00    +0.000 C 
ATOM     13  C   UNL     1       7.350   4.644  17.286  0.00  0.00    +0.000 C 
ATOM     14  C   UNL     1       5.674   3.610  15.717  0.00  0.00    +0.000 C 
ENDBRANCH  10  12
BRANCH   4  15
ATOM     15  C   UNL     1       1.059   9.828  18.807  0.00  0.00    +0.000 C 
BRANCH  15  16
ATOM     16  N   UNL     1       0.080   9.869  17.751  0.00  0.00    +0.000 N 
ATOM     17  C   UNL     1      -1.203  10.322  17.993  0.00  0.00    +0.000 C 
ATOM     18  O   UNL     1      -1.558  10.701  19.108  0.00  0.00    +0.000 OA
ATOM     19  H   UNL     1       0.348   9.636  16.803  0.00  0.00    +0.000 HD
BRANCH  17  20
ATOM     20  C   UNL     1      -2.080  10.317  16.848  0.00  0.00    +0.000 A 
ATOM     21  C   UNL     1      -2.639   9.288  16.121  0.00  0.00    +0.000 A 
ATOM     22  C   UNL     1      -3.379   9.935  15.116  0.00  0.00    +0.000 A 
ATOM     23  N   UNL     1      -3.293  11.264  15.209  0.00  0.00    +0.000 NA
ATOM     24  O   UNL     1      -2.475  11.503  16.302  0.00  0.00    +0.000 OA
ENDBRANCH  17  20
ENDBRANCH  15  16
ENDBRANCH   4  15
TORSDOF 4
ENDMDL
MODEL 6
REMARK VINA RESULT:      -7.3      2.925      3.403
REMARK  Name = 
REMARK  7 active torsions:
REMARK  status: ('A' for Active; 'I' for Inactive)
REMARK    1  A    between atoms: C_1  and  C_2
REMARK    2  A    between atoms: C_4  and  C_5
REMARK    3  A    between atoms: C_5  and  N_6
REMARK    4  A    between atoms: C_7  and  C_9
REMARK    5  A    between atoms: N_19  and  C_20
REMARK    6  A    between atoms: C_20  and  C_21
REMARK    7  A    between atoms: C_20  and  C_22
REMARK                            x       y       z     vdW  Elec       q    Type
REMARK                         _______ _______ _______ _____ _____    ______ ____
ROOT
ATOM      1  C   UNL     1       1.531   2.500  19.794  0.00  0.00    +0.000 C 
ATOM      2  C   UNL     1       1.999   3.920  19.690  0.00  0.00    +0.000 A 
ATOM      3  C   UNL     1       1.386   4.937  20.452  0.00  0.00    +0.000 A 
ATOM      4  C   UNL     1       1.791   6.289  20.353  0.00  0.00    +0.000 A 
ATOM      5  C   UNL     1       2.855   6.628  19.505  0.00  0.00    +0.000 A 
ATOM      6  C   UNL     1       3.454   5.630  18.752  0.00  0.00    +0.000 A 
ATOM      7  C   UNL     1       3.033   4.303  18.839  0.00  0.00    +0.000 A 
ATOM      8  C   UNL     1       3.863   3.514  17.898  0.00  0.00    +0.000 C 
ATOM      9  O   UNL     1       3.781   2.313  17.729  0.00  0.00    +0.000 OA
ATOM     10  N   UNL     1       4.731   4.408  17.278  0.00  0.00    +0.000 N 
ATOM     11  C   UNL     1       4.567   5.761  17.771  0.00  0.00    +0.000 C 
ENDROOT
BRANCH  10  12
ATOM     12  C   UNL     1       5.785   4.090  16.312  0.00  0.00    +0.000 C 
ATOM     13  C   UNL     1       5.460   4.620  14.918  0.00  0.00    +0.000 C 
ATOM     14  C   UNL     1       7.165   4.555  16.770  0.00  0.00    +0.000 C 
ENDBRANCH  10  12
BRANCH   4  15
ATOM     15  C   UNL     1       1.083   7.370  21.130  0.00  0.00    +0.000 C 
BRANCH  15  16
ATOM     16  N   UNL     1       1.329   8.684  20.595  0.00  0.00    +0.000 N 
ATOM     17  C   UNL     1       0.601   9.775  21.033  0.00  0.00    +0.000 C 
ATOM     18  O   UNL     1      -0.280   9.667  21.885  0.00  0.00    +0.000 OA
ATOM     19  H   UNL     1       2.093   8.832  19.947  0.00  0.00    +0.000 HD
BRANCH  17  20
ATOM     20  C   UNL     1       0.954  11.032  20.420  0.00  0.00    +0.000 A 
ATOM     21  C   UNL     1       1.008  11.430  19.102  0.00  0.00    +0.000 A 
ATOM     22  C   UNL     1       1.442  12.766  19.161  0.00  0.00    +0.000 A 
ATOM     23  N   UNL     1       1.641  13.172  20.416  0.00  0.00    +0.000 NA
ATOM     24  O   UNL     1       1.331  12.079  21.209  0.00  0.00    +0.000 OA
ENDBRANCH  17  20
ENDBRANCH  15  16
ENDBRANCH   4  15
TORSDOF 4
ENDMDL
MODEL 7
REMARK VINA RESULT:      -7.2      2.865      8.589
REMARK  Name = 
REMARK  7 active torsions:
REMARK  status: ('A' for Active; 'I' for Inactive)
REMARK    1  A    between atoms: C_1  and  C_2
REMARK    2  A    between atoms: C_4  and  C_5
REMARK    3  A    between atoms: C_5  and  N_6
REMARK    4  A    between atoms: C_7  and  C_9
REMARK    5  A    between atoms: N_19  and  C_20
REMARK    6  A    between atoms: C_20  and  C_21
REMARK    7  A    between atoms: C_20  and  C_22
REMARK                            x       y       z     vdW  Elec       q    Type
REMARK                         _______ _______ _______ _____ _____    ______ ____
ROOT
ATOM      1  C   UNL     1       1.869  10.023  17.667  0.00  0.00    +0.000 C 
ATOM      2  C   UNL     1       1.600   9.224  18.907  0.00  0.00    +0.000 A 
ATOM      3  C   UNL     1       2.112   7.916  19.045  0.00  0.00    +0.000 A 
ATOM      4  C   UNL     1       1.851   7.131  20.193  0.00  0.00    +0.000 A 
ATOM      5  C   UNL     1       1.096   7.676  21.241  0.00  0.00    +0.000 A 
ATOM      6  C   UNL     1       0.590   8.959  21.105  0.00  0.00    +0.000 A 
ATOM      7  C   UNL     1       0.833   9.717  19.959  0.00  0.00    +0.000 A 
ATOM      8  C   UNL     1       0.136  11.014  20.133  0.00  0.00    +0.000 C 
ATOM      9  O   UNL     1       0.150  11.929  19.333  0.00  0.00    +0.000 OA
ATOM     10  N   UNL     1      -0.506  10.965  21.367  0.00  0.00    +0.000 N 
ATOM     11  C   UNL     1      -0.257   9.720  22.065  0.00  0.00    +0.000 C 
ENDROOT
BRANCH  10  12
ATOM     12  C   UNL     1      -1.273  12.036  22.006  0.00  0.00    +0.000 C 
ATOM     13  C   UNL     1      -2.013  11.546  23.248  0.00  0.00    +0.000 C 
ATOM     14  C   UNL     1      -0.423  13.264  22.321  0.00  0.00    +0.000 C 
ENDBRANCH  10  12
BRANCH   4  15
ATOM     15  C   UNL     1       2.355   5.713  20.294  0.00  0.00    +0.000 C 
BRANCH  15  16
ATOM     16  N   UNL     1       3.756   5.604  19.975  0.00  0.00    +0.000 N 
ATOM     17  C   UNL     1       4.172   4.943  18.834  0.00  0.00    +0.000 C 
ATOM     18  O   UNL     1       3.372   4.425  18.055  0.00  0.00    +0.000 OA
ATOM     19  H   UNL     1       4.444   6.077  20.546  0.00  0.00    +0.000 HD
BRANCH  17  20
ATOM     20  C   UNL     1       5.599   4.913  18.631  0.00  0.00    +0.000 A 
ATOM     21  C   UNL     1       6.366   4.602  17.528  0.00  0.00    +0.000 A 
ATOM     22  C   UNL     1       7.691   4.740  17.978  0.00  0.00    +0.000 A 
ATOM     23  N   UNL     1       7.749   5.111  19.258  0.00  0.00    +0.000 NA
ATOM     24  O   UNL     1       6.430   5.221  19.668  0.00  0.00    +0.000 OA
ENDBRANCH  17  20
ENDBRANCH  15  16
ENDBRANCH   4  15
TORSDOF 4
ENDMDL
MODEL 8
REMARK VINA RESULT:      -7.2      2.557      2.844
REMARK  Name = 
REMARK  7 active torsions:
REMARK  status: ('A' for Active; 'I' for Inactive)
REMARK    1  A    between atoms: C_1  and  C_2
REMARK    2  A    between atoms: C_4  and  C_5
REMARK    3  A    between atoms: C_5  and  N_6
REMARK    4  A    between atoms: C_7  and  C_9
REMARK    5  A    between atoms: N_19  and  C_20
REMARK    6  A    between atoms: C_20  and  C_21
REMARK    7  A    between atoms: C_20  and  C_22
REMARK                            x       y       z     vdW  Elec       q    Type
REMARK                         _______ _______ _______ _____ _____    ______ ____
ROOT
ATOM      1  C   UNL     1       2.088   3.089  20.573  0.00  0.00    +0.000 C 
ATOM      2  C   UNL     1       2.302   4.510  20.147  0.00  0.00    +0.000 A 
ATOM      3  C   UNL     1       1.638   5.567  20.806  0.00  0.00    +0.000 A 
ATOM      4  C   UNL     1       1.802   6.914  20.406  0.00  0.00    +0.000 A 
ATOM      5  C   UNL     1       2.675   7.218  19.353  0.00  0.00    +0.000 A 
ATOM      6  C   UNL     1       3.324   6.181  18.702  0.00  0.00    +0.000 A 
ATOM      7  C   UNL     1       3.139   4.853  19.087  0.00  0.00    +0.000 A 
ATOM      8  C   UNL     1       3.955   4.012  18.179  0.00  0.00    +0.000 C 
ATOM      9  O   UNL     1       4.047   2.801  18.240  0.00  0.00    +0.000 OA
ATOM     10  N   UNL     1       4.577   4.874  17.281  0.00  0.00    +0.000 N 
ATOM     11  C   UNL     1       4.262   6.263  17.547  0.00  0.00    +0.000 C 
ENDROOT
BRANCH  10  12
ATOM     12  C   UNL     1       5.532   4.515  16.230  0.00  0.00    +0.000 C 
ATOM     13  C   UNL     1       5.462   5.474  15.044  0.00  0.00    +0.000 C 
ATOM     14  C   UNL     1       6.961   4.387  16.750  0.00  0.00    +0.000 C 
ENDBRANCH  10  12
BRANCH   4  15
ATOM     15  C   UNL     1       1.036   8.023  21.085  0.00  0.00    +0.000 C 
BRANCH  15  16
ATOM     16  N   UNL     1       0.923   9.198  20.260  0.00  0.00    +0.000 N 
ATOM     17  C   UNL     1       0.751  10.447  20.827  0.00  0.00    +0.000 C 
ATOM     18  O   UNL     1       0.683  10.603  22.046  0.00  0.00    +0.000 OA
ATOM     19  H   UNL     1       1.046   9.127  19.258  0.00  0.00    +0.000 HD
BRANCH  17  20
ATOM     20  C   UNL     1       0.659  11.538  19.888  0.00  0.00    +0.000 A 
ATOM     21  C   UNL     1       1.621  12.225  19.179  0.00  0.00    +0.000 A 
ATOM     22  C   UNL     1       0.895  13.188  18.455  0.00  0.00    +0.000 A 
ATOM     23  N   UNL     1      -0.416  13.107  18.690  0.00  0.00    +0.000 NA
ATOM     24  O   UNL     1      -0.563  12.066  19.592  0.00  0.00    +0.000 OA
ENDBRANCH  17  20
ENDBRANCH  15  16
ENDBRANCH   4  15
TORSDOF 4
ENDMDL
MODEL 9
REMARK VINA RESULT:      -7.1      1.040      1.070
REMARK  Name = 
REMARK  7 active torsions:
REMARK  status: ('A' for Active; 'I' for Inactive)
REMARK    1  A    between atoms: C_1  and  C_2
REMARK    2  A    between atoms: C_4  and  C_5
REMARK    3  A    between atoms: C_5  and  N_6
REMARK    4  A    between atoms: C_7  and  C_9
REMARK    5  A    between atoms: N_19  and  C_20
REMARK    6  A    between atoms: C_20  and  C_21
REMARK    7  A    between atoms: C_20  and  C_22
REMARK                            x       y       z     vdW  Elec       q    Type
REMARK                         _______ _______ _______ _____ _____    ______ ____
ROOT
ATOM      1  C   UNL     1       2.193   4.623  20.926  0.00  0.00    +0.000 C 
ATOM      2  C   UNL     1       2.375   5.821  20.043  0.00  0.00    +0.000 A 
ATOM      3  C   UNL     1       1.702   7.029  20.322  0.00  0.00    +0.000 A 
ATOM      4  C   UNL     1       1.837   8.166  19.491  0.00  0.00    +0.000 A 
ATOM      5  C   UNL     1       2.690   8.108  18.380  0.00  0.00    +0.000 A 
ATOM      6  C   UNL     1       3.349   6.921  18.103  0.00  0.00    +0.000 A 
ATOM      7  C   UNL     1       3.192   5.797  18.915  0.00  0.00    +0.000 A 
ATOM      8  C   UNL     1       4.010   4.710  18.327  0.00  0.00    +0.000 C 
ATOM      9  O   UNL     1       4.124   3.591  18.789  0.00  0.00    +0.000 OA
ATOM     10  N   UNL     1       4.605   5.228  17.180  0.00  0.00    +0.000 N 
ATOM     11  C   UNL     1       4.269   6.622  16.970  0.00  0.00    +0.000 C 
ENDROOT
BRANCH  10  12
ATOM     12  C   UNL     1       5.551   4.549  16.293  0.00  0.00    +0.000 C 
ATOM     13  C   UNL     1       5.463   5.066  14.859  0.00  0.00    +0.000 C 
ATOM     14  C   UNL     1       6.987   4.603  16.809  0.00  0.00    +0.000 C 
ENDBRANCH  10  12
BRANCH   4  15
ATOM     15  C   UNL     1       1.061   9.428  19.772  0.00  0.00    +0.000 C 
BRANCH  15  16
ATOM     16  N   UNL     1      -0.121   9.541  18.956  0.00  0.00    +0.000 N 
ATOM     17  C   UNL     1      -0.565  10.775  18.518  0.00  0.00    +0.000 C 
ATOM     18  O   UNL     1       0.024  11.816  18.808  0.00  0.00    +0.000 OA
ATOM     19  H   UNL     1      -0.594   8.706  18.633  0.00  0.00    +0.000 HD
BRANCH  17  20
ATOM     20  C   UNL     1      -1.755  10.744  17.705  0.00  0.00    +0.000 A 
ATOM     21  C   UNL     1      -2.122   9.950  16.640  0.00  0.00    +0.000 A 
ATOM     22  C   UNL     1      -3.390  10.430  16.270  0.00  0.00    +0.000 A 
ATOM     23  N   UNL     1      -3.787  11.442  17.044  0.00  0.00    +0.000 NA
ATOM     24  O   UNL     1      -2.756  11.637  17.949  0.00  0.00    +0.000 OA
ENDBRANCH  17  20
ENDBRANCH  15  16
ENDBRANCH   4  15
TORSDOF 4
ENDMDL
