MODEL 1
REMARK VINA RESULT:     -10.1      0.000      0.000
REMARK  Name = 
REMARK  6 active torsions:
REMARK  status: ('A' for Active; 'I' for Inactive)
REMARK    1  A    between atoms: C_1  and  N_2
REMARK    2  A    between atoms: C_9  and  O_10
REMARK    3  A    between atoms: O_10  and  C_11
REMARK    4  A    between atoms: C_11  and  C_12
REMARK    5  A    between atoms: C_16  and  N_17
REMARK    6  A    between atoms: C_19  and  C_20
REMARK                            x       y       z     vdW  Elec       q    Type
REMARK                         _______ _______ _______ _____ _____    ______ ____
ROOT
ATOM      1  C   UNL     1       0.848   9.602  19.381  0.00  0.00    +0.000 A 
ATOM      2  C   UNL     1       0.763   9.747  20.759  0.00  0.00    +0.000 A 
ATOM      3  N   UNL     1       1.221   8.841  21.651  0.00  0.00    +0.000 NA
ATOM      4  C   UNL     1       1.794   7.722  21.144  0.00  0.00    +0.000 A 
ATOM      5  C   UNL     1       1.969   7.497  19.786  0.00  0.00    +0.000 A 
ATOM      6  C   UNL     1       1.510   8.470  18.889  0.00  0.00    +0.000 A 
ENDROOT
BRANCH   5   7
ATOM      7  N   UNL     1       2.575   6.303  19.315  0.00  0.00    +0.000 N 
ATOM      8  C   UNL     1       3.613   6.249  18.407  0.00  0.00    +0.000 A 
ATOM      9  C   UNL     1       3.955   4.931  18.154  0.00  0.00    +0.000 A 
ATOM     10  C   UNL     1       3.030   4.127  18.907  0.00  0.00    +0.000 A 
ATOM     11  C   UNL     1       2.756   2.755  19.064  0.00  0.00    +0.000 A 
ATOM     12  N   UNL     1       3.428   1.730  18.414  0.00  0.00    +0.000 N 
ATOM     13  N   UNL     1       1.761   2.371  19.887  0.00  0.00    +0.000 NA
ATOM     14  C   UNL     1       1.059   3.317  20.529  0.00  0.00    +0.000 A 
ATOM     15  N   UNL     1       1.224   4.641  20.467  0.00  0.00    +0.000 NA
ATOM     16  C   UNL     1       2.226   5.001  19.640  0.00  0.00    +0.000 A 
ATOM     17  H   UNL     1       4.404   1.902  18.229  0.00  0.00    +0.000 HD
ATOM     18  H   UNL     1       3.210   0.841  18.853  0.00  0.00    +0.000 HD
BRANCH   9  19
ATOM     19  C   UNL     1       5.082   4.461  17.282  0.00  0.00    +0.000 C 
ATOM     20  C   UNL     1       5.287   5.256  15.991  0.00  0.00    +0.000 C 
ATOM     21  C   UNL     1       6.683   4.856  15.537  0.00  0.00    +0.000 C 
ATOM     22  C   UNL     1       7.467   4.571  16.817  0.00  0.00    +0.000 C 
ATOM     23  C   UNL     1       6.451   4.593  17.959  0.00  0.00    +0.000 C 
ENDBRANCH   9  19
ENDBRANCH   5   7
BRANCH   1  24
ATOM     24  C   UNL     1       0.193  10.596  18.463  0.00  0.00    +0.000 C 
BRANCH  24  25
ATOM     25  O   UNL     1      -0.640   9.924  17.521  0.00  0.00    +0.000 OA
BRANCH  25  34
ATOM     26  C   UNL     1      -5.124  13.575  21.717  0.00  0.00    +0.000 C 
ATOM     27  N   UNL     1      -5.998  13.496  20.561  0.00  0.00    +0.000 N 
ATOM     28  C   UNL     1      -5.462  12.808  19.457  0.00  0.00    +0.000 A 
ATOM     29  C   UNL     1      -6.237  12.754  18.304  0.00  0.00    +0.000 A 
ATOM     30  C   UNL     1      -5.723  12.149  17.164  0.00  0.00    +0.000 A 
ATOM     31  C   UNL     1      -4.442  11.597  17.199  0.00  0.00    +0.000 A 
ATOM     32  C   UNL     1      -3.875  11.000  16.065  0.00  0.00    +0.000 A 
ATOM     33  C   UNL     1      -2.599  10.440  16.124  0.00  0.00    +0.000 A 
ATOM     34  C   UNL     1      -1.888  10.461  17.323  0.00  0.00    +0.000 A 
ATOM     35  C   UNL     1      -2.463  11.073  18.445  0.00  0.00    +0.000 A 
ATOM     36  C   UNL     1      -3.725  11.660  18.409  0.00  0.00    +0.000 A 
ATOM     37  N   UNL     1      -4.226  12.265  19.507  0.00  0.00    +0.000 NA
ATOM     38  H   UNL     1      -6.908  13.105  20.788  0.00  0.00    +0.000 HD
ENDBRANCH  25  34
ENDBRANCH  24  25
ENDBRANCH   1  24
TORSDOF 5
ENDMDL
MODEL 2
REMARK VINA RESULT:      -9.5      3.485      5.200
REMARK  Name = 
REMARK  6 active torsions:
REMARK  status: ('A' for Active; 'I' for Inactive)
REMARK    1  A    between atoms: C_1  and  N_2
REMARK    2  A    between atoms: C_9  and  O_10
REMARK    3  A    between atoms: O_10  and  C_11
REMARK    4  A    between atoms: C_11  and  C_12
REMARK    5  A    between atoms: C_16  and  N_17
REMARK    6  A    between atoms: C_19  and  C_20
REMARK                            x       y       z     vdW  Elec       q    Type
REMARK                         _______ _______ _______ _____ _____    ______ ____
ROOT
ATOM      1  C   UNL     1       1.298   9.414  19.064  0.00  0.00    +0.000 A 
ATOM      2  C   UNL     1       0.938   9.454  20.404  0.00  0.00    +0.000 A 
ATOM      3  N   UNL     1       1.123   8.437  21.274  0.00  0.00    +0.000 NA
ATOM      4  C   UNL     1       1.696   7.310  20.783  0.00  0.00    +0.000 A 
ATOM      5  C   UNL     1       2.132   7.180  19.472  0.00  0.00    +0.000 A 
ATOM      6  C   UNL     1       1.952   8.264  18.604  0.00  0.00    +0.000 A 
ENDROOT
BRANCH   5   7
ATOM      7  N   UNL     1       2.722   5.973  19.015  0.00  0.00    +0.000 N 
ATOM      8  C   UNL     1       3.772   5.896  18.121  0.00  0.00    +0.000 A 
ATOM      9  C   UNL     1       4.093   4.571  17.879  0.00  0.00    +0.000 A 
ATOM     10  C   UNL     1       3.144   3.787  18.623  0.00  0.00    +0.000 A 
ATOM     11  C   UNL     1       2.843   2.421  18.782  0.00  0.00    +0.000 A 
ATOM     12  N   UNL     1       3.505   1.381  18.146  0.00  0.00    +0.000 N 
ATOM     13  N   UNL     1       1.830   2.059  19.593  0.00  0.00    +0.000 NA
ATOM     14  C   UNL     1       1.136   3.020  20.221  0.00  0.00    +0.000 A 
ATOM     15  N   UNL     1       1.327   4.341  20.155  0.00  0.00    +0.000 NA
ATOM     16  C   UNL     1       2.346   4.679  19.341  0.00  0.00    +0.000 A 
ATOM     17  H   UNL     1       4.487   1.534  17.973  0.00  0.00    +0.000 HD
ATOM     18  H   UNL     1       3.265   0.498  18.585  0.00  0.00    +0.000 HD
BRANCH   9  19
ATOM     19  C   UNL     1       5.224   4.077  17.025  0.00  0.00    +0.000 C 
ATOM     20  C   UNL     1       5.105   4.394  15.533  0.00  0.00    +0.000 C 
ATOM     21  C   UNL     1       6.512   4.167  15.002  0.00  0.00    +0.000 C 
ATOM     22  C   UNL     1       7.451   4.521  16.154  0.00  0.00    +0.000 C 
ATOM     23  C   UNL     1       6.566   4.724  17.384  0.00  0.00    +0.000 C 
ENDBRANCH   9  19
ENDBRANCH   5   7
BRANCH   1  24
ATOM     24  C   UNL     1       0.934  10.540  18.137  0.00  0.00    +0.000 C 
BRANCH  24  25
ATOM     25  O   UNL     1       0.213  11.547  18.843  0.00  0.00    +0.000 OA
BRANCH  25  34
ATOM     26  C   UNL     1       6.766  14.124  17.642  0.00  0.00    +0.000 C 
ATOM     27  N   UNL     1       6.124  15.400  17.894  0.00  0.00    +0.000 N 
ATOM     28  C   UNL     1       4.752  15.326  18.196  0.00  0.00    +0.000 A 
ATOM     29  C   UNL     1       4.078  16.526  18.389  0.00  0.00    +0.000 A 
ATOM     30  C   UNL     1       2.708  16.510  18.618  0.00  0.00    +0.000 A 
ATOM     31  C   UNL     1       2.034  15.289  18.660  0.00  0.00    +0.000 A 
ATOM     32  C   UNL     1       0.648  15.228  18.863  0.00  0.00    +0.000 A 
ATOM     33  C   UNL     1      -0.004  13.996  18.917  0.00  0.00    +0.000 A 
ATOM     34  C   UNL     1       0.727  12.817  18.783  0.00  0.00    +0.000 A 
ATOM     35  C   UNL     1       2.110  12.895  18.568  0.00  0.00    +0.000 A 
ATOM     36  C   UNL     1       2.785  14.111  18.487  0.00  0.00    +0.000 A 
ATOM     37  N   UNL     1       4.113  14.138  18.248  0.00  0.00    +0.000 NA
ATOM     38  H   UNL     1       6.596  15.936  18.617  0.00  0.00    +0.000 HD
ENDBRANCH  25  34
ENDBRANCH  24  25
ENDBRANCH   1  24
TORSDOF 5
ENDMDL
MODEL 3
REMARK VINA RESULT:      -9.5      1.751      2.949
REMARK  Name = 
REMARK  6 active torsions:
REMARK  status: ('A' for Active; 'I' for Inactive)
REMARK    1  A    between atoms: C_1  and  N_2
REMARK    2  A    between atoms: C_9  and  O_10
REMARK    3  A    between atoms: O_10  and  C_11
REMARK    4  A    between atoms: C_11  and  C_12
REMARK    5  A    between atoms: C_16  and  N_17
REMARK    6  A    between atoms: C_19  and  C_20
REMARK                            x       y       z     vdW  Elec       q    Type
REMARK                         _______ _______ _______ _____ _____    ______ ____
ROOT
ATOM      1  C   UNL     1       1.068   9.364  20.339  0.00  0.00    +0.000 A 
ATOM      2  C   UNL     1       0.986  10.176  19.216  0.00  0.00    +0.000 A 
ATOM      3  N   UNL     1       1.491   9.855  18.005  0.00  0.00    +0.000 NA
ATOM      4  C   UNL     1       2.118   8.657  17.904  0.00  0.00    +0.000 A 
ATOM      5  C   UNL     1       2.218   7.752  18.950  0.00  0.00    +0.000 A 
ATOM      6  C   UNL     1       1.658   8.103  20.185  0.00  0.00    +0.000 A 
ENDROOT
BRANCH   5   7
ATOM      7  N   UNL     1       2.891   6.513  18.784  0.00  0.00    +0.000 N 
ATOM      8  C   UNL     1       3.741   6.210  17.740  0.00  0.00    +0.000 A 
ATOM      9  C   UNL     1       4.216   4.916  17.874  0.00  0.00    +0.000 A 
ATOM     10  C   UNL     1       3.571   4.373  19.039  0.00  0.00    +0.000 A 
ATOM     11  C   UNL     1       3.529   3.132  19.704  0.00  0.00    +0.000 A 
ATOM     12  N   UNL     1       4.210   1.992  19.303  0.00  0.00    +0.000 N 
ATOM     13  N   UNL     1       2.769   3.000  20.808  0.00  0.00    +0.000 NA
ATOM     14  C   UNL     1       2.069   4.062  21.235  0.00  0.00    +0.000 A 
ATOM     15  N   UNL     1       2.028   5.284  20.697  0.00  0.00    +0.000 NA
ATOM     16  C   UNL     1       2.799   5.393  19.596  0.00  0.00    +0.000 A 
ATOM     17  H   UNL     1       5.100   2.153  18.858  0.00  0.00    +0.000 HD
ATOM     18  H   UNL     1       4.206   1.306  20.051  0.00  0.00    +0.000 HD
BRANCH   9  19
ATOM     19  C   UNL     1       5.219   4.245  16.982  0.00  0.00    +0.000 C 
ATOM     20  C   UNL     1       5.030   4.490  15.484  0.00  0.00    +0.000 C 
ATOM     21  C   UNL     1       6.361   4.069  14.878  0.00  0.00    +0.000 C 
ATOM     22  C   UNL     1       7.414   4.373  15.943  0.00  0.00    +0.000 C 
ATOM     23  C   UNL     1       6.648   4.748  17.211  0.00  0.00    +0.000 C 
ENDBRANCH   9  19
ENDBRANCH   5   7
BRANCH   1  24
ATOM     24  C   UNL     1       0.596   9.858  21.679  0.00  0.00    +0.000 C 
BRANCH  24  25
ATOM     25  O   UNL     1       0.451  11.275  21.659  0.00  0.00    +0.000 OA
BRANCH  25  34
ATOM     26  C   UNL     1      -5.158  12.174  17.327  0.00  0.00    +0.000 C 
ATOM     27  N   UNL     1      -5.763  12.754  18.512  0.00  0.00    +0.000 N 
ATOM     28  C   UNL     1      -4.936  12.779  19.650  0.00  0.00    +0.000 A 
ATOM     29  C   UNL     1      -5.487  13.272  20.826  0.00  0.00    +0.000 A 
ATOM     30  C   UNL     1      -4.736  13.250  21.994  0.00  0.00    +0.000 A 
ATOM     31  C   UNL     1      -3.437  12.742  21.964  0.00  0.00    +0.000 A 
ATOM     32  C   UNL     1      -2.652  12.677  23.124  0.00  0.00    +0.000 A 
ATOM     33  C   UNL     1      -1.351  12.180  23.070  0.00  0.00    +0.000 A 
ATOM     34  C   UNL     1      -0.819  11.758  21.853  0.00  0.00    +0.000 A 
ATOM     35  C   UNL     1      -1.620  11.817  20.703  0.00  0.00    +0.000 A 
ATOM     36  C   UNL     1      -2.931  12.287  20.732  0.00  0.00    +0.000 A 
ATOM     37  N   UNL     1      -3.675  12.297  19.605  0.00  0.00    +0.000 NA
ATOM     38  H   UNL     1      -6.126  13.688  18.344  0.00  0.00    +0.000 HD
ENDBRANCH  25  34
ENDBRANCH  24  25
ENDBRANCH   1  24
TORSDOF 5
ENDMDL
MODEL 4
REMARK VINA RESULT:      -9.4      2.015     10.668
REMARK  Name = 
REMARK  6 active torsions:
REMARK  status: ('A' for Active; 'I' for Inactive)
REMARK    1  A    between atoms: C_1  and  N_2
REMARK    2  A    between atoms: C_9  and  O_10
REMARK    3  A    between atoms: O_10  and  C_11
REMARK    4  A    between atoms: C_11  and  C_12
REMARK    5  A    between atoms: C_16  and  N_17
REMARK    6  A    between atoms: C_19  and  C_20
REMARK                            x       y       z     vdW  Elec       q    Type
REMARK                         _______ _______ _______ _____ _____    ______ ____
ROOT
ATOM      1  C   UNL     1       0.651  10.746  21.058  0.00  0.00    +0.000 A 
ATOM      2  C   UNL     1       1.484  11.802  20.713  0.00  0.00    +0.000 A 
ATOM      3  N   UNL     1       1.077  12.911  20.057  0.00  0.00    +0.000 NA
ATOM      4  C   UNL     1      -0.235  12.973  19.720  0.00  0.00    +0.000 A 
ATOM      5  C   UNL     1      -1.160  11.995  20.053  0.00  0.00    +0.000 A 
ATOM      6  C   UNL     1      -0.711  10.872  20.760  0.00  0.00    +0.000 A 
ENDROOT
BRANCH   5   7
ATOM      7  N   UNL     1      -2.521  12.115  19.669  0.00  0.00    +0.000 N 
ATOM      8  C   UNL     1      -3.538  12.560  20.490  0.00  0.00    +0.000 A 
ATOM      9  C   UNL     1      -4.743  12.541  19.807  0.00  0.00    +0.000 A 
ATOM     10  C   UNL     1      -4.457  11.995  18.508  0.00  0.00    +0.000 A 
ATOM     11  C   UNL     1      -5.192  11.637  17.361  0.00  0.00    +0.000 A 
ATOM     12  N   UNL     1      -6.568  11.751  17.232  0.00  0.00    +0.000 N 
ATOM     13  N   UNL     1      -4.546  11.125  16.296  0.00  0.00    +0.000 NA
ATOM     14  C   UNL     1      -3.215  10.969  16.368  0.00  0.00    +0.000 A 
ATOM     15  N   UNL     1      -2.411  11.273  17.391  0.00  0.00    +0.000 NA
ATOM     16  C   UNL     1      -3.079  11.785  18.443  0.00  0.00    +0.000 A 
ATOM     17  H   UNL     1      -6.986  12.527  17.722  0.00  0.00    +0.000 HD
ATOM     18  H   UNL     1      -6.833  11.649  16.258  0.00  0.00    +0.000 HD
BRANCH   9  19
ATOM     19  C   UNL     1      -6.064  13.020  20.332  0.00  0.00    +0.000 C 
ATOM     20  C   UNL     1      -6.854  11.996  21.150  0.00  0.00    +0.000 C 
ATOM     21  C   UNL     1      -7.893  12.839  21.877  0.00  0.00    +0.000 C 
ATOM     22  C   UNL     1      -7.233  14.196  22.112  0.00  0.00    +0.000 C 
ATOM     23  C   UNL     1      -5.924  14.181  21.323  0.00  0.00    +0.000 C 
ENDBRANCH   9  19
ENDBRANCH   5   7
BRANCH   1  24
ATOM     24  C   UNL     1       1.214   9.493  21.668  0.00  0.00    +0.000 C 
BRANCH  24  25
ATOM     25  O   UNL     1       0.775   8.348  20.941  0.00  0.00    +0.000 OA
BRANCH  25  34
ATOM     26  C   UNL     1       4.456   2.282  20.113  0.00  0.00    +0.000 C 
ATOM     27  N   UNL     1       4.954   2.948  18.924  0.00  0.00    +0.000 N 
ATOM     28  C   UNL     1       4.452   4.245  18.714  0.00  0.00    +0.000 A 
ATOM     29  C   UNL     1       4.853   4.904  17.558  0.00  0.00    +0.000 A 
ATOM     30  C   UNL     1       4.329   6.157  17.269  0.00  0.00    +0.000 A 
ATOM     31  C   UNL     1       3.415   6.737  18.150  0.00  0.00    +0.000 A 
ATOM     32  C   UNL     1       2.842   7.989  17.885  0.00  0.00    +0.000 A 
ATOM     33  C   UNL     1       1.943   8.559  18.785  0.00  0.00    +0.000 A 
ATOM     34  C   UNL     1       1.622   7.888  19.964  0.00  0.00    +0.000 A 
ATOM     35  C   UNL     1       2.193   6.631  20.209  0.00  0.00    +0.000 A 
ATOM     36  C   UNL     1       3.076   6.028  19.317  0.00  0.00    +0.000 A 
ATOM     37  N   UNL     1       3.578   4.802  19.581  0.00  0.00    +0.000 NA
ATOM     38  H   UNL     1       5.969   2.974  18.890  0.00  0.00    +0.000 HD
ENDBRANCH  25  34
ENDBRANCH  24  25
ENDBRANCH   1  24
TORSDOF 5
ENDMDL
MODEL 5
REMARK VINA RESULT:      -9.4      1.636      2.591
REMARK  Name = 
REMARK  6 active torsions:
REMARK  status: ('A' for Active; 'I' for Inactive)
REMARK    1  A    between atoms: C_1  and  N_2
REMARK    2  A    between atoms: C_9  and  O_10
REMARK    3  A    between atoms: O_10  and  C_11
REMARK    4  A    between atoms: C_11  and  C_12
REMARK    5  A    between atoms: C_16  and  N_17
REMARK    6  A    between atoms: C_19  and  C_20
REMARK                            x       y       z     vdW  Elec       q    Type
REMARK                         _______ _______ _______ _____ _____    ______ ____
ROOT
ATOM      1  C   UNL     1       1.551   9.340  19.476  0.00  0.00    +0.000 A 
ATOM      2  C   UNL     1       0.976   9.210  20.733  0.00  0.00    +0.000 A 
ATOM      3  N   UNL     1       0.959   8.064  21.448  0.00  0.00    +0.000 NA
ATOM      4  C   UNL     1       1.544   6.981  20.879  0.00  0.00    +0.000 A 
ATOM      5  C   UNL     1       2.185   7.012  19.649  0.00  0.00    +0.000 A 
ATOM      6  C   UNL     1       2.210   8.224  18.947  0.00  0.00    +0.000 A 
ENDROOT
BRANCH   5   7
ATOM      7  N   UNL     1       2.777   5.843  19.103  0.00  0.00    +0.000 N 
ATOM      8  C   UNL     1       3.807   5.836  18.185  0.00  0.00    +0.000 A 
ATOM      9  C   UNL     1       4.137   4.532  17.852  0.00  0.00    +0.000 A 
ATOM     10  C   UNL     1       3.213   3.692  18.564  0.00  0.00    +0.000 A 
ATOM     11  C   UNL     1       2.929   2.315  18.643  0.00  0.00    +0.000 A 
ATOM     12  N   UNL     1       3.588   1.326  17.928  0.00  0.00    +0.000 N 
ATOM     13  N   UNL     1       1.939   1.890  19.451  0.00  0.00    +0.000 NA
ATOM     14  C   UNL     1       1.249   2.802  20.153  0.00  0.00    +0.000 A 
ATOM     15  N   UNL     1       1.424   4.126  20.167  0.00  0.00    +0.000 NA
ATOM     16  C   UNL     1       2.422   4.527  19.354  0.00  0.00    +0.000 A 
ATOM     17  H   UNL     1       4.564   1.501  17.744  0.00  0.00    +0.000 HD
ATOM     18  H   UNL     1       3.368   0.414  18.315  0.00  0.00    +0.000 HD
BRANCH   9  19
ATOM     19  C   UNL     1       5.254   4.107  16.944  0.00  0.00    +0.000 C 
ATOM     20  C   UNL     1       4.969   4.244  15.447  0.00  0.00    +0.000 C 
ATOM     21  C   UNL     1       6.347   4.154  14.807  0.00  0.00    +0.000 C 
ATOM     22  C   UNL     1       7.315   4.752  15.826  0.00  0.00    +0.000 C 
ATOM     23  C   UNL     1       6.513   4.964  17.109  0.00  0.00    +0.000 C 
ENDBRANCH   9  19
ENDBRANCH   5   7
BRANCH   1  24
ATOM     24  C   UNL     1       1.407  10.617  18.695  0.00  0.00    +0.000 C 
BRANCH  24  25
ATOM     25  O   UNL     1       0.697  11.587  19.461  0.00  0.00    +0.000 OA
BRANCH  25  34
ATOM     26  C   UNL     1      -3.413   9.907  13.864  0.00  0.00    +0.000 C 
ATOM     27  N   UNL     1      -4.466  10.476  14.684  0.00  0.00    +0.000 N 
ATOM     28  C   UNL     1      -4.047  10.960  15.937  0.00  0.00    +0.000 A 
ATOM     29  C   UNL     1      -5.027  11.464  16.784  0.00  0.00    +0.000 A 
ATOM     30  C   UNL     1      -4.676  11.887  18.060  0.00  0.00    +0.000 A 
ATOM     31  C   UNL     1      -3.343  11.809  18.464  0.00  0.00    +0.000 A 
ATOM     32  C   UNL     1      -2.947  12.202  19.751  0.00  0.00    +0.000 A 
ATOM     33  C   UNL     1      -1.608  12.130  20.131  0.00  0.00    +0.000 A 
ATOM     34  C   UNL     1      -0.652  11.680  19.222  0.00  0.00    +0.000 A 
ATOM     35  C   UNL     1      -1.063  11.279  17.944  0.00  0.00    +0.000 A 
ATOM     36  C   UNL     1      -2.398  11.318  17.544  0.00  0.00    +0.000 A 
ATOM     37  N   UNL     1      -2.752  10.893  16.313  0.00  0.00    +0.000 NA
ATOM     38  H   UNL     1      -4.983  11.205  14.201  0.00  0.00    +0.000 HD
ENDBRANCH  25  34
ENDBRANCH  24  25
ENDBRANCH   1  24
TORSDOF 5
ENDMDL
MODEL 6
REMARK VINA RESULT:      -9.4      2.942      3.490
REMARK  Name = 
REMARK  6 active torsions:
REMARK  status: ('A' for Active; 'I' for Inactive)
REMARK    1  A    between atoms: C_1  and  N_2
REMARK    2  A    between atoms: C_9  and  O_10
REMARK    3  A    between atoms: O_10  and  C_11
REMARK    4  A    between atoms: C_11  and  C_12
REMARK    5  A    between atoms: C_16  and  N_17
REMARK    6  A    between atoms: C_19  and  C_20
REMARK                            x       y       z     vdW  Elec       q    Type
REMARK                         _______ _______ _______ _____ _____    ______ ____
ROOT
ATOM      1  C   UNL     1       0.953   9.122  20.592  0.00  0.00    +0.000 A 
ATOM      2  C   UNL     1       0.847   9.960  19.490  0.00  0.00    +0.000 A 
ATOM      3  N   UNL     1       1.378   9.694  18.276  0.00  0.00    +0.000 NA
ATOM      4  C   UNL     1       2.057   8.528  18.150  0.00  0.00    +0.000 A 
ATOM      5  C   UNL     1       2.186   7.600  19.173  0.00  0.00    +0.000 A 
ATOM      6  C   UNL     1       1.599   7.893  20.410  0.00  0.00    +0.000 A 
ENDROOT
BRANCH   5   7
ATOM      7  N   UNL     1       2.914   6.396  18.981  0.00  0.00    +0.000 N 
ATOM      8  C   UNL     1       3.787   6.159  17.938  0.00  0.00    +0.000 A 
ATOM      9  C   UNL     1       4.317   4.883  18.043  0.00  0.00    +0.000 A 
ATOM     10  C   UNL     1       3.683   4.281  19.186  0.00  0.00    +0.000 A 
ATOM     11  C   UNL     1       3.689   3.022  19.816  0.00  0.00    +0.000 A 
ATOM     12  N   UNL     1       4.423   1.923  19.392  0.00  0.00    +0.000 N 
ATOM     13  N   UNL     1       2.924   2.827  20.907  0.00  0.00    +0.000 NA
ATOM     14  C   UNL     1       2.173   3.845  21.354  0.00  0.00    +0.000 A 
ATOM     15  N   UNL     1       2.086   5.079  20.849  0.00  0.00    +0.000 NA
ATOM     16  C   UNL     1       2.862   5.251  19.761  0.00  0.00    +0.000 A 
ATOM     17  H   UNL     1       5.310   2.135  18.962  0.00  0.00    +0.000 HD
ATOM     18  H   UNL     1       4.441   1.218  20.121  0.00  0.00    +0.000 HD
BRANCH   9  19
ATOM     19  C   UNL     1       5.357   4.281  17.145  0.00  0.00    +0.000 C 
ATOM     20  C   UNL     1       5.014   4.280  15.654  0.00  0.00    +0.000 C 
ATOM     21  C   UNL     1       6.351   4.019  14.976  0.00  0.00    +0.000 C 
ATOM     22  C   UNL     1       7.405   4.646  15.886  0.00  0.00    +0.000 C 
ATOM     23  C   UNL     1       6.680   5.053  17.169  0.00  0.00    +0.000 C 
ENDBRANCH   9  19
ENDBRANCH   5   7
BRANCH   1  24
ATOM     24  C   UNL     1       0.447   9.558  21.939  0.00  0.00    +0.000 C 
BRANCH  24  25
ATOM     25  O   UNL     1       0.631  10.962  22.104  0.00  0.00    +0.000 OA
BRANCH  25  34
ATOM     26  C   UNL     1      -1.525  17.097  19.147  0.00  0.00    +0.000 C 
ATOM     27  N   UNL     1      -2.674  16.913  20.014  0.00  0.00    +0.000 N 
ATOM     28  C   UNL     1      -2.633  15.758  20.818  0.00  0.00    +0.000 A 
ATOM     29  C   UNL     1      -3.735  15.505  21.625  0.00  0.00    +0.000 A 
ATOM     30  C   UNL     1      -3.775  14.342  22.382  0.00  0.00    +0.000 A 
ATOM     31  C   UNL     1      -2.702  13.451  22.327  0.00  0.00    +0.000 A 
ATOM     32  C   UNL     1      -2.711  12.253  23.055  0.00  0.00    +0.000 A 
ATOM     33  C   UNL     1      -1.622  11.384  22.998  0.00  0.00    +0.000 A 
ATOM     34  C   UNL     1      -0.511  11.714  22.225  0.00  0.00    +0.000 A 
ATOM     35  C   UNL     1      -0.521  12.909  21.492  0.00  0.00    +0.000 A 
ATOM     36  C   UNL     1      -1.604  13.786  21.512  0.00  0.00    +0.000 A 
ATOM     37  N   UNL     1      -1.582  14.911  20.767  0.00  0.00    +0.000 NA
ATOM     38  H   UNL     1      -2.850  17.722  20.603  0.00  0.00    +0.000 HD
ENDBRANCH  25  34
ENDBRANCH  24  25
ENDBRANCH   1  24
TORSDOF 5
ENDMDL
MODEL 7
REMARK VINA RESULT:      -9.3      3.251      3.979
REMARK  Name = 
REMARK  6 active torsions:
REMARK  status: ('A' for Active; 'I' for Inactive)
REMARK    1  A    between atoms: C_1  and  N_2
REMARK    2  A    between atoms: C_9  and  O_10
REMARK    3  A    between atoms: O_10  and  C_11
REMARK    4  A    between atoms: C_11  and  C_12
REMARK    5  A    between atoms: C_16  and  N_17
REMARK    6  A    between atoms: C_19  and  C_20
REMARK                            x       y       z     vdW  Elec       q    Type
REMARK                         _______ _______ _______ _____ _____    ______ ____
ROOT
ATOM      1  C   UNL     1       1.017   9.381  20.435  0.00  0.00    +0.000 A 
ATOM      2  C   UNL     1       0.765  10.105  19.278  0.00  0.00    +0.000 A 
ATOM      3  N   UNL     1       1.171   9.735  18.043  0.00  0.00    +0.000 NA
ATOM      4  C   UNL     1       1.872   8.578  17.954  0.00  0.00    +0.000 A 
ATOM      5  C   UNL     1       2.141   7.757  19.039  0.00  0.00    +0.000 A 
ATOM      6  C   UNL     1       1.681   8.155  20.301  0.00  0.00    +0.000 A 
ENDROOT
BRANCH   5   7
ATOM      7  N   UNL     1       2.885   6.558  18.883  0.00  0.00    +0.000 N 
ATOM      8  C   UNL     1       3.788   6.316  17.868  0.00  0.00    +0.000 A 
ATOM      9  C   UNL     1       4.326   5.046  18.004  0.00  0.00    +0.000 A 
ATOM     10  C   UNL     1       3.667   4.452  19.136  0.00  0.00    +0.000 A 
ATOM     11  C   UNL     1       3.667   3.202  19.783  0.00  0.00    +0.000 A 
ATOM     12  N   UNL     1       4.421   2.105  19.393  0.00  0.00    +0.000 N 
ATOM     13  N   UNL     1       2.874   3.013  20.855  0.00  0.00    +0.000 NA
ATOM     14  C   UNL     1       2.102   4.031  21.268  0.00  0.00    +0.000 A 
ATOM     15  N   UNL     1       2.018   5.257  20.745  0.00  0.00    +0.000 NA
ATOM     16  C   UNL     1       2.822   5.422  19.676  0.00  0.00    +0.000 A 
ATOM     17  H   UNL     1       5.318   2.319  18.984  0.00  0.00    +0.000 HD
ATOM     18  H   UNL     1       4.426   1.409  20.131  0.00  0.00    +0.000 HD
BRANCH   9  19
ATOM     19  C   UNL     1       5.396   4.442  17.142  0.00  0.00    +0.000 C 
ATOM     20  C   UNL     1       5.014   4.233  15.675  0.00  0.00    +0.000 C 
ATOM     21  C   UNL     1       6.352   4.019  14.981  0.00  0.00    +0.000 C 
ATOM     22  C   UNL     1       7.364   4.846  15.772  0.00  0.00    +0.000 C 
ATOM     23  C   UNL     1       6.638   5.332  17.026  0.00  0.00    +0.000 C 
ENDBRANCH   9  19
ENDBRANCH   5   7
BRANCH   1  24
ATOM     24  C   UNL     1       0.644   9.934  21.782  0.00  0.00    +0.000 C 
BRANCH  24  25
ATOM     25  O   UNL     1       0.585  11.358  21.733  0.00  0.00    +0.000 OA
BRANCH  25  34
ATOM     26  C   UNL     1      -1.465  18.144  22.613  0.00  0.00    +0.000 C 
ATOM     27  N   UNL     1      -2.562  17.538  23.344  0.00  0.00    +0.000 N 
ATOM     28  C   UNL     1      -2.524  16.134  23.417  0.00  0.00    +0.000 A 
ATOM     29  C   UNL     1      -3.583  15.501  24.058  0.00  0.00    +0.000 A 
ATOM     30  C   UNL     1      -3.628  14.113  24.093  0.00  0.00    +0.000 A 
ATOM     31  C   UNL     1      -2.605  13.379  23.493  0.00  0.00    +0.000 A 
ATOM     32  C   UNL     1      -2.623  11.977  23.484  0.00  0.00    +0.000 A 
ATOM     33  C   UNL     1      -1.583  11.260  22.893  0.00  0.00    +0.000 A 
ATOM     34  C   UNL     1      -0.510  11.941  22.321  0.00  0.00    +0.000 A 
ATOM     35  C   UNL     1      -0.511  13.343  22.327  0.00  0.00    +0.000 A 
ATOM     36  C   UNL     1      -1.547  14.085  22.889  0.00  0.00    +0.000 A 
ATOM     37  N   UNL     1      -1.521  15.433  22.845  0.00  0.00    +0.000 NA
ATOM     38  H   UNL     1      -2.661  17.918  24.281  0.00  0.00    +0.000 HD
ENDBRANCH  25  34
ENDBRANCH  24  25
ENDBRANCH   1  24
TORSDOF 5
ENDMDL
MODEL 8
REMARK VINA RESULT:      -9.2      1.155      1.433
REMARK  Name = 
REMARK  6 active torsions:
REMARK  status: ('A' for Active; 'I' for Inactive)
REMARK    1  A    between atoms: C_1  and  N_2
REMARK    2  A    between atoms: C_9  and  O_10
REMARK    3  A    between atoms: O_10  and  C_11
REMARK    4  A    between atoms: C_11  and  C_12
REMARK    5  A    between atoms: C_16  and  N_17
REMARK    6  A    between atoms: C_19  and  C_20
REMARK                            x       y       z     vdW  Elec       q    Type
REMARK                         _______ _______ _______ _____ _____    ______ ____
ROOT
ATOM      1  C   UNL     1       0.558  10.107  19.424  0.00  0.00    +0.000 A 
ATOM      2  C   UNL     1       0.279  10.109  20.784  0.00  0.00    +0.000 A 
ATOM      3  N   UNL     1       0.710   9.168  21.652  0.00  0.00    +0.000 NA
ATOM      4  C   UNL     1       1.460   8.162  21.138  0.00  0.00    +0.000 A 
ATOM      5  C   UNL     1       1.833   8.087  19.804  0.00  0.00    +0.000 A 
ATOM      6  C   UNL     1       1.394   9.095  18.936  0.00  0.00    +0.000 A 
ENDROOT
BRANCH   5   7
ATOM      7  N   UNL     1       2.618   7.006  19.324  0.00  0.00    +0.000 N 
ATOM      8  C   UNL     1       3.462   7.067  18.233  0.00  0.00    +0.000 A 
ATOM      9  C   UNL     1       4.064   5.836  18.030  0.00  0.00    +0.000 A 
ATOM     10  C   UNL     1       3.510   4.952  19.020  0.00  0.00    +0.000 A 
ATOM     11  C   UNL     1       3.609   3.585  19.345  0.00  0.00    +0.000 A 
ATOM     12  N   UNL     1       4.385   2.660  18.662  0.00  0.00    +0.000 N 
ATOM     13  N   UNL     1       2.899   3.101  20.382  0.00  0.00    +0.000 NA
ATOM     14  C   UNL     1       2.112   3.943  21.069  0.00  0.00    +0.000 A 
ATOM     15  N   UNL     1       1.937   5.251  20.862  0.00  0.00    +0.000 NA
ATOM     16  C   UNL     1       2.660   5.713  19.822  0.00  0.00    +0.000 A 
ATOM     17  H   UNL     1       5.242   3.019  18.270  0.00  0.00    +0.000 HD
ATOM     18  H   UNL     1       4.471   1.810  19.210  0.00  0.00    +0.000 HD
BRANCH   9  19
ATOM     19  C   UNL     1       5.100   5.519  16.992  0.00  0.00    +0.000 C 
ATOM     20  C   UNL     1       6.443   5.027  17.535  0.00  0.00    +0.000 C 
ATOM     21  C   UNL     1       7.119   4.408  16.321  0.00  0.00    +0.000 C 
ATOM     22  C   UNL     1       5.988   3.857  15.454  0.00  0.00    +0.000 C 
ATOM     23  C   UNL     1       4.686   4.366  16.071  0.00  0.00    +0.000 C 
ENDBRANCH   9  19
ENDBRANCH   5   7
BRANCH   1  24
ATOM     24  C   UNL     1      -0.074  11.120  18.510  0.00  0.00    +0.000 C 
BRANCH  24  25
ATOM     25  O   UNL     1      -1.041  11.890  19.219  0.00  0.00    +0.000 OA
BRANCH  25  34
ATOM     26  C   UNL     1      -7.276  14.050  21.955  0.00  0.00    +0.000 C 
ATOM     27  N   UNL     1      -7.829  13.312  20.834  0.00  0.00    +0.000 N 
ATOM     28  C   UNL     1      -6.877  12.690  20.005  0.00  0.00    +0.000 A 
ATOM     29  C   UNL     1      -7.351  12.018  18.885  0.00  0.00    +0.000 A 
ATOM     30  C   UNL     1      -6.447  11.450  17.996  0.00  0.00    +0.000 A 
ATOM     31  C   UNL     1      -5.079  11.555  18.249  0.00  0.00    +0.000 A 
ATOM     32  C   UNL     1      -4.131  11.018  17.366  0.00  0.00    +0.000 A 
ATOM     33  C   UNL     1      -2.769  11.120  17.645  0.00  0.00    +0.000 A 
ATOM     34  C   UNL     1      -2.345  11.747  18.815  0.00  0.00    +0.000 A 
ATOM     35  C   UNL     1      -3.304  12.290  19.683  0.00  0.00    +0.000 A 
ATOM     36  C   UNL     1      -4.670  12.223  19.419  0.00  0.00    +0.000 A 
ATOM     37  N   UNL     1      -5.555  12.786  20.268  0.00  0.00    +0.000 NA
ATOM     38  H   UNL     1      -8.518  12.624  21.124  0.00  0.00    +0.000 HD
ENDBRANCH  25  34
ENDBRANCH  24  25
ENDBRANCH   1  24
TORSDOF 5
ENDMDL
MODEL 9
REMARK VINA RESULT:      -9.2      3.253      4.027
REMARK  Name = 
REMARK  6 active torsions:
REMARK  status: ('A' for Active; 'I' for Inactive)
REMARK    1  A    between atoms: C_1  and  N_2
REMARK    2  A    between atoms: C_9  and  O_10
REMARK    3  A    between atoms: O_10  and  C_11
REMARK    4  A    between atoms: C_11  and  C_12
REMARK    5  A    between atoms: C_16  and  N_17
REMARK    6  A    between atoms: C_19  and  C_20
REMARK                            x       y       z     vdW  Elec       q    Type
REMARK                         _______ _______ _______ _____ _____    ______ ____
ROOT
ATOM      1  C   UNL     1       1.239   9.412  19.149  0.00  0.00    +0.000 A 
ATOM      2  C   UNL     1       0.897   9.434  20.494  0.00  0.00    +0.000 A 
ATOM      3  N   UNL     1       1.112   8.413  21.353  0.00  0.00    +0.000 NA
ATOM      4  C   UNL     1       1.699   7.301  20.843  0.00  0.00    +0.000 A 
ATOM      5  C   UNL     1       2.120   7.191  19.526  0.00  0.00    +0.000 A 
ATOM      6  C   UNL     1       1.908   8.279  18.669  0.00  0.00    +0.000 A 
ENDROOT
BRANCH   5   7
ATOM      7  N   UNL     1       2.725   5.999  19.049  0.00  0.00    +0.000 N 
ATOM      8  C   UNL     1       3.803   5.951  18.187  0.00  0.00    +0.000 A 
ATOM      9  C   UNL     1       4.133   4.634  17.914  0.00  0.00    +0.000 A 
ATOM     10  C   UNL     1       3.163   3.827  18.603  0.00  0.00    +0.000 A 
ATOM     11  C   UNL     1       2.859   2.456  18.710  0.00  0.00    +0.000 A 
ATOM     12  N   UNL     1       3.542   1.437  18.062  0.00  0.00    +0.000 N 
ATOM     13  N   UNL     1       1.822   2.068  19.478  0.00  0.00    +0.000 NA
ATOM     14  C   UNL     1       1.107   3.009  20.113  0.00  0.00    +0.000 A 
ATOM     15  N   UNL     1       1.298   4.332  20.094  0.00  0.00    +0.000 NA
ATOM     16  C   UNL     1       2.341   4.695  19.323  0.00  0.00    +0.000 A 
ATOM     17  H   UNL     1       4.528   1.596  17.925  0.00  0.00    +0.000 HD
ATOM     18  H   UNL     1       3.290   0.541  18.466  0.00  0.00    +0.000 HD
BRANCH   9  19
ATOM     19  C   UNL     1       5.291   4.168  17.080  0.00  0.00    +0.000 C 
ATOM     20  C   UNL     1       5.072   4.224  15.566  0.00  0.00    +0.000 C 
ATOM     21  C   UNL     1       6.477   4.107  14.994  0.00  0.00    +0.000 C 
ATOM     22  C   UNL     1       7.397   4.764  16.022  0.00  0.00    +0.000 C 
ATOM     23  C   UNL     1       6.538   5.039  17.256  0.00  0.00    +0.000 C 
ENDBRANCH   9  19
ENDBRANCH   5   7
BRANCH   1  24
ATOM     24  C   UNL     1       0.842  10.540  18.238  0.00  0.00    +0.000 C 
BRANCH  24  25
ATOM     25  O   UNL     1       0.245  11.595  18.989  0.00  0.00    +0.000 OA
BRANCH  25  34
ATOM     26  C   UNL     1      -2.353  18.249  18.920  0.00  0.00    +0.000 C 
ATOM     27  N   UNL     1      -0.967  18.604  18.680  0.00  0.00    +0.000 N 
ATOM     28  C   UNL     1      -0.078  17.516  18.610  0.00  0.00    +0.000 A 
ATOM     29  C   UNL     1       1.271  17.806  18.440  0.00  0.00    +0.000 A 
ATOM     30  C   UNL     1       2.197  16.771  18.437  0.00  0.00    +0.000 A 
ATOM     31  C   UNL     1       1.756  15.457  18.596  0.00  0.00    +0.000 A 
ATOM     32  C   UNL     1       2.658  14.384  18.625  0.00  0.00    +0.000 A 
ATOM     33  C   UNL     1       2.197  13.076  18.769  0.00  0.00    +0.000 A 
ATOM     34  C   UNL     1       0.829  12.831  18.870  0.00  0.00    +0.000 A 
ATOM     35  C   UNL     1      -0.061  13.914  18.852  0.00  0.00    +0.000 A 
ATOM     36  C   UNL     1       0.373  15.233  18.733  0.00  0.00    +0.000 A 
ATOM     37  N   UNL     1      -0.517  16.247  18.751  0.00  0.00    +0.000 NA
ATOM     38  H   UNL     1      -0.851  19.182  17.853  0.00  0.00    +0.000 HD
ENDBRANCH  25  34
ENDBRANCH  24  25
ENDBRANCH   1  24
TORSDOF 5
ENDMDL
