MODEL 1
REMARK VINA RESULT:      -9.1      0.000      0.000
REMARK  Name = 
REMARK  8 active torsions:
REMARK  status: ('A' for Active; 'I' for Inactive)
REMARK    1  A    between atoms: C_1  and  C_2
REMARK    2  A    between atoms: C_2  and  C_3
REMARK    3  A    between atoms: C_6  and  C_7
REMARK    4  A    between atoms: C_11  and  C_12
REMARK    5  A    between atoms: C_15  and  C_16
REMARK    6  A    between atoms: C_20  and  C_21
REMARK    7  A    between atoms: C_23  and  C_24
REMARK    8  A    between atoms: C_23  and  C_25
REMARK                            x       y       z     vdW  Elec       q    Type
REMARK                         _______ _______ _______ _____ _____    ______ ____
ROOT
ATOM      1  C   UNL     1      -0.541  11.020  22.358  0.00  0.00    +0.000 A 
ATOM      2  C   UNL     1      -0.429   9.950  23.226  0.00  0.00    +0.000 A 
ATOM      3  C   UNL     1       0.286   8.942  22.540  0.00  0.00    +0.000 A 
ATOM      4  C   UNL     1       0.588   9.444  21.291  0.00  0.00    +0.000 A 
ATOM      5  O   UNL     1       0.101  10.721  21.187  0.00  0.00    +0.000 OA
ENDROOT
BRANCH   1  10
ATOM      6  C   UNL     1      -3.340  13.546  22.469  0.00  0.00    +0.000 A 
ATOM      7  C   UNL     1      -2.635  14.751  22.438  0.00  0.00    +0.000 A 
ATOM      8  C   UNL     1      -1.239  14.739  22.411  0.00  0.00    +0.000 A 
ATOM      9  C   UNL     1      -0.546  13.523  22.406  0.00  0.00    +0.000 A 
ATOM     10  C   UNL     1      -1.235  12.303  22.438  0.00  0.00    +0.000 A 
ATOM     11  C   UNL     1      -2.639  12.334  22.493  0.00  0.00    +0.000 A 
BRANCH   6  17
ATOM     12  C   UNL     1      -7.307  12.237  20.812  0.00  0.00    +0.000 C 
ATOM     13  C   UNL     1      -6.922  12.777  22.194  0.00  0.00    +0.000 C 
ATOM     14  C   UNL     1      -7.800  12.151  23.274  0.00  0.00    +0.000 C 
ATOM     15  C   UNL     1      -6.974  14.318  22.227  0.00  0.00    +0.000 C 
ATOM     16  N   UNL     1      -5.574  14.674  22.323  0.00  0.00    +0.000 N 
ATOM     17  C   UNL     1      -4.828  13.526  22.421  0.00  0.00    +0.000 C 
ATOM     18  N   UNL     1      -5.496  12.400  22.442  0.00  0.00    +0.000 NA
ATOM     19  H   UNL     1      -5.242  15.368  21.664  0.00  0.00    +0.000 HD
ENDBRANCH   6  17
ENDBRANCH   1  10
BRANCH   4  20
ATOM     20  C   UNL     1       1.260   8.888  20.116  0.00  0.00    +0.000 A 
ATOM     21  C   UNL     1       1.353   9.644  18.935  0.00  0.00    +0.000 A 
ATOM     22  C   UNL     1       2.013   9.147  17.810  0.00  0.00    +0.000 A 
ATOM     23  C   UNL     1       2.584   7.879  17.845  0.00  0.00    +0.000 A 
ATOM     24  C   UNL     1       2.493   7.101  19.004  0.00  0.00    +0.000 A 
ATOM     25  C   UNL     1       1.839   7.610  20.136  0.00  0.00    +0.000 A 
BRANCH  24  26
ATOM     26  C   UNL     1       3.088   5.739  19.014  0.00  0.00    +0.000 C 
ATOM     27  N   UNL     1       2.341   4.669  18.932  0.00  0.00    +0.000 NA
ATOM     28  C   UNL     1       3.272   3.515  19.116  0.00  0.00    +0.000 C 
ATOM     29  C   UNL     1       3.069   2.533  17.965  0.00  0.00    +0.000 C 
ATOM     30  C   UNL     1       2.928   2.857  20.456  0.00  0.00    +0.000 C 
ATOM     31  C   UNL     1       4.698   4.105  19.133  0.00  0.00    +0.000 C 
ATOM     32  N   UNL     1       4.442   5.527  19.118  0.00  0.00    +0.000 N 
ATOM     33  H   UNL     1       4.936   6.085  19.804  0.00  0.00    +0.000 HD
ENDBRANCH  24  26
ENDBRANCH   4  20
TORSDOF 4
ENDMDL
MODEL 2
REMARK VINA RESULT:      -9.0      3.180      4.129
REMARK  Name = 
REMARK  8 active torsions:
REMARK  status: ('A' for Active; 'I' for Inactive)
REMARK    1  A    between atoms: C_1  and  C_2
REMARK    2  A    between atoms: C_2  and  C_3
REMARK    3  A    between atoms: C_6  and  C_7
REMARK    4  A    between atoms: C_11  and  C_12
REMARK    5  A    between atoms: C_15  and  C_16
REMARK    6  A    between atoms: C_20  and  C_21
REMARK    7  A    between atoms: C_23  and  C_24
REMARK    8  A    between atoms: C_23  and  C_25
REMARK                            x       y       z     vdW  Elec       q    Type
REMARK                         _______ _______ _______ _____ _____    ______ ____
ROOT
ATOM      1  C   UNL     1       0.745   9.914  20.516  0.00  0.00    +0.000 A 
ATOM      2  C   UNL     1       0.833   9.630  21.867  0.00  0.00    +0.000 A 
ATOM      3  C   UNL     1       1.358   8.322  21.974  0.00  0.00    +0.000 A 
ATOM      4  C   UNL     1       1.578   7.871  20.689  0.00  0.00    +0.000 A 
ATOM      5  O   UNL     1       1.222   8.853  19.799  0.00  0.00    +0.000 OA
ENDROOT
BRANCH   1  10
ATOM      6  C   UNL     1      -1.626  12.019  18.472  0.00  0.00    +0.000 A 
ATOM      7  C   UNL     1      -0.838  13.134  18.184  0.00  0.00    +0.000 A 
ATOM      8  C   UNL     1       0.463  13.214  18.685  0.00  0.00    +0.000 A 
ATOM      9  C   UNL     1       0.981  12.175  19.467  0.00  0.00    +0.000 A 
ATOM     10  C   UNL     1       0.205  11.047  19.768  0.00  0.00    +0.000 A 
ATOM     11  C   UNL     1      -1.111  10.996  19.279  0.00  0.00    +0.000 A 
BRANCH   6  17
ATOM     12  C   UNL     1      -5.860  10.512  18.440  0.00  0.00    +0.000 C 
ATOM     13  C   UNL     1      -5.213  11.711  17.738  0.00  0.00    +0.000 C 
ATOM     14  C   UNL     1      -6.213  12.857  17.609  0.00  0.00    +0.000 C 
ATOM     15  C   UNL     1      -4.618  11.306  16.374  0.00  0.00    +0.000 C 
ATOM     16  N   UNL     1      -3.194  11.400  16.617  0.00  0.00    +0.000 N 
ATOM     17  C   UNL     1      -2.988  11.871  17.890  0.00  0.00    +0.000 C 
ATOM     18  N   UNL     1      -4.062  12.158  18.582  0.00  0.00    +0.000 NA
ATOM     19  H   UNL     1      -2.639  10.598  16.341  0.00  0.00    +0.000 HD
ENDBRANCH   6  17
ENDBRANCH   1  10
BRANCH   4  20
ATOM     20  C   UNL     1       2.056   6.606  20.132  0.00  0.00    +0.000 A 
ATOM     21  C   UNL     1       1.583   5.387  20.646  0.00  0.00    +0.000 A 
ATOM     22  C   UNL     1       2.002   4.167  20.113  0.00  0.00    +0.000 A 
ATOM     23  C   UNL     1       2.912   4.147  19.061  0.00  0.00    +0.000 A 
ATOM     24  C   UNL     1       3.409   5.346  18.540  0.00  0.00    +0.000 A 
ATOM     25  C   UNL     1       2.974   6.570  19.071  0.00  0.00    +0.000 A 
BRANCH  24  26
ATOM     26  C   UNL     1       4.398   5.303  17.432  0.00  0.00    +0.000 C 
ATOM     27  N   UNL     1       5.080   4.218  17.170  0.00  0.00    +0.000 NA
ATOM     28  C   UNL     1       6.053   4.604  16.103  0.00  0.00    +0.000 C 
ATOM     29  C   UNL     1       5.933   3.613  14.949  0.00  0.00    +0.000 C 
ATOM     30  C   UNL     1       7.454   4.552  16.719  0.00  0.00    +0.000 C 
ATOM     31  C   UNL     1       5.683   6.040  15.676  0.00  0.00    +0.000 C 
ATOM     32  N   UNL     1       4.656   6.390  16.632  0.00  0.00    +0.000 N 
ATOM     33  H   UNL     1       4.756   7.283  17.100  0.00  0.00    +0.000 HD
ENDBRANCH  24  26
ENDBRANCH   4  20
TORSDOF 4
ENDMDL
MODEL 3
REMARK VINA RESULT:      -9.0      4.241      6.233
REMARK  Name = 
REMARK  8 active torsions:
REMARK  status: ('A' for Active; 'I' for Inactive)
REMARK    1  A    between atoms: C_1  and  C_2
REMARK    2  A    between atoms: C_2  and  C_3
REMARK    3  A    between atoms: C_6  and  C_7
REMARK    4  A    between atoms: C_11  and  C_12
REMARK    5  A    between atoms: C_15  and  C_16
REMARK    6  A    between atoms: C_20  and  C_21
REMARK    7  A    between atoms: C_23  and  C_24
REMARK    8  A    between atoms: C_23  and  C_25
REMARK                            x       y       z     vdW  Elec       q    Type
REMARK                         _______ _______ _______ _____ _____    ______ ____
ROOT
ATOM      1  C   UNL     1       0.551   9.791  20.434  0.00  0.00    +0.000 A 
ATOM      2  C   UNL     1       0.188   9.450  21.724  0.00  0.00    +0.000 A 
ATOM      3  C   UNL     1       0.649   8.132  21.942  0.00  0.00    +0.000 A 
ATOM      4  C   UNL     1       1.281   7.731  20.782  0.00  0.00    +0.000 A 
ATOM      5  O   UNL     1       1.239   8.753  19.869  0.00  0.00    +0.000 OA
ENDROOT
BRANCH   1  10
ATOM      6  C   UNL     1       1.080  13.061  18.628  0.00  0.00    +0.000 A 
ATOM      7  C   UNL     1      -0.198  13.316  18.126  0.00  0.00    +0.000 A 
ATOM      8  C   UNL     1      -1.229  12.402  18.351  0.00  0.00    +0.000 A 
ATOM      9  C   UNL     1      -0.987  11.235  19.087  0.00  0.00    +0.000 A 
ATOM     10  C   UNL     1       0.289  10.961  19.599  0.00  0.00    +0.000 A 
ATOM     11  C   UNL     1       1.320  11.878  19.339  0.00  0.00    +0.000 A 
BRANCH   6  17
ATOM     12  C   UNL     1       2.860  16.913  17.149  0.00  0.00    +0.000 C 
ATOM     13  C   UNL     1       3.253  16.007  18.321  0.00  0.00    +0.000 C 
ATOM     14  C   UNL     1       3.823  16.836  19.469  0.00  0.00    +0.000 C 
ATOM     15  C   UNL     1       4.227  14.899  17.868  0.00  0.00    +0.000 C 
ATOM     16  N   UNL     1       3.407  13.710  17.961  0.00  0.00    +0.000 N 
ATOM     17  C   UNL     1       2.179  14.052  18.470  0.00  0.00    +0.000 C 
ATOM     18  N   UNL     1       2.014  15.312  18.786  0.00  0.00    +0.000 NA
ATOM     19  H   UNL     1       3.401  13.106  17.147  0.00  0.00    +0.000 HD
ENDBRANCH   6  17
ENDBRANCH   1  10
BRANCH   4  20
ATOM     20  C   UNL     1       1.917   6.483  20.360  0.00  0.00    +0.000 A 
ATOM     21  C   UNL     1       1.306   5.250  20.647  0.00  0.00    +0.000 A 
ATOM     22  C   UNL     1       1.879   4.047  20.231  0.00  0.00    +0.000 A 
ATOM     23  C   UNL     1       3.079   4.058  19.527  0.00  0.00    +0.000 A 
ATOM     24  C   UNL     1       3.713   5.271  19.241  0.00  0.00    +0.000 A 
ATOM     25  C   UNL     1       3.127   6.478  19.651  0.00  0.00    +0.000 A 
BRANCH  24  26
ATOM     26  C   UNL     1       5.006   5.261  18.508  0.00  0.00    +0.000 C 
ATOM     27  N   UNL     1       5.312   6.205  17.656  0.00  0.00    +0.000 NA
ATOM     28  C   UNL     1       6.601   5.777  17.031  0.00  0.00    +0.000 C 
ATOM     29  C   UNL     1       7.602   6.924  17.140  0.00  0.00    +0.000 C 
ATOM     30  C   UNL     1       6.313   5.446  15.563  0.00  0.00    +0.000 C 
ATOM     31  C   UNL     1       7.066   4.526  17.805  0.00  0.00    +0.000 C 
ATOM     32  N   UNL     1       5.941   4.268  18.676  0.00  0.00    +0.000 N 
ATOM     33  H   UNL     1       5.592   3.317  18.698  0.00  0.00    +0.000 HD
ENDBRANCH  24  26
ENDBRANCH   4  20
TORSDOF 4
ENDMDL
MODEL 4
REMARK VINA RESULT:      -9.0      4.188      6.207
REMARK  Name = 
REMARK  8 active torsions:
REMARK  status: ('A' for Active; 'I' for Inactive)
REMARK    1  A    between atoms: C_1  and  C_2
REMARK    2  A    between atoms: C_2  and  C_3
REMARK    3  A    between atoms: C_6  and  C_7
REMARK    4  A    between atoms: C_11  and  C_12
REMARK    5  A    between atoms: C_15  and  C_16
REMARK    6  A    between atoms: C_20  and  C_21
REMARK    7  A    between atoms: C_23  and  C_24
REMARK    8  A    between atoms: C_23  and  C_25
REMARK                            x       y       z     vdW  Elec       q    Type
REMARK                         _______ _______ _______ _____ _____    ______ ____
ROOT
ATOM      1  C   UNL     1       0.598   9.854  20.352  0.00  0.00    +0.000 A 
ATOM      2  C   UNL     1       0.234   9.427  21.616  0.00  0.00    +0.000 A 
ATOM      3  C   UNL     1       0.732   8.113  21.761  0.00  0.00    +0.000 A 
ATOM      4  C   UNL     1       1.386   7.800  20.587  0.00  0.00    +0.000 A 
ATOM      5  O   UNL     1       1.322   8.872  19.735  0.00  0.00    +0.000 OA
ENDROOT
BRANCH   1  10
ATOM      6  C   UNL     1       1.080  13.190  18.656  0.00  0.00    +0.000 A 
ATOM      7  C   UNL     1      -0.221  13.487  18.245  0.00  0.00    +0.000 A 
ATOM      8  C   UNL     1      -1.254  12.582  18.495  0.00  0.00    +0.000 A 
ATOM      9  C   UNL     1      -0.990  11.381  19.165  0.00  0.00    +0.000 A 
ATOM     10  C   UNL     1       0.308  11.064  19.585  0.00  0.00    +0.000 A 
ATOM     11  C   UNL     1       1.340  11.974  19.301  0.00  0.00    +0.000 A 
BRANCH   6  17
ATOM     12  C   UNL     1       2.872  17.018  17.130  0.00  0.00    +0.000 C 
ATOM     13  C   UNL     1       3.279  16.110  18.296  0.00  0.00    +0.000 C 
ATOM     14  C   UNL     1       3.883  16.936  19.429  0.00  0.00    +0.000 C 
ATOM     15  C   UNL     1       4.231  14.990  17.826  0.00  0.00    +0.000 C 
ATOM     16  N   UNL     1       3.400  13.810  17.938  0.00  0.00    +0.000 N 
ATOM     17  C   UNL     1       2.186  14.168  18.473  0.00  0.00    +0.000 C 
ATOM     18  N   UNL     1       2.043  15.430  18.789  0.00  0.00    +0.000 NA
ATOM     19  H   UNL     1       3.369  13.205  17.126  0.00  0.00    +0.000 HD
ENDBRANCH   6  17
ENDBRANCH   1  10
BRANCH   4  20
ATOM     20  C   UNL     1       2.063   6.598  20.099  0.00  0.00    +0.000 A 
ATOM     21  C   UNL     1       1.908   5.378  20.779  0.00  0.00    +0.000 A 
ATOM     22  C   UNL     1       2.520   4.212  20.317  0.00  0.00    +0.000 A 
ATOM     23  C   UNL     1       3.307   4.249  19.170  0.00  0.00    +0.000 A 
ATOM     24  C   UNL     1       3.488   5.454  18.483  0.00  0.00    +0.000 A 
ATOM     25  C   UNL     1       2.860   6.621  18.944  0.00  0.00    +0.000 A 
BRANCH  24  26
ATOM     26  C   UNL     1       4.350   5.478  17.273  0.00  0.00    +0.000 C 
ATOM     27  N   UNL     1       4.885   4.384  16.797  0.00  0.00    +0.000 NA
ATOM     28  C   UNL     1       5.781   4.827  15.685  0.00  0.00    +0.000 C 
ATOM     29  C   UNL     1       5.443   4.022  14.433  0.00  0.00    +0.000 C 
ATOM     30  C   UNL     1       7.224   4.564  16.126  0.00  0.00    +0.000 C 
ATOM     31  C   UNL     1       5.521   6.336  15.493  0.00  0.00    +0.000 C 
ATOM     32  N   UNL     1       4.638   6.639  16.597  0.00  0.00    +0.000 N 
ATOM     33  H   UNL     1       4.878   7.445  17.162  0.00  0.00    +0.000 HD
ENDBRANCH  24  26
ENDBRANCH   4  20
TORSDOF 4
ENDMDL
MODEL 5
REMARK VINA RESULT:      -8.9      0.795      1.362
REMARK  Name = 
REMARK  8 active torsions:
REMARK  status: ('A' for Active; 'I' for Inactive)
REMARK    1  A    between atoms: C_1  and  C_2
REMARK    2  A    between atoms: C_2  and  C_3
REMARK    3  A    between atoms: C_6  and  C_7
REMARK    4  A    between atoms: C_11  and  C_12
REMARK    5  A    between atoms: C_15  and  C_16
REMARK    6  A    between atoms: C_20  and  C_21
REMARK    7  A    between atoms: C_23  and  C_24
REMARK    8  A    between atoms: C_23  and  C_25
REMARK                            x       y       z     vdW  Elec       q    Type
REMARK                         _______ _______ _______ _____ _____    ______ ____
ROOT
ATOM      1  C   UNL     1      -0.820  11.051  22.323  0.00  0.00    +0.000 A 
ATOM      2  C   UNL     1      -0.685   9.951  23.151  0.00  0.00    +0.000 A 
ATOM      3  C   UNL     1       0.080   8.999  22.442  0.00  0.00    +0.000 A 
ATOM      4  C   UNL     1       0.388   9.561  21.220  0.00  0.00    +0.000 A 
ATOM      5  O   UNL     1      -0.145  10.823  21.156  0.00  0.00    +0.000 OA
ENDROOT
BRANCH   1  10
ATOM      6  C   UNL     1      -3.701  13.487  22.338  0.00  0.00    +0.000 A 
ATOM      7  C   UNL     1      -3.039  14.705  22.500  0.00  0.00    +0.000 A 
ATOM      8  C   UNL     1      -1.650  14.729  22.636  0.00  0.00    +0.000 A 
ATOM      9  C   UNL     1      -0.919  13.536  22.601  0.00  0.00    +0.000 A 
ATOM     10  C   UNL     1      -1.564  12.303  22.440  0.00  0.00    +0.000 A 
ATOM     11  C   UNL     1      -2.965  12.295  22.332  0.00  0.00    +0.000 A 
BRANCH   6  17
ATOM     12  C   UNL     1      -7.886  15.100  22.616  0.00  0.00    +0.000 C 
ATOM     13  C   UNL     1      -7.261  14.084  21.654  0.00  0.00    +0.000 C 
ATOM     14  C   UNL     1      -7.916  14.178  20.279  0.00  0.00    +0.000 C 
ATOM     15  C   UNL     1      -7.328  12.654  22.230  0.00  0.00    +0.000 C 
ATOM     16  N   UNL     1      -5.940  12.375  22.530  0.00  0.00    +0.000 N 
ATOM     17  C   UNL     1      -5.172  13.435  22.114  0.00  0.00    +0.000 C 
ATOM     18  N   UNL     1      -5.809  14.418  21.530  0.00  0.00    +0.000 NA
ATOM     19  H   UNL     1      -5.745  12.019  23.458  0.00  0.00    +0.000 HD
ENDBRANCH   6  17
ENDBRANCH   1  10
BRANCH   4  20
ATOM     20  C   UNL     1       1.102   9.077  20.038  0.00  0.00    +0.000 A 
ATOM     21  C   UNL     1       1.255   9.912  18.917  0.00  0.00    +0.000 A 
ATOM     22  C   UNL     1       1.957   9.484  17.789  0.00  0.00    +0.000 A 
ATOM     23  C   UNL     1       2.511   8.208  17.760  0.00  0.00    +0.000 A 
ATOM     24  C   UNL     1       2.362   7.354  18.857  0.00  0.00    +0.000 A 
ATOM     25  C   UNL     1       1.666   7.793  19.994  0.00  0.00    +0.000 A 
BRANCH  24  26
ATOM     26  C   UNL     1       2.941   5.986  18.798  0.00  0.00    +0.000 C 
ATOM     27  N   UNL     1       2.839   5.251  17.721  0.00  0.00    +0.000 NA
ATOM     28  C   UNL     1       3.406   3.918  18.092  0.00  0.00    +0.000 C 
ATOM     29  C   UNL     1       4.457   3.528  17.056  0.00  0.00    +0.000 C 
ATOM     30  C   UNL     1       2.251   2.913  18.098  0.00  0.00    +0.000 C 
ATOM     31  C   UNL     1       4.013   4.081  19.501  0.00  0.00    +0.000 C 
ATOM     32  N   UNL     1       3.601   5.419  19.861  0.00  0.00    +0.000 N 
ATOM     33  H   UNL     1       3.175   5.534  20.773  0.00  0.00    +0.000 HD
ENDBRANCH  24  26
ENDBRANCH   4  20
TORSDOF 4
ENDMDL
MODEL 6
REMARK VINA RESULT:      -8.9      0.957     10.749
REMARK  Name = 
REMARK  8 active torsions:
REMARK  status: ('A' for Active; 'I' for Inactive)
REMARK    1  A    between atoms: C_1  and  C_2
REMARK    2  A    between atoms: C_2  and  C_3
REMARK    3  A    between atoms: C_6  and  C_7
REMARK    4  A    between atoms: C_11  and  C_12
REMARK    5  A    between atoms: C_15  and  C_16
REMARK    6  A    between atoms: C_20  and  C_21
REMARK    7  A    between atoms: C_23  and  C_24
REMARK    8  A    between atoms: C_23  and  C_25
REMARK                            x       y       z     vdW  Elec       q    Type
REMARK                         _______ _______ _______ _____ _____    ______ ____
ROOT
ATOM      1  C   UNL     1       0.367   9.366  21.038  0.00  0.00    +0.000 A 
ATOM      2  C   UNL     1       0.223   8.738  22.262  0.00  0.00    +0.000 A 
ATOM      3  C   UNL     1      -0.487   9.630  23.096  0.00  0.00    +0.000 A 
ATOM      4  C   UNL     1      -0.754  10.756  22.344  0.00  0.00    +0.000 A 
ATOM      5  O   UNL     1      -0.250  10.585  21.081  0.00  0.00    +0.000 OA
ENDROOT
BRANCH   1  10
ATOM      6  C   UNL     1       2.608   7.508  18.637  0.00  0.00    +0.000 A 
ATOM      7  C   UNL     1       2.586   8.349  17.523  0.00  0.00    +0.000 A 
ATOM      8  C   UNL     1       1.812   9.511  17.544  0.00  0.00    +0.000 A 
ATOM      9  C   UNL     1       1.066   9.840  18.682  0.00  0.00    +0.000 A 
ATOM     10  C   UNL     1       1.075   9.009  19.810  0.00  0.00    +0.000 A 
ATOM     11  C   UNL     1       1.837   7.830  19.762  0.00  0.00    +0.000 A 
BRANCH   6  17
ATOM     12  C   UNL     1       4.454   3.806  16.883  0.00  0.00    +0.000 C 
ATOM     13  C   UNL     1       4.915   4.716  18.026  0.00  0.00    +0.000 C 
ATOM     14  C   UNL     1       6.440   4.772  18.080  0.00  0.00    +0.000 C 
ATOM     15  C   UNL     1       4.304   4.277  19.372  0.00  0.00    +0.000 C 
ATOM     16  N   UNL     1       3.371   5.347  19.652  0.00  0.00    +0.000 N 
ATOM     17  C   UNL     1       3.481   6.304  18.674  0.00  0.00    +0.000 C 
ATOM     18  N   UNL     1       4.384   6.087  17.751  0.00  0.00    +0.000 NA
ATOM     19  H   UNL     1       2.429   5.067  19.899  0.00  0.00    +0.000 HD
ENDBRANCH   6  17
ENDBRANCH   1  10
BRANCH   4  20
ATOM     20  C   UNL     1      -1.404  12.034  22.637  0.00  0.00    +0.000 A 
ATOM     21  C   UNL     1      -0.633  13.200  22.775  0.00  0.00    +0.000 A 
ATOM     22  C   UNL     1      -1.232  14.436  23.026  0.00  0.00    +0.000 A 
ATOM     23  C   UNL     1      -2.615  14.523  23.152  0.00  0.00    +0.000 A 
ATOM     24  C   UNL     1      -3.404  13.375  23.032  0.00  0.00    +0.000 A 
ATOM     25  C   UNL     1      -2.797  12.137  22.768  0.00  0.00    +0.000 A 
BRANCH  24  26
ATOM     26  C   UNL     1      -4.877  13.484  23.193  0.00  0.00    +0.000 C 
ATOM     27  N   UNL     1      -5.692  12.696  22.541  0.00  0.00    +0.000 NA
ATOM     28  C   UNL     1      -7.066  13.197  22.850  0.00  0.00    +0.000 C 
ATOM     29  C   UNL     1      -7.916  12.027  23.339  0.00  0.00    +0.000 C 
ATOM     30  C   UNL     1      -7.642  13.784  21.558  0.00  0.00    +0.000 C 
ATOM     31  C   UNL     1      -6.899  14.285  23.932  0.00  0.00    +0.000 C 
ATOM     32  N   UNL     1      -5.461  14.412  24.020  0.00  0.00    +0.000 N 
ATOM     33  H   UNL     1      -5.085  15.352  23.983  0.00  0.00    +0.000 HD
ENDBRANCH  24  26
ENDBRANCH   4  20
TORSDOF 4
ENDMDL
MODEL 7
REMARK VINA RESULT:      -8.9      3.135     10.548
REMARK  Name = 
REMARK  8 active torsions:
REMARK  status: ('A' for Active; 'I' for Inactive)
REMARK    1  A    between atoms: C_1  and  C_2
REMARK    2  A    between atoms: C_2  and  C_3
REMARK    3  A    between atoms: C_6  and  C_7
REMARK    4  A    between atoms: C_11  and  C_12
REMARK    5  A    between atoms: C_15  and  C_16
REMARK    6  A    between atoms: C_20  and  C_21
REMARK    7  A    between atoms: C_23  and  C_24
REMARK    8  A    between atoms: C_23  and  C_25
REMARK                            x       y       z     vdW  Elec       q    Type
REMARK                         _______ _______ _______ _____ _____    ______ ____
ROOT
ATOM      1  C   UNL     1       1.549   7.736  20.720  0.00  0.00    +0.000 A 
ATOM      2  C   UNL     1       1.613   8.339  21.963  0.00  0.00    +0.000 A 
ATOM      3  C   UNL     1       1.072   9.636  21.816  0.00  0.00    +0.000 A 
ATOM      4  C   UNL     1       0.693   9.764  20.496  0.00  0.00    +0.000 A 
ATOM      5  O   UNL     1       0.966   8.596  19.831  0.00  0.00    +0.000 OA
ENDROOT
BRANCH   1  10
ATOM      6  C   UNL     1       3.409   5.221  18.611  0.00  0.00    +0.000 A 
ATOM      7  C   UNL     1       2.868   4.017  19.066  0.00  0.00    +0.000 A 
ATOM      8  C   UNL     1       1.915   4.023  20.087  0.00  0.00    +0.000 A 
ATOM      9  C   UNL     1       1.494   5.235  20.648  0.00  0.00    +0.000 A 
ATOM     10  C   UNL     1       2.025   6.454  20.206  0.00  0.00    +0.000 A 
ATOM     11  C   UNL     1       3.003   6.426  19.198  0.00  0.00    +0.000 A 
BRANCH   6  17
ATOM     12  C   UNL     1       7.443   4.641  16.717  0.00  0.00    +0.000 C 
ATOM     13  C   UNL     1       6.038   4.671  16.105  0.00  0.00    +0.000 C 
ATOM     14  C   UNL     1       5.961   3.736  14.901  0.00  0.00    +0.000 C 
ATOM     15  C   UNL     1       5.615   6.111  15.747  0.00  0.00    +0.000 C 
ATOM     16  N   UNL     1       4.580   6.381  16.723  0.00  0.00    +0.000 N 
ATOM     17  C   UNL     1       4.369   5.251  17.474  0.00  0.00    +0.000 C 
ATOM     18  N   UNL     1       5.081   4.201  17.153  0.00  0.00    +0.000 NA
ATOM     19  H   UNL     1       4.665   7.250  17.237  0.00  0.00    +0.000 HD
ENDBRANCH   6  17
ENDBRANCH   1  10
BRANCH   4  20
ATOM     20  C   UNL     1       0.121  10.860  19.713  0.00  0.00    +0.000 A 
ATOM     21  C   UNL     1       0.898  11.994  19.418  0.00  0.00    +0.000 A 
ATOM     22  C   UNL     1       0.385  13.040  18.649  0.00  0.00    +0.000 A 
ATOM     23  C   UNL     1      -0.920  12.973  18.170  0.00  0.00    +0.000 A 
ATOM     24  C   UNL     1      -1.717  11.862  18.461  0.00  0.00    +0.000 A 
ATOM     25  C   UNL     1      -1.192  10.807  19.224  0.00  0.00    +0.000 A 
BRANCH  24  26
ATOM     26  C   UNL     1      -3.116  11.819  17.959  0.00  0.00    +0.000 C 
ATOM     27  N   UNL     1      -4.128  12.083  18.745  0.00  0.00    +0.000 NA
ATOM     28  C   UNL     1      -5.350  11.801  17.931  0.00  0.00    +0.000 C 
ATOM     29  C   UNL     1      -6.268  13.018  17.989  0.00  0.00    +0.000 C 
ATOM     30  C   UNL     1      -6.035  10.575  18.542  0.00  0.00    +0.000 C 
ATOM     31  C   UNL     1      -4.860  11.510  16.497  0.00  0.00    +0.000 C 
ATOM     32  N   UNL     1      -3.423  11.496  16.660  0.00  0.00    +0.000 N 
ATOM     33  H   UNL     1      -2.928  10.708  16.260  0.00  0.00    +0.000 HD
ENDBRANCH  24  26
ENDBRANCH   4  20
TORSDOF 4
ENDMDL
MODEL 8
REMARK VINA RESULT:      -8.8      2.655      3.633
REMARK  Name = 
REMARK  8 active torsions:
REMARK  status: ('A' for Active; 'I' for Inactive)
REMARK    1  A    between atoms: C_1  and  C_2
REMARK    2  A    between atoms: C_2  and  C_3
REMARK    3  A    between atoms: C_6  and  C_7
REMARK    4  A    between atoms: C_11  and  C_12
REMARK    5  A    between atoms: C_15  and  C_16
REMARK    6  A    between atoms: C_20  and  C_21
REMARK    7  A    between atoms: C_23  and  C_24
REMARK    8  A    between atoms: C_23  and  C_25
REMARK                            x       y       z     vdW  Elec       q    Type
REMARK                         _______ _______ _______ _____ _____    ______ ____
ROOT
ATOM      1  C   UNL     1      -0.580  10.480  18.352  0.00  0.00    +0.000 A 
ATOM      2  C   UNL     1       0.083  11.021  19.438  0.00  0.00    +0.000 A 
ATOM      3  C   UNL     1       1.273  10.276  19.601  0.00  0.00    +0.000 A 
ATOM      4  C   UNL     1       1.290   9.323  18.604  0.00  0.00    +0.000 A 
ATOM      5  O   UNL     1       0.167   9.461  17.828  0.00  0.00    +0.000 OA
ENDROOT
BRANCH   1  10
ATOM      6  C   UNL     1      -4.135  11.674  17.942  0.00  0.00    +0.000 A 
ATOM      7  C   UNL     1      -4.468  11.145  16.694  0.00  0.00    +0.000 A 
ATOM      8  C   UNL     1      -3.520  10.422  15.969  0.00  0.00    +0.000 A 
ATOM      9  C   UNL     1      -2.238  10.218  16.495  0.00  0.00    +0.000 A 
ATOM     10  C   UNL     1      -1.884  10.741  17.746  0.00  0.00    +0.000 A 
ATOM     11  C   UNL     1      -2.842  11.490  18.449  0.00  0.00    +0.000 A 
BRANCH   6  17
ATOM     12  C   UNL     1      -7.647  11.862  20.740  0.00  0.00    +0.000 C 
ATOM     13  C   UNL     1      -6.524  12.868  20.465  0.00  0.00    +0.000 C 
ATOM     14  C   UNL     1      -6.189  13.652  21.731  0.00  0.00    +0.000 C 
ATOM     15  C   UNL     1      -6.882  13.797  19.287  0.00  0.00    +0.000 C 
ATOM     16  N   UNL     1      -5.969  13.355  18.255  0.00  0.00    +0.000 N 
ATOM     17  C   UNL     1      -5.147  12.384  18.772  0.00  0.00    +0.000 C 
ATOM     18  N   UNL     1      -5.321  12.091  20.036  0.00  0.00    +0.000 NA
ATOM     19  H   UNL     1      -6.378  13.158  17.349  0.00  0.00    +0.000 HD
ENDBRANCH   6  17
ENDBRANCH   1  10
BRANCH   4  20
ATOM     20  C   UNL     1       2.208   8.237  18.262  0.00  0.00    +0.000 A 
ATOM     21  C   UNL     1       3.338   8.495  17.467  0.00  0.00    +0.000 A 
ATOM     22  C   UNL     1       4.245   7.482  17.151  0.00  0.00    +0.000 A 
ATOM     23  C   UNL     1       4.030   6.189  17.619  0.00  0.00    +0.000 A 
ATOM     24  C   UNL     1       2.906   5.903  18.400  0.00  0.00    +0.000 A 
ATOM     25  C   UNL     1       2.004   6.928  18.725  0.00  0.00    +0.000 A 
BRANCH  24  26
ATOM     26  C   UNL     1       2.681   4.512  18.871  0.00  0.00    +0.000 C 
ATOM     27  N   UNL     1       1.494   4.100  19.234  0.00  0.00    +0.000 NA
ATOM     28  C   UNL     1       1.695   2.719  19.768  0.00  0.00    +0.000 C 
ATOM     29  C   UNL     1       0.716   1.777  19.072  0.00  0.00    +0.000 C 
ATOM     30  C   UNL     1       1.424   2.765  21.275  0.00  0.00    +0.000 C 
ATOM     31  C   UNL     1       3.165   2.349  19.476  0.00  0.00    +0.000 C 
ATOM     32  N   UNL     1       3.696   3.590  18.958  0.00  0.00    +0.000 N 
ATOM     33  H   UNL     1       4.568   3.913  19.359  0.00  0.00    +0.000 HD
ENDBRANCH  24  26
ENDBRANCH   4  20
TORSDOF 4
ENDMDL
MODEL 9
REMARK VINA RESULT:      -8.8      3.042      4.117
REMARK  Name = 
REMARK  8 active torsions:
REMARK  status: ('A' for Active; 'I' for Inactive)
REMARK    1  A    between atoms: C_1  and  C_2
REMARK    2  A    between atoms: C_2  and  C_3
REMARK    3  A    between atoms: C_6  and  C_7
REMARK    4  A    between atoms: C_11  and  C_12
REMARK    5  A    between atoms: C_15  and  C_16
REMARK    6  A    between atoms: C_20  and  C_21
REMARK    7  A    between atoms: C_23  and  C_24
REMARK    8  A    between atoms: C_23  and  C_25
REMARK                            x       y       z     vdW  Elec       q    Type
REMARK                         _______ _______ _______ _____ _____    ______ ____
ROOT
ATOM      1  C   UNL     1       0.525   9.692  20.581  0.00  0.00    +0.000 A 
ATOM      2  C   UNL     1       0.421   9.379  21.924  0.00  0.00    +0.000 A 
ATOM      3  C   UNL     1       0.964   8.084  22.083  0.00  0.00    +0.000 A 
ATOM      4  C   UNL     1       1.385   7.669  20.837  0.00  0.00    +0.000 A 
ATOM      5  O   UNL     1       1.135   8.660  19.923  0.00  0.00    +0.000 OA
ENDROOT
BRANCH   1  10
ATOM      6  C   UNL     1      -1.738  11.937  18.563  0.00  0.00    +0.000 A 
ATOM      7  C   UNL     1      -0.842  12.908  18.111  0.00  0.00    +0.000 A 
ATOM      8  C   UNL     1       0.500  12.846  18.491  0.00  0.00    +0.000 A 
ATOM      9  C   UNL     1       0.951  11.810  19.316  0.00  0.00    +0.000 A 
ATOM     10  C   UNL     1       0.067  10.826  19.782  0.00  0.00    +0.000 A 
ATOM     11  C   UNL     1      -1.284  10.919  19.412  0.00  0.00    +0.000 A 
BRANCH   6  17
ATOM     12  C   UNL     1      -6.002  10.522  18.673  0.00  0.00    +0.000 C 
ATOM     13  C   UNL     1      -5.389  11.836  18.173  0.00  0.00    +0.000 C 
ATOM     14  C   UNL     1      -6.358  12.994  18.398  0.00  0.00    +0.000 C 
ATOM     15  C   UNL     1      -4.953  11.723  16.698  0.00  0.00    +0.000 C 
ATOM     16  N   UNL     1      -3.509  11.747  16.800  0.00  0.00    +0.000 N 
ATOM     17  C   UNL     1      -3.157  11.932  18.114  0.00  0.00    +0.000 C 
ATOM     18  N   UNL     1      -4.143  12.078  18.962  0.00  0.00    +0.000 NA
ATOM     19  H   UNL     1      -3.014  11.015  16.303  0.00  0.00    +0.000 HD
ENDBRANCH   6  17
ENDBRANCH   1  10
BRANCH   4  20
ATOM     20  C   UNL     1       1.979   6.430  20.333  0.00  0.00    +0.000 A 
ATOM     21  C   UNL     1       1.322   5.204  20.531  0.00  0.00    +0.000 A 
ATOM     22  C   UNL     1       1.854   4.012  20.036  0.00  0.00    +0.000 A 
ATOM     23  C   UNL     1       3.060   4.027  19.342  0.00  0.00    +0.000 A 
ATOM     24  C   UNL     1       3.740   5.233  19.144  0.00  0.00    +0.000 A 
ATOM     25  C   UNL     1       3.194   6.430  19.633  0.00  0.00    +0.000 A 
BRANCH  24  26
ATOM     26  C   UNL     1       5.038   5.226  18.420  0.00  0.00    +0.000 C 
ATOM     27  N   UNL     1       5.326   6.142  17.532  0.00  0.00    +0.000 NA
ATOM     28  C   UNL     1       6.630   5.722  16.933  0.00  0.00    +0.000 C 
ATOM     29  C   UNL     1       7.601   6.897  17.000  0.00  0.00    +0.000 C 
ATOM     30  C   UNL     1       6.360   5.324  15.478  0.00  0.00    +0.000 C 
ATOM     31  C   UNL     1       7.120   4.515  17.760  0.00  0.00    +0.000 C 
ATOM     32  N   UNL     1       5.996   4.264  18.633  0.00  0.00    +0.000 N 
ATOM     33  H   UNL     1       5.671   3.307  18.692  0.00  0.00    +0.000 HD
ENDBRANCH  24  26
ENDBRANCH   4  20
TORSDOF 4
ENDMDL
