MODEL 1
REMARK VINA RESULT:      -8.2      0.000      0.000
REMARK  Name = 
REMARK  7 active torsions:
REMARK  status: ('A' for Active; 'I' for Inactive)
REMARK    1  A    between atoms: C_1  and  O_2
REMARK    2  A    between atoms: O_2  and  C_3
REMARK    3  A    between atoms: C_6  and  N_7
REMARK    4  A    between atoms: C_13  and  S_14
REMARK    5  A    between atoms: S_14  and  N_17
REMARK    6  A    between atoms: C_26  and  O_27
REMARK    7  A    between atoms: O_27  and  C_28
REMARK                            x       y       z     vdW  Elec       q    Type
REMARK                         _______ _______ _______ _____ _____    ______ ____
ROOT
ATOM      1  N   UNL     1       4.001   5.419  17.737  0.00  0.00    +0.000 N 
ATOM      2  C   UNL     1       3.693   4.158  18.418  0.00  0.00    +0.000 C 
ATOM      3  C   UNL     1       3.719   4.412  19.924  0.00  0.00    +0.000 C 
ATOM      4  O   UNL     1       2.714   5.348  20.329  0.00  0.00    +0.000 OA
ATOM      5  C   UNL     1       2.630   6.442  19.500  0.00  0.00    +0.000 A 
ATOM      6  C   UNL     1       1.865   7.503  19.991  0.00  0.00    +0.000 A 
ATOM      7  C   UNL     1       1.711   8.656  19.220  0.00  0.00    +0.000 A 
ATOM      8  C   UNL     1       2.280   8.739  17.951  0.00  0.00    +0.000 A 
ATOM      9  C   UNL     1       3.022   7.662  17.458  0.00  0.00    +0.000 A 
ATOM     10  C   UNL     1       3.238   6.505  18.227  0.00  0.00    +0.000 A 
ENDROOT
BRANCH   1  14
ATOM     11  C   UNL     1       7.090   5.311  14.993  0.00  0.00    +0.000 A 
ATOM     12  C   UNL     1       5.871   4.709  14.740  0.00  0.00    +0.000 A 
ATOM     13  N   UNL     1       4.842   4.730  15.627  0.00  0.00    +0.000 NA
ATOM     14  C   UNL     1       5.054   5.381  16.806  0.00  0.00    +0.000 A 
ATOM     15  C   UNL     1       6.326   5.958  17.048  0.00  0.00    +0.000 A 
ATOM     16  N   UNL     1       7.345   5.943  16.152  0.00  0.00    +0.000 NA
BRANCH  11  18
ATOM     17  C   UNL     1       7.539   5.059  12.720  0.00  0.00    +0.000 C 
ATOM     18  O   UNL     1       8.073   5.223  14.033  0.00  0.00    +0.000 OA
ENDBRANCH  11  18
BRANCH  15  19
ATOM     19  O   UNL     1       6.600   6.466  18.304  0.00  0.00    +0.000 OA
ATOM     20  C   UNL     1       7.628   5.770  18.997  0.00  0.00    +0.000 C 
ENDBRANCH  15  19
ENDBRANCH   1  14
BRANCH   7  21
ATOM     21  S   UNL     1       0.647   9.954  19.795  0.00  0.00    +0.000 S 
ATOM     22  O   UNL     1      -0.579   9.341  20.254  0.00  0.00    +0.000 OA
ATOM     23  O   UNL     1       1.431  10.801  20.668  0.00  0.00    +0.000 OA
BRANCH  21  24
ATOM     24  N   UNL     1       0.245  10.750  18.351  0.00  0.00    +0.000 N 
ATOM     25  C   UNL     1      -1.147  10.744  18.130  0.00  0.00    +0.000 A 
ATOM     26  N   UNL     1      -1.652   9.886  17.282  0.00  0.00    +0.000 NA
ATOM     27  C   UNL     1      -3.026  10.041  17.259  0.00  0.00    +0.000 A 
ATOM     28  C   UNL     1      -3.519  11.096  17.999  0.00  0.00    +0.000 A 
ATOM     29  S   UNL     1      -2.225  11.889  18.800  0.00  0.00    +0.000 S 
ATOM     30  H   UNL     1       0.689  10.203  17.611  0.00  0.00    +0.000 HD
ENDBRANCH  21  24
ENDBRANCH   7  21
TORSDOF 5
ENDMDL
MODEL 2
REMARK VINA RESULT:      -8.1      1.276      1.371
REMARK  Name = 
REMARK  7 active torsions:
REMARK  status: ('A' for Active; 'I' for Inactive)
REMARK    1  A    between atoms: C_1  and  O_2
REMARK    2  A    between atoms: O_2  and  C_3
REMARK    3  A    between atoms: C_6  and  N_7
REMARK    4  A    between atoms: C_13  and  S_14
REMARK    5  A    between atoms: S_14  and  N_17
REMARK    6  A    between atoms: C_26  and  O_27
REMARK    7  A    between atoms: O_27  and  C_28
REMARK                            x       y       z     vdW  Elec       q    Type
REMARK                         _______ _______ _______ _____ _____    ______ ____
ROOT
ATOM      1  N   UNL     1       3.877   4.571  18.118  0.00  0.00    +0.000 N 
ATOM      2  C   UNL     1       3.476   3.224  18.535  0.00  0.00    +0.000 C 
ATOM      3  C   UNL     1       3.506   3.169  20.060  0.00  0.00    +0.000 C 
ATOM      4  O   UNL     1       2.565   4.074  20.650  0.00  0.00    +0.000 OA
ATOM      5  C   UNL     1       2.565   5.315  20.057  0.00  0.00    +0.000 A 
ATOM      6  C   UNL     1       1.872   6.307  20.754  0.00  0.00    +0.000 A 
ATOM      7  C   UNL     1       1.806   7.599  20.230  0.00  0.00    +0.000 A 
ATOM      8  C   UNL     1       2.391   7.894  19.001  0.00  0.00    +0.000 A 
ATOM      9  C   UNL     1       3.060   6.888  18.299  0.00  0.00    +0.000 A 
ATOM     10  C   UNL     1       3.188   5.588  18.819  0.00  0.00    +0.000 A 
ENDROOT
BRANCH   1  14
ATOM     11  C   UNL     1       6.977   4.799  15.393  0.00  0.00    +0.000 A 
ATOM     12  C   UNL     1       5.669   4.593  14.992  0.00  0.00    +0.000 A 
ATOM     13  N   UNL     1       4.635   4.513  15.869  0.00  0.00    +0.000 NA
ATOM     14  C   UNL     1       4.933   4.646  17.192  0.00  0.00    +0.000 A 
ATOM     15  C   UNL     1       6.288   4.822  17.573  0.00  0.00    +0.000 A 
ATOM     16  N   UNL     1       7.314   4.914  16.690  0.00  0.00    +0.000 NA
BRANCH  11  18
ATOM     17  C   UNL     1       7.415   4.911  13.107  0.00  0.00    +0.000 C 
ATOM     18  O   UNL     1       7.956   4.853  14.426  0.00  0.00    +0.000 OA
ENDBRANCH  11  18
BRANCH  15  19
ATOM     19  O   UNL     1       6.614   4.785  18.915  0.00  0.00    +0.000 OA
ATOM     20  C   UNL     1       7.667   5.669  19.278  0.00  0.00    +0.000 C 
ENDBRANCH  15  19
ENDBRANCH   1  14
BRANCH   7  21
ATOM     21  S   UNL     1       0.830   8.827  21.059  0.00  0.00    +0.000 S 
ATOM     22  O   UNL     1      -0.553   8.411  20.980  0.00  0.00    +0.000 OA
ATOM     23  O   UNL     1       1.459   9.091  22.335  0.00  0.00    +0.000 OA
BRANCH  21  24
ATOM     24  N   UNL     1       0.966  10.156  20.011  0.00  0.00    +0.000 N 
ATOM     25  C   UNL     1      -0.298  10.688  19.688  0.00  0.00    +0.000 A 
ATOM     26  N   UNL     1      -0.836  10.392  18.532  0.00  0.00    +0.000 NA
ATOM     27  C   UNL     1      -2.079  10.993  18.455  0.00  0.00    +0.000 A 
ATOM     28  C   UNL     1      -2.403  11.830  19.503  0.00  0.00    +0.000 A 
ATOM     29  S   UNL     1      -1.133  11.822  20.657  0.00  0.00    +0.000 S 
ATOM     30  H   UNL     1       1.383   9.781  19.157  0.00  0.00    +0.000 HD
ENDBRANCH  21  24
ENDBRANCH   7  21
TORSDOF 5
ENDMDL
MODEL 3
REMARK VINA RESULT:      -8.0      1.877      2.109
REMARK  Name = 
REMARK  7 active torsions:
REMARK  status: ('A' for Active; 'I' for Inactive)
REMARK    1  A    between atoms: C_1  and  O_2
REMARK    2  A    between atoms: O_2  and  C_3
REMARK    3  A    between atoms: C_6  and  N_7
REMARK    4  A    between atoms: C_13  and  S_14
REMARK    5  A    between atoms: S_14  and  N_17
REMARK    6  A    between atoms: C_26  and  O_27
REMARK    7  A    between atoms: O_27  and  C_28
REMARK                            x       y       z     vdW  Elec       q    Type
REMARK                         _______ _______ _______ _____ _____    ______ ____
ROOT
ATOM      1  N   UNL     1       3.774   4.722  18.211  0.00  0.00    +0.000 N 
ATOM      2  C   UNL     1       3.409   3.349  18.570  0.00  0.00    +0.000 C 
ATOM      3  C   UNL     1       3.424   3.236  20.093  0.00  0.00    +0.000 C 
ATOM      4  O   UNL     1       2.450   4.089  20.705  0.00  0.00    +0.000 OA
ATOM      5  C   UNL     1       2.419   5.352  20.160  0.00  0.00    +0.000 A 
ATOM      6  C   UNL     1       1.689   6.295  20.886  0.00  0.00    +0.000 A 
ATOM      7  C   UNL     1       1.590   7.603  20.412  0.00  0.00    +0.000 A 
ATOM      8  C   UNL     1       2.179   7.963  19.201  0.00  0.00    +0.000 A 
ATOM      9  C   UNL     1       2.886   7.005  18.470  0.00  0.00    +0.000 A 
ATOM     10  C   UNL     1       3.047   5.690  18.941  0.00  0.00    +0.000 A 
ENDROOT
BRANCH   1  14
ATOM     11  C   UNL     1       6.896   5.145  15.534  0.00  0.00    +0.000 A 
ATOM     12  C   UNL     1       5.639   4.734  15.128  0.00  0.00    +0.000 A 
ATOM     13  N   UNL     1       4.599   4.586  15.988  0.00  0.00    +0.000 NA
ATOM     14  C   UNL     1       4.838   4.864  17.301  0.00  0.00    +0.000 A 
ATOM     15  C   UNL     1       6.146   5.250  17.691  0.00  0.00    +0.000 A 
ATOM     16  N   UNL     1       7.176   5.407  16.822  0.00  0.00    +0.000 NA
BRANCH  11  18
ATOM     17  C   UNL     1       7.408   4.988  13.266  0.00  0.00    +0.000 C 
ATOM     18  O   UNL     1       7.887   5.252  14.584  0.00  0.00    +0.000 OA
ENDBRANCH  11  18
BRANCH  15  19
ATOM     19  O   UNL     1       6.434   5.365  19.037  0.00  0.00    +0.000 OA
ATOM     20  C   UNL     1       7.769   5.775  19.309  0.00  0.00    +0.000 C 
ENDBRANCH  15  19
ENDBRANCH   1  14
BRANCH   7  21
ATOM     21  S   UNL     1       0.569   8.770  21.275  0.00  0.00    +0.000 S 
ATOM     22  O   UNL     1      -0.623   8.072  21.703  0.00  0.00    +0.000 OA
ATOM     23  O   UNL     1       1.411   9.462  22.226  0.00  0.00    +0.000 OA
BRANCH  21  24
ATOM     24  N   UNL     1       0.067   9.799  20.021  0.00  0.00    +0.000 N 
ATOM     25  C   UNL     1      -0.082  11.126  20.473  0.00  0.00    +0.000 A 
ATOM     26  N   UNL     1      -1.282  11.578  20.730  0.00  0.00    +0.000 NA
ATOM     27  C   UNL     1      -1.176  12.878  21.190  0.00  0.00    +0.000 A 
ATOM     28  C   UNL     1       0.091  13.423  21.154  0.00  0.00    +0.000 A 
ATOM     29  S   UNL     1       1.203  12.248  20.580  0.00  0.00    +0.000 S 
ATOM     30  H   UNL     1      -0.851   9.451  19.741  0.00  0.00    +0.000 HD
ENDBRANCH  21  24
ENDBRANCH   7  21
TORSDOF 5
ENDMDL
MODEL 4
REMARK VINA RESULT:      -7.6      1.686      1.986
REMARK  Name = 
REMARK  7 active torsions:
REMARK  status: ('A' for Active; 'I' for Inactive)
REMARK    1  A    between atoms: C_1  and  O_2
REMARK    2  A    between atoms: O_2  and  C_3
REMARK    3  A    between atoms: C_6  and  N_7
REMARK    4  A    between atoms: C_13  and  S_14
REMARK    5  A    between atoms: S_14  and  N_17
REMARK    6  A    between atoms: C_26  and  O_27
REMARK    7  A    between atoms: O_27  and  C_28
REMARK                            x       y       z     vdW  Elec       q    Type
REMARK                         _______ _______ _______ _____ _____    ______ ____
ROOT
ATOM      1  N   UNL     1       3.931   5.531  17.709  0.00  0.00    +0.000 N 
ATOM      2  C   UNL     1       3.575   4.296  18.414  0.00  0.00    +0.000 C 
ATOM      3  C   UNL     1       3.581   4.584  19.913  0.00  0.00    +0.000 C 
ATOM      4  O   UNL     1       2.596   5.558  20.278  0.00  0.00    +0.000 OA
ATOM      5  C   UNL     1       2.558   6.634  19.421  0.00  0.00    +0.000 A 
ATOM      6  C   UNL     1       1.815   7.727  19.873  0.00  0.00    +0.000 A 
ATOM      7  C   UNL     1       1.708   8.865  19.073  0.00  0.00    +0.000 A 
ATOM      8  C   UNL     1       2.302   8.902  17.813  0.00  0.00    +0.000 A 
ATOM      9  C   UNL     1       3.021   7.793  17.359  0.00  0.00    +0.000 A 
ATOM     10  C   UNL     1       3.191   6.649  18.159  0.00  0.00    +0.000 A 
ENDROOT
BRANCH   1  14
ATOM     11  C   UNL     1       7.065   5.271  15.026  0.00  0.00    +0.000 A 
ATOM     12  C   UNL     1       5.820   4.736  14.746  0.00  0.00    +0.000 A 
ATOM     13  N   UNL     1       4.777   4.807  15.612  0.00  0.00    +0.000 NA
ATOM     14  C   UNL     1       4.999   5.441  16.798  0.00  0.00    +0.000 A 
ATOM     15  C   UNL     1       6.295   5.948  17.069  0.00  0.00    +0.000 A 
ATOM     16  N   UNL     1       7.329   5.884  16.193  0.00  0.00    +0.000 NA
BRANCH  11  18
ATOM     17  C   UNL     1       7.549   5.066  12.756  0.00  0.00    +0.000 C 
ATOM     18  O   UNL     1       8.061   5.135  14.085  0.00  0.00    +0.000 OA
ENDBRANCH  11  18
BRANCH  15  19
ATOM     19  O   UNL     1       6.570   6.435  18.333  0.00  0.00    +0.000 OA
ATOM     20  C   UNL     1       7.647   5.775  18.985  0.00  0.00    +0.000 C 
ENDBRANCH  15  19
ENDBRANCH   1  14
BRANCH   7  21
ATOM     21  S   UNL     1       0.671  10.206  19.597  0.00  0.00    +0.000 S 
ATOM     22  O   UNL     1      -0.691   9.865  19.250  0.00  0.00    +0.000 OA
ATOM     23  O   UNL     1       1.036  10.528  20.960  0.00  0.00    +0.000 OA
BRANCH  21  24
ATOM     24  N   UNL     1       1.119  11.443  18.523  0.00  0.00    +0.000 N 
ATOM     25  C   UNL     1       0.787  12.713  19.035  0.00  0.00    +0.000 A 
ATOM     26  N   UNL     1      -0.285  13.317  18.590  0.00  0.00    +0.000 NA
ATOM     27  C   UNL     1      -0.424  14.521  19.257  0.00  0.00    +0.000 A 
ATOM     28  C   UNL     1       0.612  14.857  20.104  0.00  0.00    +0.000 A 
ATOM     29  S   UNL     1       1.777  13.596  20.112  0.00  0.00    +0.000 S 
ATOM     30  H   UNL     1       0.562  11.281  17.682  0.00  0.00    +0.000 HD
ENDBRANCH  21  24
ENDBRANCH   7  21
TORSDOF 5
ENDMDL
MODEL 5
REMARK VINA RESULT:      -7.6      2.023      2.450
REMARK  Name = 
REMARK  7 active torsions:
REMARK  status: ('A' for Active; 'I' for Inactive)
REMARK    1  A    between atoms: C_1  and  O_2
REMARK    2  A    between atoms: O_2  and  C_3
REMARK    3  A    between atoms: C_6  and  N_7
REMARK    4  A    between atoms: C_13  and  S_14
REMARK    5  A    between atoms: S_14  and  N_17
REMARK    6  A    between atoms: C_26  and  O_27
REMARK    7  A    between atoms: O_27  and  C_28
REMARK                            x       y       z     vdW  Elec       q    Type
REMARK                         _______ _______ _______ _____ _____    ______ ____
ROOT
ATOM      1  N   UNL     1       3.768   5.632  17.892  0.00  0.00    +0.000 N 
ATOM      2  C   UNL     1       3.420   4.427  18.650  0.00  0.00    +0.000 C 
ATOM      3  C   UNL     1       3.420   4.781  20.135  0.00  0.00    +0.000 C 
ATOM      4  O   UNL     1       2.426   5.762  20.454  0.00  0.00    +0.000 OA
ATOM      5  C   UNL     1       2.382   6.799  19.550  0.00  0.00    +0.000 A 
ATOM      6  C   UNL     1       1.630   7.906  19.951  0.00  0.00    +0.000 A 
ATOM      7  C   UNL     1       1.516   9.006  19.102  0.00  0.00    +0.000 A 
ATOM      8  C   UNL     1       2.113   8.992  17.843  0.00  0.00    +0.000 A 
ATOM      9  C   UNL     1       2.842   7.870  17.441  0.00  0.00    +0.000 A 
ATOM     10  C   UNL     1       3.018   6.763  18.290  0.00  0.00    +0.000 A 
ENDROOT
BRANCH   1  14
ATOM     11  C   UNL     1       6.912   5.278  15.231  0.00  0.00    +0.000 A 
ATOM     12  C   UNL     1       5.665   4.745  14.960  0.00  0.00    +0.000 A 
ATOM     13  N   UNL     1       4.618   4.847  15.819  0.00  0.00    +0.000 NA
ATOM     14  C   UNL     1       4.839   5.510  16.989  0.00  0.00    +0.000 A 
ATOM     15  C   UNL     1       6.138   6.015  17.252  0.00  0.00    +0.000 A 
ATOM     16  N   UNL     1       7.175   5.920  16.383  0.00  0.00    +0.000 NA
BRANCH  11  18
ATOM     17  C   UNL     1       7.399   4.841  12.994  0.00  0.00    +0.000 C 
ATOM     18  O   UNL     1       7.911   5.110  14.299  0.00  0.00    +0.000 OA
ENDBRANCH  11  18
BRANCH  15  19
ATOM     19  O   UNL     1       6.411   6.534  18.504  0.00  0.00    +0.000 OA
ATOM     20  C   UNL     1       7.281   5.726  19.286  0.00  0.00    +0.000 C 
ENDBRANCH  15  19
ENDBRANCH   1  14
BRANCH   7  21
ATOM     21  S   UNL     1       0.468  10.361  19.564  0.00  0.00    +0.000 S 
ATOM     22  O   UNL     1       0.759  11.461  18.671  0.00  0.00    +0.000 OA
ATOM     23  O   UNL     1      -0.877   9.842  19.696  0.00  0.00    +0.000 OA
BRANCH  21  24
ATOM     24  N   UNL     1       1.113  10.813  21.068  0.00  0.00    +0.000 N 
ATOM     25  C   UNL     1       0.225  11.645  21.779  0.00  0.00    +0.000 A 
ATOM     26  N   UNL     1       0.439  12.935  21.795  0.00  0.00    +0.000 NA
ATOM     27  C   UNL     1      -0.571  13.543  22.518  0.00  0.00    +0.000 A 
ATOM     28  C   UNL     1      -1.461  12.688  23.136  0.00  0.00    +0.000 A 
ATOM     29  S   UNL     1      -1.054  11.065  22.753  0.00  0.00    +0.000 S 
ATOM     30  H   UNL     1       1.951  11.353  20.848  0.00  0.00    +0.000 HD
ENDBRANCH  21  24
ENDBRANCH   7  21
TORSDOF 5
ENDMDL
MODEL 6
REMARK VINA RESULT:      -7.5      0.967      1.082
REMARK  Name = 
REMARK  7 active torsions:
REMARK  status: ('A' for Active; 'I' for Inactive)
REMARK    1  A    between atoms: C_1  and  O_2
REMARK    2  A    between atoms: O_2  and  C_3
REMARK    3  A    between atoms: C_6  and  N_7
REMARK    4  A    between atoms: C_13  and  S_14
REMARK    5  A    between atoms: S_14  and  N_17
REMARK    6  A    between atoms: C_26  and  O_27
REMARK    7  A    between atoms: O_27  and  C_28
REMARK                            x       y       z     vdW  Elec       q    Type
REMARK                         _______ _______ _______ _____ _____    ______ ____
ROOT
ATOM      1  N   UNL     1       3.833   5.594  17.764  0.00  0.00    +0.000 N 
ATOM      2  C   UNL     1       3.418   4.354  18.425  0.00  0.00    +0.000 C 
ATOM      3  C   UNL     1       3.428   4.591  19.933  0.00  0.00    +0.000 C 
ATOM      4  O   UNL     1       2.485   5.596  20.326  0.00  0.00    +0.000 OA
ATOM      5  C   UNL     1       2.500   6.701  19.506  0.00  0.00    +0.000 A 
ATOM      6  C   UNL     1       1.804   7.810  19.990  0.00  0.00    +0.000 A 
ATOM      7  C   UNL     1       1.754   8.978  19.229  0.00  0.00    +0.000 A 
ATOM      8  C   UNL     1       2.357   9.030  17.974  0.00  0.00    +0.000 A 
ATOM      9  C   UNL     1       3.029   7.906  17.487  0.00  0.00    +0.000 A 
ATOM     10  C   UNL     1       3.141   6.729  18.248  0.00  0.00    +0.000 A 
ENDROOT
BRANCH   1  14
ATOM     11  C   UNL     1       6.970   5.283  15.090  0.00  0.00    +0.000 A 
ATOM     12  C   UNL     1       5.727   4.737  14.821  0.00  0.00    +0.000 A 
ATOM     13  N   UNL     1       4.683   4.825  15.685  0.00  0.00    +0.000 NA
ATOM     14  C   UNL     1       4.902   5.487  16.857  0.00  0.00    +0.000 A 
ATOM     15  C   UNL     1       6.196   6.004  17.116  0.00  0.00    +0.000 A 
ATOM     16  N   UNL     1       7.231   5.923  16.243  0.00  0.00    +0.000 NA
BRANCH  11  18
ATOM     17  C   UNL     1       7.454   4.988  12.829  0.00  0.00    +0.000 C 
ATOM     18  O   UNL     1       7.967   5.128  14.153  0.00  0.00    +0.000 OA
ENDBRANCH  11  18
BRANCH  15  19
ATOM     19  O   UNL     1       6.469   6.521  18.369  0.00  0.00    +0.000 OA
ATOM     20  C   UNL     1       7.236   5.656  19.196  0.00  0.00    +0.000 C 
ENDBRANCH  15  19
ENDBRANCH   1  14
BRANCH   7  21
ATOM     21  S   UNL     1       0.775  10.346  19.793  0.00  0.00    +0.000 S 
ATOM     22  O   UNL     1       1.052  10.528  21.201  0.00  0.00    +0.000 OA
ATOM     23  O   UNL     1       0.959  11.428  18.849  0.00  0.00    +0.000 OA
BRANCH  21  24
ATOM     24  N   UNL     1      -0.798   9.714  19.717  0.00  0.00    +0.000 N 
ATOM     25  C   UNL     1      -1.553  10.333  18.700  0.00  0.00    +0.000 A 
ATOM     26  N   UNL     1      -2.416  11.261  19.026  0.00  0.00    +0.000 NA
ATOM     27  C   UNL     1      -3.005  11.743  17.871  0.00  0.00    +0.000 A 
ATOM     28  C   UNL     1      -2.664  11.084  16.708  0.00  0.00    +0.000 A 
ATOM     29  S   UNL     1      -1.521   9.853  17.060  0.00  0.00    +0.000 S 
ATOM     30  H   UNL     1      -1.223   9.944  20.617  0.00  0.00    +0.000 HD
ENDBRANCH  21  24
ENDBRANCH   7  21
TORSDOF 5
ENDMDL
MODEL 7
REMARK VINA RESULT:      -7.5      1.997      2.059
REMARK  Name = 
REMARK  7 active torsions:
REMARK  status: ('A' for Active; 'I' for Inactive)
REMARK    1  A    between atoms: C_1  and  O_2
REMARK    2  A    between atoms: O_2  and  C_3
REMARK    3  A    between atoms: C_6  and  N_7
REMARK    4  A    between atoms: C_13  and  S_14
REMARK    5  A    between atoms: S_14  and  N_17
REMARK    6  A    between atoms: C_26  and  O_27
REMARK    7  A    between atoms: O_27  and  C_28
REMARK                            x       y       z     vdW  Elec       q    Type
REMARK                         _______ _______ _______ _____ _____    ______ ____
ROOT
ATOM      1  N   UNL     1       3.609   5.120  18.419  0.00  0.00    +0.000 N 
ATOM      2  C   UNL     1       3.248   3.805  18.956  0.00  0.00    +0.000 C 
ATOM      3  C   UNL     1       3.216   3.906  20.479  0.00  0.00    +0.000 C 
ATOM      4  O   UNL     1       2.214   4.821  20.938  0.00  0.00    +0.000 OA
ATOM      5  C   UNL     1       2.187   5.995  20.220  0.00  0.00    +0.000 A 
ATOM      6  C   UNL     1       1.424   7.020  20.785  0.00  0.00    +0.000 A 
ATOM      7  C   UNL     1       1.326   8.247  20.129  0.00  0.00    +0.000 A 
ATOM      8  C   UNL     1       1.949   8.443  18.898  0.00  0.00    +0.000 A 
ATOM      9  C   UNL     1       2.688   7.403  18.329  0.00  0.00    +0.000 A 
ATOM     10  C   UNL     1       2.849   6.169  18.985  0.00  0.00    +0.000 A 
ENDROOT
BRANCH   1  14
ATOM     11  C   UNL     1       6.808   5.214  15.803  0.00  0.00    +0.000 A 
ATOM     12  C   UNL     1       5.505   5.087  15.355  0.00  0.00    +0.000 A 
ATOM     13  N   UNL     1       4.439   5.052  16.195  0.00  0.00    +0.000 NA
ATOM     14  C   UNL     1       4.699   5.150  17.530  0.00  0.00    +0.000 A 
ATOM     15  C   UNL     1       6.047   5.244  17.958  0.00  0.00    +0.000 A 
ATOM     16  N   UNL     1       7.106   5.290  17.112  0.00  0.00    +0.000 NA
BRANCH  11  18
ATOM     17  C   UNL     1       7.368   4.855  13.569  0.00  0.00    +0.000 C 
ATOM     18  O   UNL     1       7.821   5.227  14.870  0.00  0.00    +0.000 OA
ENDBRANCH  11  18
BRANCH  15  19
ATOM     19  O   UNL     1       6.325   5.168  19.310  0.00  0.00    +0.000 OA
ATOM     20  C   UNL     1       7.611   5.660  19.663  0.00  0.00    +0.000 C 
ENDBRANCH  15  19
ENDBRANCH   1  14
BRANCH   7  21
ATOM     21  S   UNL     1       0.266   9.507  20.790  0.00  0.00    +0.000 S 
ATOM     22  O   UNL     1      -0.661   9.888  19.747  0.00  0.00    +0.000 OA
ATOM     23  O   UNL     1      -0.208   9.044  22.077  0.00  0.00    +0.000 OA
BRANCH  21  24
ATOM     24  N   UNL     1       1.331  10.819  20.953  0.00  0.00    +0.000 N 
ATOM     25  C   UNL     1       0.885  11.938  20.222  0.00  0.00    +0.000 A 
ATOM     26  N   UNL     1       1.437  12.202  19.066  0.00  0.00    +0.000 NA
ATOM     27  C   UNL     1       0.818  13.313  18.523  0.00  0.00    +0.000 A 
ATOM     28  C   UNL     1      -0.105  13.939  19.336  0.00  0.00    +0.000 A 
ATOM     29  S   UNL     1      -0.249  13.073  20.811  0.00  0.00    +0.000 S 
ATOM     30  H   UNL     1       2.212  10.500  20.546  0.00  0.00    +0.000 HD
ENDBRANCH  21  24
ENDBRANCH   7  21
TORSDOF 5
ENDMDL
MODEL 8
REMARK VINA RESULT:      -7.2      3.312      8.384
REMARK  Name = 
REMARK  7 active torsions:
REMARK  status: ('A' for Active; 'I' for Inactive)
REMARK    1  A    between atoms: C_1  and  O_2
REMARK    2  A    between atoms: O_2  and  C_3
REMARK    3  A    between atoms: C_6  and  N_7
REMARK    4  A    between atoms: C_13  and  S_14
REMARK    5  A    between atoms: S_14  and  N_17
REMARK    6  A    between atoms: C_26  and  O_27
REMARK    7  A    between atoms: O_27  and  C_28
REMARK                            x       y       z     vdW  Elec       q    Type
REMARK                         _______ _______ _______ _____ _____    ______ ____
ROOT
ATOM      1  N   UNL     1       0.045   9.779  19.587  0.00  0.00    +0.000 N 
ATOM      2  C   UNL     1       0.023  10.091  21.019  0.00  0.00    +0.000 C 
ATOM      3  C   UNL     1       0.086   8.778  21.794  0.00  0.00    +0.000 C 
ATOM      4  O   UNL     1       1.307   8.068  21.552  0.00  0.00    +0.000 OA
ATOM      5  C   UNL     1       1.661   8.041  20.222  0.00  0.00    +0.000 A 
ATOM      6  C   UNL     1       2.682   7.147  19.897  0.00  0.00    +0.000 A 
ATOM      7  C   UNL     1       3.120   7.051  18.575  0.00  0.00    +0.000 A 
ATOM      8  C   UNL     1       2.573   7.870  17.589  0.00  0.00    +0.000 A 
ATOM      9  C   UNL     1       1.570   8.780  17.930  0.00  0.00    +0.000 A 
ATOM     10  C   UNL     1       1.071   8.869  19.242  0.00  0.00    +0.000 A 
ENDROOT
BRANCH   1  14
ATOM     11  C   UNL     1      -3.018  11.389  17.326  0.00  0.00    +0.000 A 
ATOM     12  C   UNL     1      -3.022  10.062  17.716  0.00  0.00    +0.000 A 
ATOM     13  N   UNL     1      -2.026   9.511  18.457  0.00  0.00    +0.000 NA
ATOM     14  C   UNL     1      -0.996  10.328  18.816  0.00  0.00    +0.000 A 
ATOM     15  C   UNL     1      -1.005  11.674  18.371  0.00  0.00    +0.000 A 
ATOM     16  N   UNL     1      -2.010  12.221  17.641  0.00  0.00    +0.000 NA
BRANCH  11  18
ATOM     17  C   UNL     1      -5.332  11.634  17.194  0.00  0.00    +0.000 C 
ATOM     18  O   UNL     1      -4.070  11.849  16.565  0.00  0.00    +0.000 OA
ENDBRANCH  11  18
BRANCH  15  19
ATOM     19  O   UNL     1       0.115  12.455  18.584  0.00  0.00    +0.000 OA
ATOM     20  C   UNL     1      -0.147  13.853  18.581  0.00  0.00    +0.000 C 
ENDBRANCH  15  19
ENDBRANCH   1  14
BRANCH   7  21
ATOM     21  S   UNL     1       4.493   5.998  18.184  0.00  0.00    +0.000 S 
ATOM     22  O   UNL     1       5.454   6.791  17.450  0.00  0.00    +0.000 OA
ATOM     23  O   UNL     1       4.868   5.307  19.399  0.00  0.00    +0.000 OA
BRANCH  21  24
ATOM     24  N   UNL     1       3.815   4.937  17.047  0.00  0.00    +0.000 N 
ATOM     25  C   UNL     1       3.212   3.827  17.673  0.00  0.00    +0.000 A 
ATOM     26  N   UNL     1       3.853   2.687  17.700  0.00  0.00    +0.000 NA
ATOM     27  C   UNL     1       3.089   1.765  18.392  0.00  0.00    +0.000 A 
ATOM     28  C   UNL     1       1.832   2.194  18.768  0.00  0.00    +0.000 A 
ATOM     29  S   UNL     1       1.619   3.829  18.290  0.00  0.00    +0.000 S 
ATOM     30  H   UNL     1       4.603   4.601  16.491  0.00  0.00    +0.000 HD
ENDBRANCH  21  24
ENDBRANCH   7  21
TORSDOF 5
ENDMDL
MODEL 9
REMARK VINA RESULT:      -7.2      2.089      2.410
REMARK  Name = 
REMARK  7 active torsions:
REMARK  status: ('A' for Active; 'I' for Inactive)
REMARK    1  A    between atoms: C_1  and  O_2
REMARK    2  A    between atoms: O_2  and  C_3
REMARK    3  A    between atoms: C_6  and  N_7
REMARK    4  A    between atoms: C_13  and  S_14
REMARK    5  A    between atoms: S_14  and  N_17
REMARK    6  A    between atoms: C_26  and  O_27
REMARK    7  A    between atoms: O_27  and  C_28
REMARK                            x       y       z     vdW  Elec       q    Type
REMARK                         _______ _______ _______ _____ _____    ______ ____
ROOT
ATOM      1  N   UNL     1       3.464   5.759  18.242  0.00  0.00    +0.000 N 
ATOM      2  C   UNL     1       2.943   4.615  18.996  0.00  0.00    +0.000 C 
ATOM      3  C   UNL     1       2.862   5.012  20.468  0.00  0.00    +0.000 C 
ATOM      4  O   UNL     1       1.946   6.092  20.685  0.00  0.00    +0.000 OA
ATOM      5  C   UNL     1       2.074   7.102  19.758  0.00  0.00    +0.000 A 
ATOM      6  C   UNL     1       1.404   8.286  20.073  0.00  0.00    +0.000 A 
ATOM      7  C   UNL     1       1.464   9.366  19.192  0.00  0.00    +0.000 A 
ATOM      8  C   UNL     1       2.153   9.258  17.986  0.00  0.00    +0.000 A 
ATOM      9  C   UNL     1       2.798   8.060  17.668  0.00  0.00    +0.000 A 
ATOM     10  C   UNL     1       2.799   6.967  18.554  0.00  0.00    +0.000 A 
ENDROOT
BRANCH   1  14
ATOM     11  C   UNL     1       6.757   5.031  15.851  0.00  0.00    +0.000 A 
ATOM     12  C   UNL     1       5.471   5.029  15.340  0.00  0.00    +0.000 A 
ATOM     13  N   UNL     1       4.375   5.264  16.106  0.00  0.00    +0.000 NA
ATOM     14  C   UNL     1       4.585   5.509  17.430  0.00  0.00    +0.000 A 
ATOM     15  C   UNL     1       5.912   5.469  17.930  0.00  0.00    +0.000 A 
ATOM     16  N   UNL     1       7.003   5.246  17.155  0.00  0.00    +0.000 NA
BRANCH  11  18
ATOM     17  C   UNL     1       7.406   4.821  13.623  0.00  0.00    +0.000 C 
ATOM     18  O   UNL     1       7.801   4.769  14.993  0.00  0.00    +0.000 OA
ENDBRANCH  11  18
BRANCH  15  19
ATOM     19  O   UNL     1       6.113   5.545  19.295  0.00  0.00    +0.000 OA
ATOM     20  C   UNL     1       7.476   5.701  19.669  0.00  0.00    +0.000 C 
ENDBRANCH  15  19
ENDBRANCH   1  14
BRANCH   7  21
ATOM     21  S   UNL     1       0.520  10.828  19.539  0.00  0.00    +0.000 S 
ATOM     22  O   UNL     1       1.432  11.822  20.059  0.00  0.00    +0.000 OA
ATOM     23  O   UNL     1      -0.298  11.101  18.377  0.00  0.00    +0.000 OA
BRANCH  21  24
ATOM     24  N   UNL     1      -0.422  10.337  20.863  0.00  0.00    +0.000 N 
ATOM     25  C   UNL     1      -0.974  11.443  21.540  0.00  0.00    +0.000 A 
ATOM     26  N   UNL     1      -0.417  11.852  22.651  0.00  0.00    +0.000 NA
ATOM     27  C   UNL     1      -1.103  12.961  23.110  0.00  0.00    +0.000 A 
ATOM     28  C   UNL     1      -2.239  13.294  22.402  0.00  0.00    +0.000 A 
ATOM     29  S   UNL     1      -2.427  12.217  21.079  0.00  0.00    +0.000 S 
ATOM     30  H   UNL     1       0.229   9.868  21.495  0.00  0.00    +0.000 HD
ENDBRANCH  21  24
ENDBRANCH   7  21
TORSDOF 5
ENDMDL
