MODEL 1
REMARK VINA RESULT:      -6.7      0.000      0.000
REMARK  Name = 
REMARK  6 active torsions:
REMARK  status: ('A' for Active; 'I' for Inactive)
REMARK    1  A    between atoms: C_1  and  C_2
REMARK    2  A    between atoms: C_8  and  N_9
REMARK    3  A    between atoms: C_10  and  C_12
REMARK    4  A    between atoms: C_12  and  C_13
REMARK    5  A    between atoms: C_13  and  S_14
REMARK    6  A    between atoms: S_14  and  C_15
REMARK                            x       y       z     vdW  Elec       q    Type
REMARK                         _______ _______ _______ _____ _____    ______ ____
ROOT
ATOM      1  N   UNL     1       2.650   5.802  20.328  0.00  0.00    +0.000 N 
ATOM      2  C   UNL     1       1.948   4.601  20.316  0.00  0.00    +0.000 C 
ATOM      3  O   UNL     1       0.771   4.438  20.004  0.00  0.00    +0.000 OA
ATOM      4  H   UNL     1       3.655   5.736  20.414  0.00  0.00    +0.000 HD
ENDROOT
BRANCH   1  12
ATOM      5  C   UNL     1       3.187   7.039  17.694  0.00  0.00    +0.000 C 
ATOM      6  C   UNL     1       2.353   7.678  18.771  0.00  0.00    +0.000 A 
ATOM      7  C   UNL     1       1.779   8.940  18.488  0.00  0.00    +0.000 A 
ATOM      8  C   UNL     1       0.989   9.596  19.430  0.00  0.00    +0.000 A 
ATOM      9 BR   UNL     1       0.201  11.259  19.016  0.00  0.00    +0.000 Br
ATOM     10  C   UNL     1       0.775   9.021  20.673  0.00  0.00    +0.000 A 
ATOM     11  C   UNL     1       1.344   7.780  20.968  0.00  0.00    +0.000 A 
ATOM     12  C   UNL     1       2.116   7.082  20.028  0.00  0.00    +0.000 A 
ENDBRANCH   1  12
BRANCH   2  13
ATOM     13  C   UNL     1       2.784   3.396  20.688  0.00  0.00    +0.000 C 
BRANCH  13  14
ATOM     14  C   UNL     1       4.023   3.275  19.810  0.00  0.00    +0.000 C 
BRANCH  14  15
ATOM     15  S   UNL     1       3.559   3.125  18.046  0.00  0.00    +0.000 S 
BRANCH  15  16
ATOM     16  C   UNL     1       4.902   3.975  17.230  0.00  0.00    +0.000 A 
ATOM     17  C   UNL     1       6.005   4.351  18.006  0.00  0.00    +0.000 A 
ATOM     18  C   UNL     1       7.127   4.936  17.414  0.00  0.00    +0.000 A 
ATOM     19  C   UNL     1       7.156   5.151  16.038  0.00  0.00    +0.000 A 
ATOM     20  C   UNL     1       6.059   4.789  15.258  0.00  0.00    +0.000 A 
ATOM     21  C   UNL     1       4.938   4.202  15.851  0.00  0.00    +0.000 A 
ENDBRANCH  15  16
ENDBRANCH  14  15
ENDBRANCH  13  14
ENDBRANCH   2  13
TORSDOF 5
ENDMDL
MODEL 2
REMARK VINA RESULT:      -6.7      2.829      5.255
REMARK  Name = 
REMARK  6 active torsions:
REMARK  status: ('A' for Active; 'I' for Inactive)
REMARK    1  A    between atoms: C_1  and  C_2
REMARK    2  A    between atoms: C_8  and  N_9
REMARK    3  A    between atoms: C_10  and  C_12
REMARK    4  A    between atoms: C_12  and  C_13
REMARK    5  A    between atoms: C_13  and  S_14
REMARK    6  A    between atoms: S_14  and  C_15
REMARK                            x       y       z     vdW  Elec       q    Type
REMARK                         _______ _______ _______ _____ _____    ______ ____
ROOT
ATOM      1  N   UNL     1       5.093   3.561  17.859  0.00  0.00    +0.000 N 
ATOM      2  C   UNL     1       4.620   2.855  18.961  0.00  0.00    +0.000 C 
ATOM      3  O   UNL     1       4.783   3.140  20.145  0.00  0.00    +0.000 OA
ATOM      4  H   UNL     1       4.706   3.307  16.961  0.00  0.00    +0.000 HD
ENDROOT
BRANCH   1  12
ATOM      5  C   UNL     1       4.962   5.525  15.648  0.00  0.00    +0.000 C 
ATOM      6  C   UNL     1       5.840   5.677  16.860  0.00  0.00    +0.000 A 
ATOM      7  C   UNL     1       6.635   6.845  16.947  0.00  0.00    +0.000 A 
ATOM      8  C   UNL     1       7.471   7.064  18.039  0.00  0.00    +0.000 A 
ATOM      9 BR   UNL     1       8.490   8.648  18.153  0.00  0.00    +0.000 Br
ATOM     10  C   UNL     1       7.550   6.119  19.050  0.00  0.00    +0.000 A 
ATOM     11  C   UNL     1       6.778   4.958  18.972  0.00  0.00    +0.000 A 
ATOM     12  C   UNL     1       5.903   4.726  17.901  0.00  0.00    +0.000 A 
ENDBRANCH   1  12
BRANCH   2  13
ATOM     13  C   UNL     1       3.785   1.646  18.603  0.00  0.00    +0.000 C 
BRANCH  13  14
ATOM     14  C   UNL     1       2.615   2.015  17.700  0.00  0.00    +0.000 C 
BRANCH  14  15
ATOM     15  S   UNL     1       1.195   2.616  18.685  0.00  0.00    +0.000 S 
BRANCH  15  16
ATOM     16  C   UNL     1       1.692   4.286  19.082  0.00  0.00    +0.000 A 
ATOM     17  C   UNL     1       2.083   5.120  18.027  0.00  0.00    +0.000 A 
ATOM     18  C   UNL     1       2.394   6.462  18.257  0.00  0.00    +0.000 A 
ATOM     19  C   UNL     1       2.318   6.983  19.546  0.00  0.00    +0.000 A 
ATOM     20  C   UNL     1       1.940   6.159  20.604  0.00  0.00    +0.000 A 
ATOM     21  C   UNL     1       1.626   4.817  20.373  0.00  0.00    +0.000 A 
ENDBRANCH  15  16
ENDBRANCH  14  15
ENDBRANCH  13  14
ENDBRANCH   2  13
TORSDOF 5
ENDMDL
MODEL 3
REMARK VINA RESULT:      -6.6      1.932      4.024
REMARK  Name = 
REMARK  6 active torsions:
REMARK  status: ('A' for Active; 'I' for Inactive)
REMARK    1  A    between atoms: C_1  and  C_2
REMARK    2  A    between atoms: C_8  and  N_9
REMARK    3  A    between atoms: C_10  and  C_12
REMARK    4  A    between atoms: C_12  and  C_13
REMARK    5  A    between atoms: C_13  and  S_14
REMARK    6  A    between atoms: S_14  and  C_15
REMARK                            x       y       z     vdW  Elec       q    Type
REMARK                         _______ _______ _______ _____ _____    ______ ____
ROOT
ATOM      1  N   UNL     1       2.812   6.702  18.186  0.00  0.00    +0.000 N 
ATOM      2  C   UNL     1       4.014   6.017  18.332  0.00  0.00    +0.000 C 
ATOM      3  O   UNL     1       4.660   5.871  19.367  0.00  0.00    +0.000 OA
ATOM      4  H   UNL     1       2.314   6.560  17.319  0.00  0.00    +0.000 HD
ENDROOT
BRANCH   1  12
ATOM      5  C   UNL     1       1.975   9.504  17.727  0.00  0.00    +0.000 C 
ATOM      6  C   UNL     1       1.713   8.743  18.998  0.00  0.00    +0.000 A 
ATOM      7  C   UNL     1       1.004   9.413  20.024  0.00  0.00    +0.000 A 
ATOM      8  C   UNL     1       0.716   8.776  21.230  0.00  0.00    +0.000 A 
ATOM      9 BR   UNL     1      -0.265   9.675  22.567  0.00  0.00    +0.000 Br
ATOM     10  C   UNL     1       1.145   7.476  21.445  0.00  0.00    +0.000 A 
ATOM     11  C   UNL     1       1.854   6.808  20.445  0.00  0.00    +0.000 A 
ATOM     12  C   UNL     1       2.129   7.411  19.209  0.00  0.00    +0.000 A 
ENDBRANCH   1  12
BRANCH   2  13
ATOM     13  C   UNL     1       4.505   5.362  17.059  0.00  0.00    +0.000 C 
BRANCH  13  14
ATOM     14  C   UNL     1       4.659   3.855  17.222  0.00  0.00    +0.000 C 
BRANCH  14  15
ATOM     15  S   UNL     1       3.029   3.025  17.172  0.00  0.00    +0.000 S 
BRANCH  15  16
ATOM     16  C   UNL     1       2.547   3.035  18.892  0.00  0.00    +0.000 A 
ATOM     17  C   UNL     1       1.220   3.361  19.197  0.00  0.00    +0.000 A 
ATOM     18  C   UNL     1       0.755   3.298  20.513  0.00  0.00    +0.000 A 
ATOM     19  C   UNL     1       1.615   2.910  21.537  0.00  0.00    +0.000 A 
ATOM     20  C   UNL     1       2.940   2.594  21.246  0.00  0.00    +0.000 A 
ATOM     21  C   UNL     1       3.405   2.654  19.929  0.00  0.00    +0.000 A 
ENDBRANCH  15  16
ENDBRANCH  14  15
ENDBRANCH  13  14
ENDBRANCH   2  13
TORSDOF 5
ENDMDL
MODEL 4
REMARK VINA RESULT:      -6.6      2.956      5.248
REMARK  Name = 
REMARK  6 active torsions:
REMARK  status: ('A' for Active; 'I' for Inactive)
REMARK    1  A    between atoms: C_1  and  C_2
REMARK    2  A    between atoms: C_8  and  N_9
REMARK    3  A    between atoms: C_10  and  C_12
REMARK    4  A    between atoms: C_12  and  C_13
REMARK    5  A    between atoms: C_13  and  S_14
REMARK    6  A    between atoms: S_14  and  C_15
REMARK                            x       y       z     vdW  Elec       q    Type
REMARK                         _______ _______ _______ _____ _____    ______ ____
ROOT
ATOM      1  N   UNL     1       5.393   4.117  17.431  0.00  0.00    +0.000 N 
ATOM      2  C   UNL     1       4.893   3.296  18.436  0.00  0.00    +0.000 C 
ATOM      3  O   UNL     1       5.019   3.453  19.648  0.00  0.00    +0.000 OA
ATOM      4  H   UNL     1       5.034   3.960  16.500  0.00  0.00    +0.000 HD
ENDROOT
BRANCH   1  12
ATOM      5  C   UNL     1       4.923   6.524  15.774  0.00  0.00    +0.000 C 
ATOM      6  C   UNL     1       5.974   6.431  16.847  0.00  0.00    +0.000 A 
ATOM      7  C   UNL     1       6.768   7.578  17.083  0.00  0.00    +0.000 A 
ATOM      8  C   UNL     1       7.758   7.576  18.063  0.00  0.00    +0.000 A 
ATOM      9 BR   UNL     1       8.777   9.131  18.387  0.00  0.00    +0.000 Br
ATOM     10  C   UNL     1       7.992   6.430  18.806  0.00  0.00    +0.000 A 
ATOM     11  C   UNL     1       7.222   5.289  18.577  0.00  0.00    +0.000 A 
ATOM     12  C   UNL     1       6.196   5.272  17.621  0.00  0.00    +0.000 A 
ENDBRANCH   1  12
BRANCH   2  13
ATOM     13  C   UNL     1       4.073   2.131  17.927  0.00  0.00    +0.000 C 
BRANCH  13  14
ATOM     14  C   UNL     1       2.979   1.737  18.911  0.00  0.00    +0.000 C 
BRANCH  14  15
ATOM     15  S   UNL     1       1.387   2.521  18.464  0.00  0.00    +0.000 S 
BRANCH  15  16
ATOM     16  C   UNL     1       1.666   4.226  18.920  0.00  0.00    +0.000 A 
ATOM     17  C   UNL     1       1.522   4.573  20.269  0.00  0.00    +0.000 A 
ATOM     18  C   UNL     1       1.814   5.868  20.706  0.00  0.00    +0.000 A 
ATOM     19  C   UNL     1       2.253   6.827  19.797  0.00  0.00    +0.000 A 
ATOM     20  C   UNL     1       2.389   6.494  18.451  0.00  0.00    +0.000 A 
ATOM     21  C   UNL     1       2.099   5.199  18.014  0.00  0.00    +0.000 A 
ENDBRANCH  15  16
ENDBRANCH  14  15
ENDBRANCH  13  14
ENDBRANCH   2  13
TORSDOF 5
ENDMDL
MODEL 5
REMARK VINA RESULT:      -6.6      1.911      4.261
REMARK  Name = 
REMARK  6 active torsions:
REMARK  status: ('A' for Active; 'I' for Inactive)
REMARK    1  A    between atoms: C_1  and  C_2
REMARK    2  A    between atoms: C_8  and  N_9
REMARK    3  A    between atoms: C_10  and  C_12
REMARK    4  A    between atoms: C_12  and  C_13
REMARK    5  A    between atoms: C_13  and  S_14
REMARK    6  A    between atoms: S_14  and  C_15
REMARK                            x       y       z     vdW  Elec       q    Type
REMARK                         _______ _______ _______ _____ _____    ______ ____
ROOT
ATOM      1  N   UNL     1       3.011   6.536  17.758  0.00  0.00    +0.000 N 
ATOM      2  C   UNL     1       4.325   6.539  17.300  0.00  0.00    +0.000 C 
ATOM      3  O   UNL     1       5.141   7.452  17.405  0.00  0.00    +0.000 OA
ATOM      4  H   UNL     1       2.541   5.643  17.772  0.00  0.00    +0.000 HD
ENDROOT
BRANCH   1  12
ATOM      5  C   UNL     1       2.201   6.309  20.595  0.00  0.00    +0.000 C 
ATOM      6  C   UNL     1       1.967   7.529  19.747  0.00  0.00    +0.000 A 
ATOM      7  C   UNL     1       1.338   8.638  20.360  0.00  0.00    +0.000 A 
ATOM      8  C   UNL     1       1.091   9.809  19.646  0.00  0.00    +0.000 A 
ATOM      9 BR   UNL     1       0.288  11.289  20.495  0.00  0.00    +0.000 Br
ATOM     10  C   UNL     1       1.444   9.889  18.308  0.00  0.00    +0.000 A 
ATOM     11  C   UNL     1       2.057   8.798  17.689  0.00  0.00    +0.000 A 
ATOM     12  C   UNL     1       2.348   7.620  18.391  0.00  0.00    +0.000 A 
ENDBRANCH   1  12
BRANCH   2  13
ATOM     13  C   UNL     1       4.755   5.238  16.659  0.00  0.00    +0.000 C 
BRANCH  13  14
ATOM     14  C   UNL     1       4.933   4.132  17.690  0.00  0.00    +0.000 C 
BRANCH  14  15
ATOM     15  S   UNL     1       3.666   2.829  17.475  0.00  0.00    +0.000 S 
BRANCH  15  16
ATOM     16  C   UNL     1       2.784   2.901  19.027  0.00  0.00    +0.000 A 
ATOM     17  C   UNL     1       1.389   3.023  18.981  0.00  0.00    +0.000 A 
ATOM     18  C   UNL     1       0.632   2.993  20.154  0.00  0.00    +0.000 A 
ATOM     19  C   UNL     1       1.264   2.841  21.386  0.00  0.00    +0.000 A 
ATOM     20  C   UNL     1       2.651   2.729  21.444  0.00  0.00    +0.000 A 
ATOM     21  C   UNL     1       3.409   2.757  20.269  0.00  0.00    +0.000 A 
ENDBRANCH  15  16
ENDBRANCH  14  15
ENDBRANCH  13  14
ENDBRANCH   2  13
TORSDOF 5
ENDMDL
MODEL 6
REMARK VINA RESULT:      -6.6      0.557      1.193
REMARK  Name = 
REMARK  6 active torsions:
REMARK  status: ('A' for Active; 'I' for Inactive)
REMARK    1  A    between atoms: C_1  and  C_2
REMARK    2  A    between atoms: C_8  and  N_9
REMARK    3  A    between atoms: C_10  and  C_12
REMARK    4  A    between atoms: C_12  and  C_13
REMARK    5  A    between atoms: C_13  and  S_14
REMARK    6  A    between atoms: S_14  and  C_15
REMARK                            x       y       z     vdW  Elec       q    Type
REMARK                         _______ _______ _______ _____ _____    ______ ____
ROOT
ATOM      1  N   UNL     1       2.692   6.024  20.277  0.00  0.00    +0.000 N 
ATOM      2  C   UNL     1       2.037   4.806  20.423  0.00  0.00    +0.000 C 
ATOM      3  O   UNL     1       0.830   4.599  20.320  0.00  0.00    +0.000 OA
ATOM      4  H   UNL     1       3.698   5.989  20.194  0.00  0.00    +0.000 HD
ENDROOT
BRANCH   1  12
ATOM      5  C   UNL     1       3.121   7.393  17.688  0.00  0.00    +0.000 C 
ATOM      6  C   UNL     1       2.259   7.935  18.795  0.00  0.00    +0.000 A 
ATOM      7  C   UNL     1       1.602   9.167  18.566  0.00  0.00    +0.000 A 
ATOM      8  C   UNL     1       0.780   9.734  19.538  0.00  0.00    +0.000 A 
ATOM      9 BR   UNL     1      -0.118  11.357  19.195  0.00  0.00    +0.000 Br
ATOM     10  C   UNL     1       0.616   9.100  20.760  0.00  0.00    +0.000 A 
ATOM     11  C   UNL     1       1.267   7.889  21.002  0.00  0.00    +0.000 A 
ATOM     12  C   UNL     1       2.073   7.278  20.031  0.00  0.00    +0.000 A 
ENDBRANCH   1  12
BRANCH   2  13
ATOM     13  C   UNL     1       2.963   3.639  20.687  0.00  0.00    +0.000 C 
BRANCH  13  14
ATOM     14  C   UNL     1       3.042   2.698  19.491  0.00  0.00    +0.000 C 
BRANCH  14  15
ATOM     15  S   UNL     1       2.935   3.630  17.920  0.00  0.00    +0.000 S 
BRANCH  15  16
ATOM     16  C   UNL     1       4.651   3.983  17.574  0.00  0.00    +0.000 A 
ATOM     17  C   UNL     1       5.094   3.840  16.253  0.00  0.00    +0.000 A 
ATOM     18  C   UNL     1       6.400   4.188  15.897  0.00  0.00    +0.000 A 
ATOM     19  C   UNL     1       7.276   4.681  16.862  0.00  0.00    +0.000 A 
ATOM     20  C   UNL     1       6.848   4.817  18.181  0.00  0.00    +0.000 A 
ATOM     21  C   UNL     1       5.541   4.471  18.535  0.00  0.00    +0.000 A 
ENDBRANCH  15  16
ENDBRANCH  14  15
ENDBRANCH  13  14
ENDBRANCH   2  13
TORSDOF 5
ENDMDL
MODEL 7
REMARK VINA RESULT:      -6.6      1.932      3.892
REMARK  Name = 
REMARK  6 active torsions:
REMARK  status: ('A' for Active; 'I' for Inactive)
REMARK    1  A    between atoms: C_1  and  C_2
REMARK    2  A    between atoms: C_8  and  N_9
REMARK    3  A    between atoms: C_10  and  C_12
REMARK    4  A    between atoms: C_12  and  C_13
REMARK    5  A    between atoms: C_13  and  S_14
REMARK    6  A    between atoms: S_14  and  C_15
REMARK                            x       y       z     vdW  Elec       q    Type
REMARK                         _______ _______ _______ _____ _____    ______ ____
ROOT
ATOM      1  N   UNL     1       2.683   6.714  18.251  0.00  0.00    +0.000 N 
ATOM      2  C   UNL     1       3.838   5.956  18.416  0.00  0.00    +0.000 C 
ATOM      3  O   UNL     1       4.457   5.773  19.461  0.00  0.00    +0.000 OA
ATOM      4  H   UNL     1       2.190   6.600  17.376  0.00  0.00    +0.000 HD
ENDROOT
BRANCH   1  12
ATOM      5  C   UNL     1       1.952   9.537  17.744  0.00  0.00    +0.000 C 
ATOM      6  C   UNL     1       1.663   8.809  19.028  0.00  0.00    +0.000 A 
ATOM      7  C   UNL     1       0.982   9.522  20.043  0.00  0.00    +0.000 A 
ATOM      8  C   UNL     1       0.670   8.918  21.259  0.00  0.00    +0.000 A 
ATOM      9 BR   UNL     1      -0.274   9.877  22.581  0.00  0.00    +0.000 Br
ATOM     10  C   UNL     1       1.050   7.607  21.496  0.00  0.00    +0.000 A 
ATOM     11  C   UNL     1       1.731   6.895  20.507  0.00  0.00    +0.000 A 
ATOM     12  C   UNL     1       2.028   7.466  19.262  0.00  0.00    +0.000 A 
ENDBRANCH   1  12
BRANCH   2  13
ATOM     13  C   UNL     1       4.308   5.269  17.153  0.00  0.00    +0.000 C 
BRANCH  13  14
ATOM     14  C   UNL     1       4.681   3.815  17.406  0.00  0.00    +0.000 C 
BRANCH  14  15
ATOM     15  S   UNL     1       3.219   2.728  17.243  0.00  0.00    +0.000 S 
BRANCH  15  16
ATOM     16  C   UNL     1       2.509   2.802  18.880  0.00  0.00    +0.000 A 
ATOM     17  C   UNL     1       3.349   2.542  19.970  0.00  0.00    +0.000 A 
ATOM     18  C   UNL     1       2.880   2.673  21.279  0.00  0.00    +0.000 A 
ATOM     19  C   UNL     1       1.564   3.066  21.511  0.00  0.00    +0.000 A 
ATOM     20  C   UNL     1       0.717   3.318  20.434  0.00  0.00    +0.000 A 
ATOM     21  C   UNL     1       1.187   3.188  19.124  0.00  0.00    +0.000 A 
ENDBRANCH  15  16
ENDBRANCH  14  15
ENDBRANCH  13  14
ENDBRANCH   2  13
TORSDOF 5
ENDMDL
MODEL 8
REMARK VINA RESULT:      -6.6      5.582      6.986
REMARK  Name = 
REMARK  6 active torsions:
REMARK  status: ('A' for Active; 'I' for Inactive)
REMARK    1  A    between atoms: C_1  and  C_2
REMARK    2  A    between atoms: C_8  and  N_9
REMARK    3  A    between atoms: C_10  and  C_12
REMARK    4  A    between atoms: C_12  and  C_13
REMARK    5  A    between atoms: C_13  and  S_14
REMARK    6  A    between atoms: S_14  and  C_15
REMARK                            x       y       z     vdW  Elec       q    Type
REMARK                         _______ _______ _______ _____ _____    ______ ____
ROOT
ATOM      1  N   UNL     1       5.471   6.588  17.356  0.00  0.00    +0.000 N 
ATOM      2  C   UNL     1       6.771   6.572  17.853  0.00  0.00    +0.000 C 
ATOM      3  O   UNL     1       7.236   5.788  18.677  0.00  0.00    +0.000 OA
ATOM      4  H   UNL     1       5.307   7.165  16.543  0.00  0.00    +0.000 HD
ENDROOT
BRANCH   1  12
ATOM      5  C   UNL     1       5.058   4.025  15.935  0.00  0.00    +0.000 C 
ATOM      6  C   UNL     1       4.218   4.492  17.092  0.00  0.00    +0.000 A 
ATOM      7  C   UNL     1       3.180   3.636  17.531  0.00  0.00    +0.000 A 
ATOM      8  C   UNL     1       2.360   3.992  18.600  0.00  0.00    +0.000 A 
ATOM      9 BR   UNL     1       1.010   2.817  19.194  0.00  0.00    +0.000 Br
ATOM     10  C   UNL     1       2.542   5.212  19.233  0.00  0.00    +0.000 A 
ATOM     11  C   UNL     1       3.556   6.070  18.803  0.00  0.00    +0.000 A 
ATOM     12  C   UNL     1       4.417   5.723  17.752  0.00  0.00    +0.000 A 
ENDBRANCH   1  12
BRANCH   2  13
ATOM     13  C   UNL     1       7.674   7.621  17.244  0.00  0.00    +0.000 C 
BRANCH  13  14
ATOM     14  C   UNL     1       8.347   8.475  18.310  0.00  0.00    +0.000 C 
BRANCH  14  15
ATOM     15  S   UNL     1       8.123  10.256  17.956  0.00  0.00    +0.000 S 
BRANCH  15  16
ATOM     16  C   UNL     1       9.608  10.968  18.650  0.00  0.00    +0.000 A 
ATOM     17  C   UNL     1      10.583  11.440  17.762  0.00  0.00    +0.000 A 
ATOM     18  C   UNL     1      11.724  12.090  18.238  0.00  0.00    +0.000 A 
ATOM     19  C   UNL     1      11.901  12.274  19.607  0.00  0.00    +0.000 A 
ATOM     20  C   UNL     1      10.942  11.798  20.499  0.00  0.00    +0.000 A 
ATOM     21  C   UNL     1       9.799  11.150  20.023  0.00  0.00    +0.000 A 
ENDBRANCH  15  16
ENDBRANCH  14  15
ENDBRANCH  13  14
ENDBRANCH   2  13
TORSDOF 5
ENDMDL
MODEL 9
REMARK VINA RESULT:      -6.5      1.755      3.001
REMARK  Name = 
REMARK  6 active torsions:
REMARK  status: ('A' for Active; 'I' for Inactive)
REMARK    1  A    between atoms: C_1  and  C_2
REMARK    2  A    between atoms: C_8  and  N_9
REMARK    3  A    between atoms: C_10  and  C_12
REMARK    4  A    between atoms: C_12  and  C_13
REMARK    5  A    between atoms: C_13  and  S_14
REMARK    6  A    between atoms: S_14  and  C_15
REMARK                            x       y       z     vdW  Elec       q    Type
REMARK                         _______ _______ _______ _____ _____    ______ ____
ROOT
ATOM      1  N   UNL     1       3.582   5.769  18.237  0.00  0.00    +0.000 N 
ATOM      2  C   UNL     1       3.129   4.615  17.606  0.00  0.00    +0.000 C 
ATOM      3  O   UNL     1       1.960   4.279  17.432  0.00  0.00    +0.000 OA
ATOM      4  H   UNL     1       4.560   5.993  18.121  0.00  0.00    +0.000 HD
ENDROOT
BRANCH   1  12
ATOM      5  C   UNL     1       2.341   5.230  20.870  0.00  0.00    +0.000 C 
ATOM      6  C   UNL     1       2.180   6.519  20.110  0.00  0.00    +0.000 A 
ATOM      7  C   UNL     1       1.400   7.536  20.710  0.00  0.00    +0.000 A 
ATOM      8  C   UNL     1       1.207   8.761  20.074  0.00  0.00    +0.000 A 
ATOM      9 BR   UNL     1       0.198  10.117  20.911  0.00  0.00    +0.000 Br
ATOM     10  C   UNL     1       1.765   8.986  18.825  0.00  0.00    +0.000 A 
ATOM     11  C   UNL     1       2.528   7.987  18.218  0.00  0.00    +0.000 A 
ATOM     12  C   UNL     1       2.767   6.758  18.849  0.00  0.00    +0.000 A 
ENDBRANCH   1  12
BRANCH   2  13
ATOM     13  C   UNL     1       4.235   3.743  17.053  0.00  0.00    +0.000 C 
BRANCH  13  14
ATOM     14  C   UNL     1       4.718   4.237  15.696  0.00  0.00    +0.000 C 
BRANCH  14  15
ATOM     15  S   UNL     1       6.525   4.009  15.524  0.00  0.00    +0.000 S 
BRANCH  15  16
ATOM     16  C   UNL     1       7.165   5.109  16.778  0.00  0.00    +0.000 A 
ATOM     17  C   UNL     1       7.109   6.486  16.529  0.00  0.00    +0.000 A 
ATOM     18  C   UNL     1       7.507   7.403  17.505  0.00  0.00    +0.000 A 
ATOM     19  C   UNL     1       7.966   6.950  18.740  0.00  0.00    +0.000 A 
ATOM     20  C   UNL     1       8.036   5.581  18.993  0.00  0.00    +0.000 A 
ATOM     21  C   UNL     1       7.636   4.664  18.017  0.00  0.00    +0.000 A 
ENDBRANCH  15  16
ENDBRANCH  14  15
ENDBRANCH  13  14
ENDBRANCH   2  13
TORSDOF 5
ENDMDL
