MODEL 1
REMARK VINA RESULT:      -8.4      0.000      0.000
REMARK  Name = 
REMARK  13 active torsions:
REMARK  status: ('A' for Active; 'I' for Inactive)
REMARK    1  A    between atoms: C_1  and  O_2
REMARK    2  A    between atoms: O_2  and  C_3
REMARK    3  A    between atoms: C_5  and  C_6
REMARK    4  A    between atoms: C_6  and  C_7
REMARK    5  A    between atoms: C_7  and  C_8
REMARK    6  A    between atoms: N_10  and  C_11
REMARK    7  A    between atoms: C_11  and  C_12
REMARK    8  A    between atoms: C_21  and  C_23
REMARK    9  A    between atoms: C_27  and  C_28
REMARK   10  A    between atoms: C_31  and  O_32
REMARK   11  A    between atoms: O_32  and  C_33
REMARK   12  A    between atoms: C_34  and  O_35
REMARK   13  A    between atoms: O_35  and  C_36
REMARK                            x       y       z     vdW  Elec       q    Type
REMARK                         _______ _______ _______ _____ _____    ______ ____
ROOT
ATOM      1  C   UNL     1       0.244  11.524  18.875  0.00  0.00    +0.000 C 
ENDROOT
BRANCH   1   2
ATOM      2  C   UNL     1      -1.238  11.394  19.136  0.00  0.00    +0.000 A 
ATOM      3  C   UNL     1      -1.891  12.255  20.051  0.00  0.00    +0.000 A 
ATOM      4  C   UNL     1      -3.283  12.481  19.983  0.00  0.00    +0.000 A 
ATOM      5  C   UNL     1      -4.006  11.816  19.002  0.00  0.00    +0.000 A 
ATOM      6  C   UNL     1      -3.368  10.807  18.246  0.00  0.00    +0.000 A 
ATOM      7  C   UNL     1      -2.004  10.570  18.309  0.00  0.00    +0.000 A 
ATOM      8  C   UNL     1      -4.269  10.416  17.111  0.00  0.00    +0.000 C 
ATOM      9  C   UNL     1      -4.746  11.837  16.831  0.00  0.00    +0.000 C 
ATOM     10  N   UNL     1      -5.061  12.348  18.189  0.00  0.00    +0.000 N 
ATOM     11  C   UNL     1      -6.434  12.333  18.476  0.00  0.00    +0.000 C 
ATOM     12  O   UNL     1      -7.286  12.187  17.596  0.00  0.00    +0.000 OA
BRANCH  11  13
ATOM     13  C   UNL     1      -6.945  12.444  19.843  0.00  0.00    +0.000 A 
ATOM     14  C   UNL     1      -7.405  11.334  20.542  0.00  0.00    +0.000 A 
ATOM     15  C   UNL     1      -7.850  11.493  21.850  0.00  0.00    +0.000 A 
ATOM     16  C   UNL     1      -7.802  12.753  22.466  0.00  0.00    +0.000 A 
ATOM     17  C   UNL     1      -7.287  13.863  21.786  0.00  0.00    +0.000 A 
ATOM     18  C   UNL     1      -7.213  15.213  22.429  0.00  0.00    +0.000 C 
ATOM     19  C   UNL     1      -6.826  13.690  20.479  0.00  0.00    +0.000 A 
ENDBRANCH  11  13
ENDBRANCH   1   2
BRANCH   1  22
ATOM     20  C   UNL     1       1.259   9.343  18.452  0.00  0.00    +0.000 C 
ATOM     21  O   UNL     1       1.243   9.037  19.642  0.00  0.00    +0.000 OA
ATOM     22  N   UNL     1       0.771  10.534  17.978  0.00  0.00    +0.000 N 
ATOM     23  H   UNL     1       0.817  10.749  16.992  0.00  0.00    +0.000 HD
BRANCH  20  24
ATOM     24  C   UNL     1       1.868   8.456  17.384  0.00  0.00    +0.000 C 
BRANCH  24  25
ATOM     25  C   UNL     1       3.265   8.047  17.830  0.00  0.00    +0.000 C 
BRANCH  25  28
ATOM     26  C   UNL     1       5.053   4.764  18.537  0.00  0.00    +0.000 A 
ATOM     27  C   UNL     1       4.775   6.058  18.067  0.00  0.00    +0.000 A 
ATOM     28  C   UNL     1       3.479   6.574  18.073  0.00  0.00    +0.000 A 
ATOM     29  C   UNL     1       2.438   5.727  18.441  0.00  0.00    +0.000 A 
ATOM     30  C   UNL     1       2.672   4.398  18.834  0.00  0.00    +0.000 A 
ATOM     31  C   UNL     1       3.992   3.906  18.902  0.00  0.00    +0.000 A 
BRANCH  26  33
ATOM     32  C   UNL     1       7.349   5.355  18.627  0.00  0.00    +0.000 C 
ATOM     33  O   UNL     1       6.353   4.332  18.612  0.00  0.00    +0.000 OA
ENDBRANCH  26  33
BRANCH  30  34
ATOM     34  O   UNL     1       1.500   3.762  19.150  0.00  0.00    +0.000 OA
ATOM     35  C   UNL     1       0.920   3.939  20.433  0.00  0.00    +0.000 C 
ENDBRANCH  30  34
BRANCH  31  36
ATOM     36  O   UNL     1       4.135   2.600  19.302  0.00  0.00    +0.000 OA
ATOM     37  C   UNL     1       3.683   1.540  18.474  0.00  0.00    +0.000 C 
ENDBRANCH  31  36
ENDBRANCH  25  28
ENDBRANCH  24  25
ENDBRANCH  20  24
ENDBRANCH   1  22
TORSDOF 9
ENDMDL
MODEL 2
REMARK VINA RESULT:      -8.0      2.947     12.144
REMARK  Name = 
REMARK  13 active torsions:
REMARK  status: ('A' for Active; 'I' for Inactive)
REMARK    1  A    between atoms: C_1  and  O_2
REMARK    2  A    between atoms: O_2  and  C_3
REMARK    3  A    between atoms: C_5  and  C_6
REMARK    4  A    between atoms: C_6  and  C_7
REMARK    5  A    between atoms: C_7  and  C_8
REMARK    6  A    between atoms: N_10  and  C_11
REMARK    7  A    between atoms: C_11  and  C_12
REMARK    8  A    between atoms: C_21  and  C_23
REMARK    9  A    between atoms: C_27  and  C_28
REMARK   10  A    between atoms: C_31  and  O_32
REMARK   11  A    between atoms: O_32  and  C_33
REMARK   12  A    between atoms: C_34  and  O_35
REMARK   13  A    between atoms: O_35  and  C_36
REMARK                            x       y       z     vdW  Elec       q    Type
REMARK                         _______ _______ _______ _____ _____    ______ ____
ROOT
ATOM      1  C   UNL     1       1.814   7.512  20.104  0.00  0.00    +0.000 C 
ENDROOT
BRANCH   1   2
ATOM      2  C   UNL     1       2.679   6.623  19.242  0.00  0.00    +0.000 A 
ATOM      3  C   UNL     1       3.001   6.993  17.913  0.00  0.00    +0.000 A 
ATOM      4  C   UNL     1       4.133   6.466  17.256  0.00  0.00    +0.000 A 
ATOM      5  C   UNL     1       4.919   5.550  17.943  0.00  0.00    +0.000 A 
ATOM      6  C   UNL     1       4.458   5.040  19.178  0.00  0.00    +0.000 A 
ATOM      7  C   UNL     1       3.343   5.546  19.830  0.00  0.00    +0.000 A 
ATOM      8  C   UNL     1       5.572   4.271  19.826  0.00  0.00    +0.000 C 
ATOM      9  C   UNL     1       6.665   5.245  19.399  0.00  0.00    +0.000 C 
ATOM     10  N   UNL     1       6.351   5.479  17.967  0.00  0.00    +0.000 N 
ATOM     11  C   UNL     1       7.172   4.744  17.099  0.00  0.00    +0.000 C 
ATOM     12  O   UNL     1       8.212   4.202  17.480  0.00  0.00    +0.000 OA
BRANCH  11  13
ATOM     13  C   UNL     1       6.827   4.535  15.692  0.00  0.00    +0.000 A 
ATOM     14  C   UNL     1       5.719   3.783  15.316  0.00  0.00    +0.000 A 
ATOM     15  C   UNL     1       5.420   3.644  13.966  0.00  0.00    +0.000 A 
ATOM     16  C   UNL     1       6.208   4.284  12.997  0.00  0.00    +0.000 A 
ATOM     17  C   UNL     1       7.291   5.087  13.371  0.00  0.00    +0.000 A 
ATOM     18  C   UNL     1       8.135   5.791  12.354  0.00  0.00    +0.000 C 
ATOM     19  C   UNL     1       7.573   5.236  14.731  0.00  0.00    +0.000 A 
ENDBRANCH  11  13
ENDBRANCH   1   2
BRANCH   1  22
ATOM     20  C   UNL     1       0.976   9.803  20.216  0.00  0.00    +0.000 C 
ATOM     21  O   UNL     1       0.927   9.790  21.443  0.00  0.00    +0.000 OA
ATOM     22  N   UNL     1       1.419   8.739  19.472  0.00  0.00    +0.000 N 
ATOM     23  H   UNL     1       1.430   8.789  18.463  0.00  0.00    +0.000 HD
BRANCH  20  24
ATOM     24  C   UNL     1       0.506  10.982  19.387  0.00  0.00    +0.000 C 
BRANCH  24  25
ATOM     25  C   UNL     1      -0.190  10.454  18.140  0.00  0.00    +0.000 C 
BRANCH  25  28
ATOM     26  C   UNL     1      -3.656  10.759  16.604  0.00  0.00    +0.000 A 
ATOM     27  C   UNL     1      -2.273  10.570  16.748  0.00  0.00    +0.000 A 
ATOM     28  C   UNL     1      -1.604  10.927  17.919  0.00  0.00    +0.000 A 
ATOM     29  C   UNL     1      -2.322  11.597  18.905  0.00  0.00    +0.000 A 
ATOM     30  C   UNL     1      -3.691  11.881  18.757  0.00  0.00    +0.000 A 
ATOM     31  C   UNL     1      -4.379  11.446  17.605  0.00  0.00    +0.000 A 
BRANCH  26  33
ATOM     32  C   UNL     1      -3.480  10.161  14.316  0.00  0.00    +0.000 C 
ATOM     33  O   UNL     1      -4.294  10.299  15.480  0.00  0.00    +0.000 OA
ENDBRANCH  26  33
BRANCH  30  34
ATOM     34  O   UNL     1      -4.179  12.544  19.852  0.00  0.00    +0.000 OA
ATOM     35  C   UNL     1      -3.354  12.738  20.990  0.00  0.00    +0.000 C 
ENDBRANCH  30  34
BRANCH  31  36
ATOM     36  O   UNL     1      -5.716  11.757  17.541  0.00  0.00    +0.000 OA
ATOM     37  C   UNL     1      -6.143  12.981  16.964  0.00  0.00    +0.000 C 
ENDBRANCH  31  36
ENDBRANCH  25  28
ENDBRANCH  24  25
ENDBRANCH  20  24
ENDBRANCH   1  22
TORSDOF 9
ENDMDL
MODEL 3
REMARK VINA RESULT:      -7.9      1.719      3.324
REMARK  Name = 
REMARK  13 active torsions:
REMARK  status: ('A' for Active; 'I' for Inactive)
REMARK    1  A    between atoms: C_1  and  O_2
REMARK    2  A    between atoms: O_2  and  C_3
REMARK    3  A    between atoms: C_5  and  C_6
REMARK    4  A    between atoms: C_6  and  C_7
REMARK    5  A    between atoms: C_7  and  C_8
REMARK    6  A    between atoms: N_10  and  C_11
REMARK    7  A    between atoms: C_11  and  C_12
REMARK    8  A    between atoms: C_21  and  C_23
REMARK    9  A    between atoms: C_27  and  C_28
REMARK   10  A    between atoms: C_31  and  O_32
REMARK   11  A    between atoms: O_32  and  C_33
REMARK   12  A    between atoms: C_34  and  O_35
REMARK   13  A    between atoms: O_35  and  C_36
REMARK                            x       y       z     vdW  Elec       q    Type
REMARK                         _______ _______ _______ _____ _____    ______ ____
ROOT
ATOM      1  C   UNL     1       1.354  11.936  18.769  0.00  0.00    +0.000 C 
ENDROOT
BRANCH   1   2
ATOM      2  C   UNL     1      -0.055  12.440  18.979  0.00  0.00    +0.000 A 
ATOM      3  C   UNL     1      -1.155  11.791  18.368  0.00  0.00    +0.000 A 
ATOM      4  C   UNL     1      -2.463  11.919  18.883  0.00  0.00    +0.000 A 
ATOM      5  C   UNL     1      -2.649  12.723  19.999  0.00  0.00    +0.000 A 
ATOM      6  C   UNL     1      -1.577  13.523  20.455  0.00  0.00    +0.000 A 
ATOM      7  C   UNL     1      -0.290  13.411  19.953  0.00  0.00    +0.000 A 
ATOM      8  C   UNL     1      -1.944  14.102  21.790  0.00  0.00    +0.000 C 
ATOM      9  C   UNL     1      -2.640  12.841  22.290  0.00  0.00    +0.000 C 
ATOM     10  N   UNL     1      -3.486  12.455  21.133  0.00  0.00    +0.000 N 
ATOM     11  C   UNL     1      -4.831  12.821  21.292  0.00  0.00    +0.000 C 
ATOM     12  O   UNL     1      -5.296  13.157  22.384  0.00  0.00    +0.000 OA
BRANCH  11  13
ATOM     13  C   UNL     1      -5.762  12.871  20.164  0.00  0.00    +0.000 A 
ATOM     14  C   UNL     1      -6.340  11.719  19.642  0.00  0.00    +0.000 A 
ATOM     15  C   UNL     1      -7.243  11.830  18.591  0.00  0.00    +0.000 A 
ATOM     16  C   UNL     1      -7.591  13.091  18.086  0.00  0.00    +0.000 A 
ATOM     17  C   UNL     1      -7.055  14.258  18.643  0.00  0.00    +0.000 A 
ATOM     18  C   UNL     1      -7.424  15.615  18.129  0.00  0.00    +0.000 C 
ATOM     19  C   UNL     1      -6.162  14.139  19.711  0.00  0.00    +0.000 A 
ENDBRANCH  11  13
ENDBRANCH   1   2
BRANCH   1  22
ATOM     20  C   UNL     1       1.457   9.501  18.605  0.00  0.00    +0.000 C 
ATOM     21  O   UNL     1       1.368   9.355  19.821  0.00  0.00    +0.000 OA
ATOM     22  N   UNL     1       1.437  10.730  17.995  0.00  0.00    +0.000 N 
ATOM     23  H   UNL     1       1.527  10.804  16.991  0.00  0.00    +0.000 HD
BRANCH  20  24
ATOM     24  C   UNL     1       1.648   8.340  17.650  0.00  0.00    +0.000 C 
BRANCH  24  25
ATOM     25  C   UNL     1       3.101   7.891  17.715  0.00  0.00    +0.000 C 
BRANCH  25  28
ATOM     26  C   UNL     1       2.435   4.309  18.809  0.00  0.00    +0.000 A 
ATOM     27  C   UNL     1       2.260   5.675  18.533  0.00  0.00    +0.000 A 
ATOM     28  C   UNL     1       3.345   6.513  18.278  0.00  0.00    +0.000 A 
ATOM     29  C   UNL     1       4.626   5.991  18.427  0.00  0.00    +0.000 A 
ATOM     30  C   UNL     1       4.839   4.649  18.787  0.00  0.00    +0.000 A 
ATOM     31  C   UNL     1       3.738   3.786  18.966  0.00  0.00    +0.000 A 
BRANCH  26  33
ATOM     32  C   UNL     1       0.830   3.365  20.278  0.00  0.00    +0.000 C 
ATOM     33  O   UNL     1       1.339   3.496  18.951  0.00  0.00    +0.000 OA
ENDBRANCH  26  33
BRANCH  30  34
ATOM     34  O   UNL     1       6.177   4.366  18.871  0.00  0.00    +0.000 OA
ATOM     35  C   UNL     1       7.125   5.422  18.901  0.00  0.00    +0.000 C 
ENDBRANCH  30  34
BRANCH  31  36
ATOM     36  O   UNL     1       4.032   2.488  19.310  0.00  0.00    +0.000 OA
ATOM     37  C   UNL     1       3.745   1.425  18.414  0.00  0.00    +0.000 C 
ENDBRANCH  31  36
ENDBRANCH  25  28
ENDBRANCH  24  25
ENDBRANCH  20  24
ENDBRANCH   1  22
TORSDOF 9
ENDMDL
MODEL 4
REMARK VINA RESULT:      -7.8      1.032      2.357
REMARK  Name = 
REMARK  13 active torsions:
REMARK  status: ('A' for Active; 'I' for Inactive)
REMARK    1  A    between atoms: C_1  and  O_2
REMARK    2  A    between atoms: O_2  and  C_3
REMARK    3  A    between atoms: C_5  and  C_6
REMARK    4  A    between atoms: C_6  and  C_7
REMARK    5  A    between atoms: C_7  and  C_8
REMARK    6  A    between atoms: N_10  and  C_11
REMARK    7  A    between atoms: C_11  and  C_12
REMARK    8  A    between atoms: C_21  and  C_23
REMARK    9  A    between atoms: C_27  and  C_28
REMARK   10  A    between atoms: C_31  and  O_32
REMARK   11  A    between atoms: O_32  and  C_33
REMARK   12  A    between atoms: C_34  and  O_35
REMARK   13  A    between atoms: O_35  and  C_36
REMARK                            x       y       z     vdW  Elec       q    Type
REMARK                         _______ _______ _______ _____ _____    ______ ____
ROOT
ATOM      1  C   UNL     1       0.267  10.738  18.576  0.00  0.00    +0.000 C 
ENDROOT
BRANCH   1   2
ATOM      2  C   UNL     1      -1.224  10.799  18.808  0.00  0.00    +0.000 A 
ATOM      3  C   UNL     1      -1.777  11.719  19.732  0.00  0.00    +0.000 A 
ATOM      4  C   UNL     1      -3.125  12.129  19.645  0.00  0.00    +0.000 A 
ATOM      5  C   UNL     1      -3.909  11.586  18.636  0.00  0.00    +0.000 A 
ATOM      6  C   UNL     1      -3.394  10.517  17.867  0.00  0.00    +0.000 A 
ATOM      7  C   UNL     1      -2.074  10.102  17.948  0.00  0.00    +0.000 A 
ATOM      8  C   UNL     1      -4.315  10.273  16.707  0.00  0.00    +0.000 C 
ATOM      9  C   UNL     1      -4.595  11.750  16.453  0.00  0.00    +0.000 C 
ATOM     10  N   UNL     1      -4.868  12.270  17.817  0.00  0.00    +0.000 N 
ATOM     11  C   UNL     1      -6.236  12.429  18.078  0.00  0.00    +0.000 C 
ATOM     12  O   UNL     1      -7.083  12.416  17.181  0.00  0.00    +0.000 OA
BRANCH  11  13
ATOM     13  C   UNL     1      -6.757  12.578  19.439  0.00  0.00    +0.000 A 
ATOM     14  C   UNL     1      -7.222  11.487  20.166  0.00  0.00    +0.000 A 
ATOM     15  C   UNL     1      -7.675  11.683  21.466  0.00  0.00    +0.000 A 
ATOM     16  C   UNL     1      -7.630  12.959  22.047  0.00  0.00    +0.000 A 
ATOM     17  C   UNL     1      -7.112  14.050  21.340  0.00  0.00    +0.000 A 
ATOM     18  C   UNL     1      -7.042  15.417  21.946  0.00  0.00    +0.000 C 
ATOM     19  C   UNL     1      -6.642  13.841  20.041  0.00  0.00    +0.000 A 
ENDBRANCH  11  13
ENDBRANCH   1   2
BRANCH   1  22
ATOM     20  C   UNL     1       1.114   9.165  20.241  0.00  0.00    +0.000 C 
ATOM     21  O   UNL     1       0.814   9.900  21.178  0.00  0.00    +0.000 OA
ATOM     22  N   UNL     1       0.865   9.482  18.930  0.00  0.00    +0.000 N 
ATOM     23  H   UNL     1       1.142   8.852  18.190  0.00  0.00    +0.000 HD
BRANCH  20  24
ATOM     24  C   UNL     1       1.839   7.847  20.431  0.00  0.00    +0.000 C 
BRANCH  24  25
ATOM     25  C   UNL     1       2.637   7.545  19.170  0.00  0.00    +0.000 C 
BRANCH  25  28
ATOM     26  C   UNL     1       2.270   3.898  18.153  0.00  0.00    +0.000 A 
ATOM     27  C   UNL     1       1.978   5.187  18.626  0.00  0.00    +0.000 A 
ATOM     28  C   UNL     1       2.988   6.096  18.939  0.00  0.00    +0.000 A 
ATOM     29  C   UNL     1       4.306   5.654  18.891  0.00  0.00    +0.000 A 
ATOM     30  C   UNL     1       4.631   4.342  18.504  0.00  0.00    +0.000 A 
ATOM     31  C   UNL     1       3.609   3.451  18.113  0.00  0.00    +0.000 A 
BRANCH  26  33
ATOM     32  C   UNL     1       0.567   2.380  18.803  0.00  0.00    +0.000 C 
ATOM     33  O   UNL     1       1.250   3.070  17.757  0.00  0.00    +0.000 OA
ENDBRANCH  26  33
BRANCH  30  34
ATOM     34  O   UNL     1       5.985   4.139  18.532  0.00  0.00    +0.000 OA
ATOM     35  C   UNL     1       6.863   5.235  18.736  0.00  0.00    +0.000 C 
ENDBRANCH  30  34
BRANCH  31  36
ATOM     36  O   UNL     1       4.010   2.190  17.742  0.00  0.00    +0.000 OA
ATOM     37  C   UNL     1       3.973   1.121  18.674  0.00  0.00    +0.000 C 
ENDBRANCH  31  36
ENDBRANCH  25  28
ENDBRANCH  24  25
ENDBRANCH  20  24
ENDBRANCH   1  22
TORSDOF 9
ENDMDL
MODEL 5
REMARK VINA RESULT:      -7.8      1.994      3.065
REMARK  Name = 
REMARK  13 active torsions:
REMARK  status: ('A' for Active; 'I' for Inactive)
REMARK    1  A    between atoms: C_1  and  O_2
REMARK    2  A    between atoms: O_2  and  C_3
REMARK    3  A    between atoms: C_5  and  C_6
REMARK    4  A    between atoms: C_6  and  C_7
REMARK    5  A    between atoms: C_7  and  C_8
REMARK    6  A    between atoms: N_10  and  C_11
REMARK    7  A    between atoms: C_11  and  C_12
REMARK    8  A    between atoms: C_21  and  C_23
REMARK    9  A    between atoms: C_27  and  C_28
REMARK   10  A    between atoms: C_31  and  O_32
REMARK   11  A    between atoms: O_32  and  C_33
REMARK   12  A    between atoms: C_34  and  O_35
REMARK   13  A    between atoms: O_35  and  C_36
REMARK                            x       y       z     vdW  Elec       q    Type
REMARK                         _______ _______ _______ _____ _____    ______ ____
ROOT
ATOM      1  C   UNL     1       1.399  12.437  18.698  0.00  0.00    +0.000 C 
ENDROOT
BRANCH   1   2
ATOM      2  C   UNL     1       0.070  12.867  19.273  0.00  0.00    +0.000 A 
ATOM      3  C   UNL     1      -1.146  12.449  18.679  0.00  0.00    +0.000 A 
ATOM      4  C   UNL     1      -2.353  12.427  19.411  0.00  0.00    +0.000 A 
ATOM      5  C   UNL     1      -2.322  12.851  20.733  0.00  0.00    +0.000 A 
ATOM      6  C   UNL     1      -1.148  13.461  21.231  0.00  0.00    +0.000 A 
ATOM      7  C   UNL     1       0.041  13.494  20.519  0.00  0.00    +0.000 A 
ATOM      8  C   UNL     1      -1.277  13.605  22.719  0.00  0.00    +0.000 C 
ATOM      9  C   UNL     1      -1.964  12.259  22.920  0.00  0.00    +0.000 C 
ATOM     10  N   UNL     1      -2.995  12.257  21.852  0.00  0.00    +0.000 N 
ATOM     11  C   UNL     1      -4.276  12.571  22.327  0.00  0.00    +0.000 C 
ATOM     12  O   UNL     1      -4.552  12.560  23.529  0.00  0.00    +0.000 OA
BRANCH  11  13
ATOM     13  C   UNL     1      -5.361  12.976  21.431  0.00  0.00    +0.000 A 
ATOM     14  C   UNL     1      -5.987  14.212  21.555  0.00  0.00    +0.000 A 
ATOM     15  C   UNL     1      -6.990  14.557  20.655  0.00  0.00    +0.000 A 
ATOM     16  C   UNL     1      -7.340  13.682  19.616  0.00  0.00    +0.000 A 
ATOM     17  C   UNL     1      -6.676  12.462  19.453  0.00  0.00    +0.000 A 
ATOM     18  C   UNL     1      -7.025  11.520  18.342  0.00  0.00    +0.000 C 
ATOM     19  C   UNL     1      -5.658  12.130  20.350  0.00  0.00    +0.000 A 
ENDBRANCH  11  13
ENDBRANCH   1   2
BRANCH   1  22
ATOM     20  C   UNL     1       1.359   9.995  18.724  0.00  0.00    +0.000 C 
ATOM     21  O   UNL     1       1.346   9.948  19.951  0.00  0.00    +0.000 OA
ATOM     22  N   UNL     1       1.364  11.172  18.019  0.00  0.00    +0.000 N 
ATOM     23  H   UNL     1       1.388  11.163  17.009  0.00  0.00    +0.000 HD
BRANCH  20  24
ATOM     24  C   UNL     1       1.422   8.755  17.855  0.00  0.00    +0.000 C 
BRANCH  24  25
ATOM     25  C   UNL     1       2.875   8.319  17.733  0.00  0.00    +0.000 C 
BRANCH  25  28
ATOM     26  C   UNL     1       4.658   4.966  17.944  0.00  0.00    +0.000 A 
ATOM     27  C   UNL     1       4.157   6.182  17.453  0.00  0.00    +0.000 A 
ATOM     28  C   UNL     1       3.179   6.899  18.141  0.00  0.00    +0.000 A 
ATOM     29  C   UNL     1       2.613   6.319  19.271  0.00  0.00    +0.000 A 
ATOM     30  C   UNL     1       3.030   5.061  19.742  0.00  0.00    +0.000 A 
ATOM     31  C   UNL     1       4.075   4.377  19.088  0.00  0.00    +0.000 A 
BRANCH  26  33
ATOM     32  C   UNL     1       5.430   3.935  15.952  0.00  0.00    +0.000 C 
ATOM     33  O   UNL     1       5.693   4.343  17.294  0.00  0.00    +0.000 OA
ENDBRANCH  26  33
BRANCH  30  34
ATOM     34  O   UNL     1       2.333   4.698  20.864  0.00  0.00    +0.000 OA
ATOM     35  C   UNL     1       1.189   3.866  20.750  0.00  0.00    +0.000 C 
ENDBRANCH  30  34
BRANCH  31  36
ATOM     36  O   UNL     1       4.428   3.158  19.616  0.00  0.00    +0.000 OA
ATOM     37  C   UNL     1       3.865   1.961  19.101  0.00  0.00    +0.000 C 
ENDBRANCH  31  36
ENDBRANCH  25  28
ENDBRANCH  24  25
ENDBRANCH  20  24
ENDBRANCH   1  22
TORSDOF 9
ENDMDL
MODEL 6
REMARK VINA RESULT:      -7.8      4.119      6.238
REMARK  Name = 
REMARK  13 active torsions:
REMARK  status: ('A' for Active; 'I' for Inactive)
REMARK    1  A    between atoms: C_1  and  O_2
REMARK    2  A    between atoms: O_2  and  C_3
REMARK    3  A    between atoms: C_5  and  C_6
REMARK    4  A    between atoms: C_6  and  C_7
REMARK    5  A    between atoms: C_7  and  C_8
REMARK    6  A    between atoms: N_10  and  C_11
REMARK    7  A    between atoms: C_11  and  C_12
REMARK    8  A    between atoms: C_21  and  C_23
REMARK    9  A    between atoms: C_27  and  C_28
REMARK   10  A    between atoms: C_31  and  O_32
REMARK   11  A    between atoms: O_32  and  C_33
REMARK   12  A    between atoms: C_34  and  O_35
REMARK   13  A    between atoms: O_35  and  C_36
REMARK                            x       y       z     vdW  Elec       q    Type
REMARK                         _______ _______ _______ _____ _____    ______ ____
ROOT
ATOM      1  C   UNL     1      -0.850  10.081  19.047  0.00  0.00    +0.000 C 
ENDROOT
BRANCH   1   2
ATOM      2  C   UNL     1      -0.246  11.418  18.688  0.00  0.00    +0.000 A 
ATOM      3  C   UNL     1      -1.068  12.556  18.493  0.00  0.00    +0.000 A 
ATOM      4  C   UNL     1      -0.553  13.864  18.619  0.00  0.00    +0.000 A 
ATOM      5  C   UNL     1       0.794  14.010  18.918  0.00  0.00    +0.000 A 
ATOM      6  C   UNL     1       1.630  12.871  18.895  0.00  0.00    +0.000 A 
ATOM      7  C   UNL     1       1.137  11.581  18.766  0.00  0.00    +0.000 A 
ATOM      8  C   UNL     1       2.962  13.240  19.479  0.00  0.00    +0.000 C 
ATOM      9  C   UNL     1       2.381  14.131  20.571  0.00  0.00    +0.000 C 
ATOM     10  N   UNL     1       1.385  14.947  19.830  0.00  0.00    +0.000 N 
ATOM     11  C   UNL     1       1.848  16.236  19.529  0.00  0.00    +0.000 C 
ATOM     12  O   UNL     1       2.844  16.720  20.073  0.00  0.00    +0.000 OA
BRANCH  11  13
ATOM     13  C   UNL     1       1.206  17.078  18.518  0.00  0.00    +0.000 A 
ATOM     14  C   UNL     1       1.851  17.416  17.333  0.00  0.00    +0.000 A 
ATOM     15  C   UNL     1       1.180  18.192  16.394  0.00  0.00    +0.000 A 
ATOM     16  C   UNL     1      -0.142  18.598  16.626  0.00  0.00    +0.000 A 
ATOM     17  C   UNL     1      -0.816  18.214  17.790  0.00  0.00    +0.000 A 
ATOM     18  C   UNL     1      -2.232  18.624  18.050  0.00  0.00    +0.000 C 
ATOM     19  C   UNL     1      -0.141  17.420  18.721  0.00  0.00    +0.000 A 
ENDBRANCH  11  13
ENDBRANCH   1   2
BRANCH   1  22
ATOM     20  C   UNL     1       0.215   8.921  20.914  0.00  0.00    +0.000 C 
ATOM     21  O   UNL     1      -0.485   9.490  21.747  0.00  0.00    +0.000 OA
ATOM     22  N   UNL     1       0.094   9.130  19.564  0.00  0.00    +0.000 N 
ATOM     23  H   UNL     1       0.701   8.649  18.915  0.00  0.00    +0.000 HD
BRANCH  20  24
ATOM     24  C   UNL     1       1.325   7.960  21.292  0.00  0.00    +0.000 C 
BRANCH  24  25
ATOM     25  C   UNL     1       2.220   7.748  20.079  0.00  0.00    +0.000 C 
BRANCH  25  28
ATOM     26  C   UNL     1       1.702   3.989  19.805  0.00  0.00    +0.000 A 
ATOM     27  C   UNL     1       1.751   5.295  20.317  0.00  0.00    +0.000 A 
ATOM     28  C   UNL     1       2.426   6.317  19.649  0.00  0.00    +0.000 A 
ATOM     29  C   UNL     1       3.163   5.985  18.516  0.00  0.00    +0.000 A 
ATOM     30  C   UNL     1       3.207   4.668  18.024  0.00  0.00    +0.000 A 
ATOM     31  C   UNL     1       2.458   3.655  18.659  0.00  0.00    +0.000 A 
BRANCH  26  33
ATOM     32  C   UNL     1       1.458   2.548  21.673  0.00  0.00    +0.000 C 
ATOM     33  O   UNL     1       0.941   3.038  20.435  0.00  0.00    +0.000 OA
ENDBRANCH  26  33
BRANCH  30  34
ATOM     34  O   UNL     1       3.992   4.585  16.905  0.00  0.00    +0.000 OA
ATOM     35  C   UNL     1       5.399   4.737  17.012  0.00  0.00    +0.000 C 
ENDBRANCH  30  34
BRANCH  31  36
ATOM     36  O   UNL     1       2.548   2.398  18.112  0.00  0.00    +0.000 OA
ATOM     37  C   UNL     1       3.579   1.511  18.517  0.00  0.00    +0.000 C 
ENDBRANCH  31  36
ENDBRANCH  25  28
ENDBRANCH  24  25
ENDBRANCH  20  24
ENDBRANCH   1  22
TORSDOF 9
ENDMDL
MODEL 7
REMARK VINA RESULT:      -7.7      1.786      3.461
REMARK  Name = 
REMARK  13 active torsions:
REMARK  status: ('A' for Active; 'I' for Inactive)
REMARK    1  A    between atoms: C_1  and  O_2
REMARK    2  A    between atoms: O_2  and  C_3
REMARK    3  A    between atoms: C_5  and  C_6
REMARK    4  A    between atoms: C_6  and  C_7
REMARK    5  A    between atoms: C_7  and  C_8
REMARK    6  A    between atoms: N_10  and  C_11
REMARK    7  A    between atoms: C_11  and  C_12
REMARK    8  A    between atoms: C_21  and  C_23
REMARK    9  A    between atoms: C_27  and  C_28
REMARK   10  A    between atoms: C_31  and  O_32
REMARK   11  A    between atoms: O_32  and  C_33
REMARK   12  A    between atoms: C_34  and  O_35
REMARK   13  A    between atoms: O_35  and  C_36
REMARK                            x       y       z     vdW  Elec       q    Type
REMARK                         _______ _______ _______ _____ _____    ______ ____
ROOT
ATOM      1  C   UNL     1       0.911  11.745  20.050  0.00  0.00    +0.000 C 
ENDROOT
BRANCH   1   2
ATOM      2  C   UNL     1      -0.457  12.376  19.944  0.00  0.00    +0.000 A 
ATOM      3  C   UNL     1      -1.397  11.912  18.991  0.00  0.00    +0.000 A 
ATOM      4  C   UNL     1      -2.782  12.131  19.157  0.00  0.00    +0.000 A 
ATOM      5  C   UNL     1      -3.201  12.837  20.276  0.00  0.00    +0.000 A 
ATOM      6  C   UNL     1      -2.235  13.469  21.092  0.00  0.00    +0.000 A 
ATOM      7  C   UNL     1      -0.872  13.267  20.934  0.00  0.00    +0.000 A 
ATOM      8  C   UNL     1      -2.905  13.951  22.344  0.00  0.00    +0.000 C 
ATOM      9  C   UNL     1      -3.807  12.730  22.486  0.00  0.00    +0.000 C 
ATOM     10  N   UNL     1      -4.334  12.553  21.109  0.00  0.00    +0.000 N 
ATOM     11  C   UNL     1      -5.638  13.045  20.954  0.00  0.00    +0.000 C 
ATOM     12  O   UNL     1      -6.355  13.321  21.919  0.00  0.00    +0.000 OA
BRANCH  11  13
ATOM     13  C   UNL     1      -6.220  13.306  19.636  0.00  0.00    +0.000 A 
ATOM     14  C   UNL     1      -6.684  12.275  18.826  0.00  0.00    +0.000 A 
ATOM     15  C   UNL     1      -7.257  12.583  17.598  0.00  0.00    +0.000 A 
ATOM     16  C   UNL     1      -7.395  13.920  17.197  0.00  0.00    +0.000 A 
ATOM     17  C   UNL     1      -6.981  14.965  18.031  0.00  0.00    +0.000 A 
ATOM     18  C   UNL     1      -7.132  16.399  17.629  0.00  0.00    +0.000 C 
ATOM     19  C   UNL     1      -6.422  14.647  19.272  0.00  0.00    +0.000 A 
ENDBRANCH  11  13
ENDBRANCH   1   2
BRANCH   1  22
ATOM     20  C   UNL     1       1.719  10.030  18.510  0.00  0.00    +0.000 C 
ATOM     21  O   UNL     1       2.408  10.830  17.884  0.00  0.00    +0.000 OA
ATOM     22  N   UNL     1       0.967  10.382  19.602  0.00  0.00    +0.000 N 
ATOM     23  H   UNL     1       0.404   9.692  20.079  0.00  0.00    +0.000 HD
BRANCH  20  24
ATOM     24  C   UNL     1       1.587   8.572  18.114  0.00  0.00    +0.000 C 
BRANCH  24  25
ATOM     25  C   UNL     1       2.962   8.048  17.724  0.00  0.00    +0.000 C 
BRANCH  25  28
ATOM     26  C   UNL     1       2.521   4.285  18.063  0.00  0.00    +0.000 A 
ATOM     27  C   UNL     1       2.244   5.659  17.984  0.00  0.00    +0.000 A 
ATOM     28  C   UNL     1       3.254   6.615  18.093  0.00  0.00    +0.000 A 
ATOM     29  C   UNL     1       4.537   6.180  18.410  0.00  0.00    +0.000 A 
ATOM     30  C   UNL     1       4.833   4.817  18.583  0.00  0.00    +0.000 A 
ATOM     31  C   UNL     1       3.824   3.849  18.393  0.00  0.00    +0.000 A 
BRANCH  26  33
ATOM     32  C   UNL     1       0.832   2.917  19.011  0.00  0.00    +0.000 C 
ATOM     33  O   UNL     1       1.519   3.374  17.846  0.00  0.00    +0.000 OA
ENDBRANCH  26  33
BRANCH  30  34
ATOM     34  O   UNL     1       6.155   4.632  18.888  0.00  0.00    +0.000 OA
ATOM     35  C   UNL     1       7.150   5.399  18.227  0.00  0.00    +0.000 C 
ENDBRANCH  30  34
BRANCH  31  36
ATOM     36  O   UNL     1       4.196   2.538  18.573  0.00  0.00    +0.000 OA
ATOM     37  C   UNL     1       4.243   1.977  19.875  0.00  0.00    +0.000 C 
ENDBRANCH  31  36
ENDBRANCH  25  28
ENDBRANCH  24  25
ENDBRANCH  20  24
ENDBRANCH   1  22
TORSDOF 9
ENDMDL
MODEL 8
REMARK VINA RESULT:      -7.7      1.979      3.654
REMARK  Name = 
REMARK  13 active torsions:
REMARK  status: ('A' for Active; 'I' for Inactive)
REMARK    1  A    between atoms: C_1  and  O_2
REMARK    2  A    between atoms: O_2  and  C_3
REMARK    3  A    between atoms: C_5  and  C_6
REMARK    4  A    between atoms: C_6  and  C_7
REMARK    5  A    between atoms: C_7  and  C_8
REMARK    6  A    between atoms: N_10  and  C_11
REMARK    7  A    between atoms: C_11  and  C_12
REMARK    8  A    between atoms: C_21  and  C_23
REMARK    9  A    between atoms: C_27  and  C_28
REMARK   10  A    between atoms: C_31  and  O_32
REMARK   11  A    between atoms: O_32  and  C_33
REMARK   12  A    between atoms: C_34  and  O_35
REMARK   13  A    between atoms: O_35  and  C_36
REMARK                            x       y       z     vdW  Elec       q    Type
REMARK                         _______ _______ _______ _____ _____    ______ ____
ROOT
ATOM      1  C   UNL     1       1.474  12.077  19.653  0.00  0.00    +0.000 C 
ENDROOT
BRANCH   1   2
ATOM      2  C   UNL     1       0.120  12.628  20.033  0.00  0.00    +0.000 A 
ATOM      3  C   UNL     1      -1.020  12.365  19.235  0.00  0.00    +0.000 A 
ATOM      4  C   UNL     1      -2.325  12.449  19.767  0.00  0.00    +0.000 A 
ATOM      5  C   UNL     1      -2.465  12.822  21.097  0.00  0.00    +0.000 A 
ATOM      6  C   UNL     1      -1.332  13.283  21.804  0.00  0.00    +0.000 A 
ATOM      7  C   UNL     1      -0.046  13.212  21.290  0.00  0.00    +0.000 A 
ATOM      8  C   UNL     1      -1.683  13.390  23.259  0.00  0.00    +0.000 C 
ATOM      9  C   UNL     1      -2.527  12.120  23.280  0.00  0.00    +0.000 C 
ATOM     10  N   UNL     1      -3.367  12.266  22.065  0.00  0.00    +0.000 N 
ATOM     11  C   UNL     1      -4.669  12.701  22.348  0.00  0.00    +0.000 C 
ATOM     12  O   UNL     1      -5.136  12.679  23.490  0.00  0.00    +0.000 OA
BRANCH  11  13
ATOM     13  C   UNL     1      -5.548  13.251  21.315  0.00  0.00    +0.000 A 
ATOM     14  C   UNL     1      -5.915  14.593  21.307  0.00  0.00    +0.000 A 
ATOM     15  C   UNL     1      -6.726  15.068  20.283  0.00  0.00    +0.000 A 
ATOM     16  C   UNL     1      -7.141  14.211  19.252  0.00  0.00    +0.000 A 
ATOM     17  C   UNL     1      -6.729  12.874  19.224  0.00  0.00    +0.000 A 
ATOM     18  C   UNL     1      -7.148  11.946  18.126  0.00  0.00    +0.000 C 
ATOM     19  C   UNL     1      -5.900  12.409  20.248  0.00  0.00    +0.000 A 
ENDBRANCH  11  13
ENDBRANCH   1   2
BRANCH   1  22
ATOM     20  C   UNL     1       1.274   9.727  19.017  0.00  0.00    +0.000 C 
ATOM     21  O   UNL     1       1.130   9.361  20.181  0.00  0.00    +0.000 OA
ATOM     22  N   UNL     1       1.428  11.042  18.659  0.00  0.00    +0.000 N 
ATOM     23  H   UNL     1       1.557  11.295  17.689  0.00  0.00    +0.000 HD
BRANCH  20  24
ATOM     24  C   UNL     1       1.347   8.756  17.855  0.00  0.00    +0.000 C 
BRANCH  24  25
ATOM     25  C   UNL     1       2.805   8.379  17.627  0.00  0.00    +0.000 C 
BRANCH  25  28
ATOM     26  C   UNL     1       2.514   4.835  18.976  0.00  0.00    +0.000 A 
ATOM     27  C   UNL     1       2.314   6.211  18.788  0.00  0.00    +0.000 A 
ATOM     28  C   UNL     1       3.200   6.983  18.036  0.00  0.00    +0.000 A 
ATOM     29  C   UNL     1       4.365   6.379  17.573  0.00  0.00    +0.000 A 
ATOM     30  C   UNL     1       4.640   5.022  17.817  0.00  0.00    +0.000 A 
ATOM     31  C   UNL     1       3.702   4.228  18.511  0.00  0.00    +0.000 A 
BRANCH  26  33
ATOM     32  C   UNL     1       1.742   3.970  21.045  0.00  0.00    +0.000 C 
ATOM     33  O   UNL     1       1.567   4.091  19.633  0.00  0.00    +0.000 OA
ENDBRANCH  26  33
BRANCH  30  34
ATOM     34  O   UNL     1       5.839   4.654  17.266  0.00  0.00    +0.000 OA
ATOM     35  C   UNL     1       5.872   4.022  15.996  0.00  0.00    +0.000 C 
ENDBRANCH  30  34
BRANCH  31  36
ATOM     36  O   UNL     1       4.043   2.910  18.701  0.00  0.00    +0.000 OA
ATOM     37  C   UNL     1       3.392   1.886  17.965  0.00  0.00    +0.000 C 
ENDBRANCH  31  36
ENDBRANCH  25  28
ENDBRANCH  24  25
ENDBRANCH  20  24
ENDBRANCH   1  22
TORSDOF 9
ENDMDL
MODEL 9
REMARK VINA RESULT:      -7.6      3.445      5.100
REMARK  Name = 
REMARK  13 active torsions:
REMARK  status: ('A' for Active; 'I' for Inactive)
REMARK    1  A    between atoms: C_1  and  O_2
REMARK    2  A    between atoms: O_2  and  C_3
REMARK    3  A    between atoms: C_5  and  C_6
REMARK    4  A    between atoms: C_6  and  C_7
REMARK    5  A    between atoms: C_7  and  C_8
REMARK    6  A    between atoms: N_10  and  C_11
REMARK    7  A    between atoms: C_11  and  C_12
REMARK    8  A    between atoms: C_21  and  C_23
REMARK    9  A    between atoms: C_27  and  C_28
REMARK   10  A    between atoms: C_31  and  O_32
REMARK   11  A    between atoms: O_32  and  C_33
REMARK   12  A    between atoms: C_34  and  O_35
REMARK   13  A    between atoms: O_35  and  C_36
REMARK                            x       y       z     vdW  Elec       q    Type
REMARK                         _______ _______ _______ _____ _____    ______ ____
ROOT
ATOM      1  C   UNL     1       1.967   7.207  20.996  0.00  0.00    +0.000 C 
ENDROOT
BRANCH   1   2
ATOM      2  C   UNL     1       1.054   8.409  20.944  0.00  0.00    +0.000 A 
ATOM      3  C   UNL     1       0.359   8.842  22.100  0.00  0.00    +0.000 A 
ATOM      4  C   UNL     1      -0.109  10.168  22.223  0.00  0.00    +0.000 A 
ATOM      5  C   UNL     1       0.110  11.039  21.164  0.00  0.00    +0.000 A 
ATOM      6  C   UNL     1       0.612  10.526  19.946  0.00  0.00    +0.000 A 
ATOM      7  C   UNL     1       1.068   9.224  19.811  0.00  0.00    +0.000 A 
ATOM      8  C   UNL     1       0.985  11.676  19.058  0.00  0.00    +0.000 C 
ATOM      9  C   UNL     1       1.553  12.530  20.186  0.00  0.00    +0.000 C 
ATOM     10  N   UNL     1       0.513  12.414  21.239  0.00  0.00    +0.000 N 
ATOM     11  C   UNL     1      -0.328  13.534  21.304  0.00  0.00    +0.000 C 
ATOM     12  O   UNL     1      -0.047  14.600  20.750  0.00  0.00    +0.000 OA
BRANCH  11  13
ATOM     13  C   UNL     1      -1.618  13.500  21.996  0.00  0.00    +0.000 A 
ATOM     14  C   UNL     1      -2.731  12.884  21.436  0.00  0.00    +0.000 A 
ATOM     15  C   UNL     1      -3.922  12.854  22.153  0.00  0.00    +0.000 A 
ATOM     16  C   UNL     1      -3.988  13.409  23.440  0.00  0.00    +0.000 A 
ATOM     17  C   UNL     1      -2.856  13.981  24.032  0.00  0.00    +0.000 A 
ATOM     18  C   UNL     1      -2.901  14.566  25.409  0.00  0.00    +0.000 C 
ATOM     19  C   UNL     1      -1.659  13.991  23.311  0.00  0.00    +0.000 A 
ENDBRANCH  11  13
ENDBRANCH   1   2
BRANCH   1  22
ATOM     20  C   UNL     1       1.675   5.125  19.752  0.00  0.00    +0.000 C 
ATOM     21  O   UNL     1       1.278   4.517  20.743  0.00  0.00    +0.000 OA
ATOM     22  N   UNL     1       2.016   6.453  19.774  0.00  0.00    +0.000 N 
ATOM     23  H   UNL     1       2.350   6.910  18.937  0.00  0.00    +0.000 HD
BRANCH  20  24
ATOM     24  C   UNL     1       1.878   4.458  18.406  0.00  0.00    +0.000 C 
BRANCH  24  25
ATOM     25  C   UNL     1       3.141   3.610  18.468  0.00  0.00    +0.000 C 
BRANCH  25  28
ATOM     26  C   UNL     1       5.718   5.470  16.378  0.00  0.00    +0.000 A 
ATOM     27  C   UNL     1       4.677   4.607  16.754  0.00  0.00    +0.000 A 
ATOM     28  C   UNL     1       4.425   4.305  18.093  0.00  0.00    +0.000 A 
ATOM     29  C   UNL     1       5.314   4.783  19.050  0.00  0.00    +0.000 A 
ATOM     30  C   UNL     1       6.419   5.580  18.700  0.00  0.00    +0.000 A 
ATOM     31  C   UNL     1       6.622   5.947  17.353  0.00  0.00    +0.000 A 
BRANCH  26  33
ATOM     32  C   UNL     1       6.524   4.867  14.230  0.00  0.00    +0.000 C 
ATOM     33  O   UNL     1       5.867   5.825  15.062  0.00  0.00    +0.000 OA
ENDBRANCH  26  33
BRANCH  30  34
ATOM     34  O   UNL     1       7.146   5.930  19.806  0.00  0.00    +0.000 OA
ATOM     35  C   UNL     1       8.294   5.178  20.168  0.00  0.00    +0.000 C 
ENDBRANCH  30  34
BRANCH  31  36
ATOM     36  O   UNL     1       7.719   6.733  17.096  0.00  0.00    +0.000 OA
ATOM     37  C   UNL     1       7.709   8.112  17.428  0.00  0.00    +0.000 C 
ENDBRANCH  31  36
ENDBRANCH  25  28
ENDBRANCH  24  25
ENDBRANCH  20  24
ENDBRANCH   1  22
TORSDOF 9
ENDMDL
