MODEL 1
REMARK VINA RESULT:      -8.7      0.000      0.000
REMARK  Name = 
REMARK  6 active torsions:
REMARK  status: ('A' for Active; 'I' for Inactive)
REMARK    1  A    between atoms: C_1  and  N_2
REMARK    2  A    between atoms: N_2  and  C_3
REMARK    3  A    between atoms: N_2  and  C_4
REMARK    4  A    between atoms: C_4  and  C_5
REMARK    5  A    between atoms: C_10  and  N_11
REMARK    6  A    between atoms: C_16  and  C_17
REMARK                            x       y       z     vdW  Elec       q    Type
REMARK                         _______ _______ _______ _____ _____    ______ ____
ROOT
ATOM      1  N   UNL     1       0.706   9.373  20.671  0.00  0.00    +0.000 N 
ATOM      2  C   UNL     1       0.949   9.346  22.040  0.00  0.00    +0.000 A 
ATOM      3  N   UNL     1       0.364  10.054  22.963  0.00  0.00    +0.000 NA
ATOM      4  C   UNL     1      -0.601  10.935  22.458  0.00  0.00    +0.000 A 
ATOM      5  C   UNL     1      -1.385  11.816  23.239  0.00  0.00    +0.000 A 
ATOM      6  C   UNL     1      -2.248  12.570  22.451  0.00  0.00    +0.000 A 
ATOM      7  S   UNL     1      -2.075  12.152  20.783  0.00  0.00    +0.000 S 
ATOM      8  C   UNL     1      -0.886  11.021  21.129  0.00  0.00    +0.000 A 
ATOM      9  C   UNL     1      -0.238  10.247  20.120  0.00  0.00    +0.000 A 
ATOM     10  O   UNL     1      -0.454  10.377  18.918  0.00  0.00    +0.000 OA
ENDROOT
BRANCH   1  16
ATOM     11  C   UNL     1       4.594   4.982  17.768  0.00  0.00    +0.000 C 
ATOM     12  C   UNL     1       3.542   4.273  18.634  0.00  0.00    +0.000 C 
ATOM     13  C   UNL     1       3.176   5.179  19.812  0.00  0.00    +0.000 C 
ATOM     14  C   UNL     1       2.713   6.533  19.344  0.00  0.00    +0.000 A 
ATOM     15  C   UNL     1       1.907   7.307  20.190  0.00  0.00    +0.000 A 
ATOM     16  C   UNL     1       1.471   8.571  19.788  0.00  0.00    +0.000 A 
ATOM     17  C   UNL     1       1.847   9.067  18.535  0.00  0.00    +0.000 A 
ATOM     18  C   UNL     1       2.657   8.308  17.692  0.00  0.00    +0.000 A 
ATOM     19  C   UNL     1       3.111   7.046  18.096  0.00  0.00    +0.000 A 
ATOM     20  C   UNL     1       3.970   6.245  17.143  0.00  0.00    +0.000 C 
BRANCH  11  21
ATOM     21  C   UNL     1       5.195   4.050  16.687  0.00  0.00    +0.000 C 
BRANCH  21  23
ATOM     22  C   UNL     1       7.016   5.049  15.396  0.00  0.00    +0.000 C 
ATOM     23  N   UNL     1       6.656   4.202  16.538  0.00  0.00    +0.000 NA
ATOM     24  C   UNL     1       7.268   4.755  17.750  0.00  0.00    +0.000 C 
ENDBRANCH  21  23
ENDBRANCH  11  21
ENDBRANCH   1  16
BRANCH   6  25
ATOM     25  C   UNL     1      -3.268  13.569  22.809  0.00  0.00    +0.000 A 
ATOM     26  C   UNL     1      -3.077  14.933  22.510  0.00  0.00    +0.000 A 
ATOM     27  C   UNL     1      -4.085  15.863  22.722  0.00  0.00    +0.000 A 
ATOM     28  C   UNL     1      -5.295  15.453  23.269  0.00  0.00    +0.000 A 
ATOM     29 CL   UNL     1      -6.552  16.602  23.514  0.00  0.00    +0.000 Cl
ATOM     30  C   UNL     1      -5.495  14.120  23.612  0.00  0.00    +0.000 A 
ATOM     31  C   UNL     1      -4.485  13.176  23.384  0.00  0.00    +0.000 A 
ENDBRANCH   6  25
TORSDOF 4
ENDMDL
MODEL 2
REMARK VINA RESULT:      -8.5      0.880      1.099
REMARK  Name = 
REMARK  6 active torsions:
REMARK  status: ('A' for Active; 'I' for Inactive)
REMARK    1  A    between atoms: C_1  and  N_2
REMARK    2  A    between atoms: N_2  and  C_3
REMARK    3  A    between atoms: N_2  and  C_4
REMARK    4  A    between atoms: C_4  and  C_5
REMARK    5  A    between atoms: C_10  and  N_11
REMARK    6  A    between atoms: C_16  and  C_17
REMARK                            x       y       z     vdW  Elec       q    Type
REMARK                         _______ _______ _______ _____ _____    ______ ____
ROOT
ATOM      1  N   UNL     1       1.088   8.903  20.459  0.00  0.00    +0.000 N 
ATOM      2  C   UNL     1       1.282   8.766  21.830  0.00  0.00    +0.000 A 
ATOM      3  N   UNL     1       0.674   9.409  22.784  0.00  0.00    +0.000 NA
ATOM      4  C   UNL     1      -0.263  10.340  22.318  0.00  0.00    +0.000 A 
ATOM      5  C   UNL     1      -1.063  11.169  23.138  0.00  0.00    +0.000 A 
ATOM      6  C   UNL     1      -1.889  11.994  22.383  0.00  0.00    +0.000 A 
ATOM      7  S   UNL     1      -1.663  11.704  20.694  0.00  0.00    +0.000 S 
ATOM      8  C   UNL     1      -0.500  10.533  20.991  0.00  0.00    +0.000 A 
ATOM      9  C   UNL     1       0.173   9.830  19.947  0.00  0.00    +0.000 A 
ATOM     10  O   UNL     1       0.000  10.056  18.752  0.00  0.00    +0.000 OA
ENDROOT
BRANCH   1  16
ATOM     11  C   UNL     1       5.009   4.686  17.352  0.00  0.00    +0.000 C 
ATOM     12  C   UNL     1       3.910   3.929  18.113  0.00  0.00    +0.000 C 
ATOM     13  C   UNL     1       3.512   4.741  19.347  0.00  0.00    +0.000 C 
ATOM     14  C   UNL     1       3.094   6.141  18.978  0.00  0.00    +0.000 A 
ATOM     15  C   UNL     1       2.269   6.858  19.853  0.00  0.00    +0.000 A 
ATOM     16  C   UNL     1       1.873   8.161  19.543  0.00  0.00    +0.000 A 
ATOM     17  C   UNL     1       2.309   8.751  18.351  0.00  0.00    +0.000 A 
ATOM     18  C   UNL     1       3.139   8.048  17.481  0.00  0.00    +0.000 A 
ATOM     19  C   UNL     1       3.553   6.747  17.794  0.00  0.00    +0.000 A 
ATOM     20  C   UNL     1       4.435   6.010  16.812  0.00  0.00    +0.000 C 
BRANCH  11  21
ATOM     21  C   UNL     1       5.637   3.834  16.221  0.00  0.00    +0.000 C 
BRANCH  21  23
ATOM     22  C   UNL     1       7.352   4.995  14.921  0.00  0.00    +0.000 C 
ATOM     23  N   UNL     1       5.938   4.616  15.005  0.00  0.00    +0.000 NA
ATOM     24  C   UNL     1       5.570   3.886  13.788  0.00  0.00    +0.000 C 
ENDBRANCH  21  23
ENDBRANCH  11  21
ENDBRANCH   1  16
BRANCH   6  25
ATOM     25  C   UNL     1      -2.909  12.977  22.783  0.00  0.00    +0.000 A 
ATOM     26  C   UNL     1      -3.122  14.146  22.024  0.00  0.00    +0.000 A 
ATOM     27  C   UNL     1      -4.166  15.012  22.315  0.00  0.00    +0.000 A 
ATOM     28  C   UNL     1      -5.000  14.744  23.393  0.00  0.00    +0.000 A 
ATOM     29 CL   UNL     1      -6.308  15.807  23.743  0.00  0.00    +0.000 Cl
ATOM     30  C   UNL     1      -4.787  13.621  24.184  0.00  0.00    +0.000 A 
ATOM     31  C   UNL     1      -3.744  12.736  23.884  0.00  0.00    +0.000 A 
ENDBRANCH   6  25
TORSDOF 4
ENDMDL
MODEL 3
REMARK VINA RESULT:      -8.4      1.159      1.706
REMARK  Name = 
REMARK  6 active torsions:
REMARK  status: ('A' for Active; 'I' for Inactive)
REMARK    1  A    between atoms: C_1  and  N_2
REMARK    2  A    between atoms: N_2  and  C_3
REMARK    3  A    between atoms: N_2  and  C_4
REMARK    4  A    between atoms: C_4  and  C_5
REMARK    5  A    between atoms: C_10  and  N_11
REMARK    6  A    between atoms: C_16  and  C_17
REMARK                            x       y       z     vdW  Elec       q    Type
REMARK                         _______ _______ _______ _____ _____    ______ ____
ROOT
ATOM      1  N   UNL     1       1.314   8.624  20.120  0.00  0.00    +0.000 N 
ATOM      2  C   UNL     1       1.396   8.350  21.481  0.00  0.00    +0.000 A 
ATOM      3  N   UNL     1       0.759   8.945  22.448  0.00  0.00    +0.000 NA
ATOM      4  C   UNL     1      -0.079   9.978  22.009  0.00  0.00    +0.000 A 
ATOM      5  C   UNL     1      -0.884  10.783  22.847  0.00  0.00    +0.000 A 
ATOM      6  C   UNL     1      -1.597  11.730  22.119  0.00  0.00    +0.000 A 
ATOM      7  S   UNL     1      -1.264  11.578  20.429  0.00  0.00    +0.000 S 
ATOM      8  C   UNL     1      -0.203  10.306  20.693  0.00  0.00    +0.000 A 
ATOM      9  C   UNL     1       0.502   9.656  19.636  0.00  0.00    +0.000 A 
ATOM     10  O   UNL     1       0.434  10.000  18.459  0.00  0.00    +0.000 OA
ENDROOT
BRANCH   1  16
ATOM     11  C   UNL     1       5.169   4.431  16.898  0.00  0.00    +0.000 C 
ATOM     12  C   UNL     1       3.961   3.693  17.494  0.00  0.00    +0.000 C 
ATOM     13  C   UNL     1       3.522   4.412  18.772  0.00  0.00    +0.000 C 
ATOM     14  C   UNL     1       3.235   5.868  18.517  0.00  0.00    +0.000 A 
ATOM     15  C   UNL     1       2.393   6.560  19.398  0.00  0.00    +0.000 A 
ATOM     16  C   UNL     1       2.118   7.914  19.193  0.00  0.00    +0.000 A 
ATOM     17  C   UNL     1       2.690   8.580  18.104  0.00  0.00    +0.000 A 
ATOM     18  C   UNL     1       3.537   7.901  17.231  0.00  0.00    +0.000 A 
ATOM     19  C   UNL     1       3.831   6.548  17.439  0.00  0.00    +0.000 A 
ATOM     20  C   UNL     1       4.736   5.842  16.455  0.00  0.00    +0.000 C 
BRANCH  11  21
ATOM     21  C   UNL     1       5.826   3.646  15.736  0.00  0.00    +0.000 C 
BRANCH  21  23
ATOM     22  C   UNL     1       7.342   4.989  14.366  0.00  0.00    +0.000 C 
ATOM     23  N   UNL     1       5.986   4.451  14.509  0.00  0.00    +0.000 NA
ATOM     24  C   UNL     1       5.653   3.679  13.308  0.00  0.00    +0.000 C 
ENDBRANCH  21  23
ENDBRANCH  11  21
ENDBRANCH   1  16
BRANCH   6  25
ATOM     25  C   UNL     1      -2.580  12.741  22.539  0.00  0.00    +0.000 A 
ATOM     26  C   UNL     1      -3.467  12.487  23.604  0.00  0.00    +0.000 A 
ATOM     27  C   UNL     1      -4.305  13.479  24.094  0.00  0.00    +0.000 A 
ATOM     28  C   UNL     1      -4.297  14.738  23.506  0.00  0.00    +0.000 A 
ATOM     29 CL   UNL     1      -5.322  15.974  24.125  0.00  0.00    +0.000 Cl
ATOM     30  C   UNL     1      -3.462  15.004  22.426  0.00  0.00    +0.000 A 
ATOM     31  C   UNL     1      -2.603  14.009  21.939  0.00  0.00    +0.000 A 
ENDBRANCH   6  25
TORSDOF 4
ENDMDL
MODEL 4
REMARK VINA RESULT:      -8.4      1.733      2.090
REMARK  Name = 
REMARK  6 active torsions:
REMARK  status: ('A' for Active; 'I' for Inactive)
REMARK    1  A    between atoms: C_1  and  N_2
REMARK    2  A    between atoms: N_2  and  C_3
REMARK    3  A    between atoms: N_2  and  C_4
REMARK    4  A    between atoms: C_4  and  C_5
REMARK    5  A    between atoms: C_10  and  N_11
REMARK    6  A    between atoms: C_16  and  C_17
REMARK                            x       y       z     vdW  Elec       q    Type
REMARK                         _______ _______ _______ _____ _____    ______ ____
ROOT
ATOM      1  N   UNL     1       0.021  10.381  19.583  0.00  0.00    +0.000 N 
ATOM      2  C   UNL     1      -1.146  10.610  18.860  0.00  0.00    +0.000 A 
ATOM      3  N   UNL     1      -2.098  11.452  19.140  0.00  0.00    +0.000 NA
ATOM      4  C   UNL     1      -1.873  12.174  20.319  0.00  0.00    +0.000 A 
ATOM      5  C   UNL     1      -2.743  13.153  20.852  0.00  0.00    +0.000 A 
ATOM      6  C   UNL     1      -2.251  13.687  22.038  0.00  0.00    +0.000 A 
ATOM      7  S   UNL     1      -0.727  12.977  22.441  0.00  0.00    +0.000 S 
ATOM      8  C   UNL     1      -0.757  11.997  21.080  0.00  0.00    +0.000 A 
ATOM      9  C   UNL     1       0.281  11.068  20.774  0.00  0.00    +0.000 A 
ATOM     10  O   UNL     1       1.253  10.868  21.499  0.00  0.00    +0.000 OA
ENDROOT
BRANCH   1  16
ATOM     11  C   UNL     1       4.274   5.437  19.043  0.00  0.00    +0.000 C 
ATOM     12  C   UNL     1       3.003   4.970  19.768  0.00  0.00    +0.000 C 
ATOM     13  C   UNL     1       2.401   6.153  20.528  0.00  0.00    +0.000 C 
ATOM     14  C   UNL     1       2.143   7.324  19.616  0.00  0.00    +0.000 A 
ATOM     15  C   UNL     1       1.193   8.283  19.991  0.00  0.00    +0.000 A 
ATOM     16  C   UNL     1       0.939   9.384  19.170  0.00  0.00    +0.000 A 
ATOM     17  C   UNL     1       1.642   9.529  17.969  0.00  0.00    +0.000 A 
ATOM     18  C   UNL     1       2.597   8.585  17.595  0.00  0.00    +0.000 A 
ATOM     19  C   UNL     1       2.868   7.487  18.422  0.00  0.00    +0.000 A 
ATOM     20  C   UNL     1       3.894   6.474  17.967  0.00  0.00    +0.000 C 
BRANCH  11  21
ATOM     21  C   UNL     1       5.077   4.258  18.439  0.00  0.00    +0.000 C 
BRANCH  21  23
ATOM     22  C   UNL     1       7.168   4.641  17.232  0.00  0.00    +0.000 C 
ATOM     23  N   UNL     1       6.538   4.440  18.540  0.00  0.00    +0.000 NA
ATOM     24  C   UNL     1       6.883   5.569  19.410  0.00  0.00    +0.000 C 
ENDBRANCH  21  23
ENDBRANCH  11  21
ENDBRANCH   1  16
BRANCH   6  25
ATOM     25  C   UNL     1      -2.773  14.744  22.918  0.00  0.00    +0.000 A 
ATOM     26  C   UNL     1      -3.338  15.918  22.380  0.00  0.00    +0.000 A 
ATOM     27  C   UNL     1      -3.951  16.860  23.195  0.00  0.00    +0.000 A 
ATOM     28  C   UNL     1      -3.982  16.663  24.570  0.00  0.00    +0.000 A 
ATOM     29 CL   UNL     1      -4.758  17.821  25.578  0.00  0.00    +0.000 Cl
ATOM     30  C   UNL     1      -3.394  15.535  25.131  0.00  0.00    +0.000 A 
ATOM     31  C   UNL     1      -2.788  14.574  24.311  0.00  0.00    +0.000 A 
ENDBRANCH   6  25
TORSDOF 4
ENDMDL
MODEL 5
REMARK VINA RESULT:      -8.3      4.300     11.582
REMARK  Name = 
REMARK  6 active torsions:
REMARK  status: ('A' for Active; 'I' for Inactive)
REMARK    1  A    between atoms: C_1  and  N_2
REMARK    2  A    between atoms: N_2  and  C_3
REMARK    3  A    between atoms: N_2  and  C_4
REMARK    4  A    between atoms: C_4  and  C_5
REMARK    5  A    between atoms: C_10  and  N_11
REMARK    6  A    between atoms: C_16  and  C_17
REMARK                            x       y       z     vdW  Elec       q    Type
REMARK                         _______ _______ _______ _____ _____    ______ ____
ROOT
ATOM      1  N   UNL     1       0.092  10.299  20.616  0.00  0.00    +0.000 N 
ATOM      2  C   UNL     1       0.230   9.278  21.551  0.00  0.00    +0.000 A 
ATOM      3  N   UNL     1       0.909   8.175  21.424  0.00  0.00    +0.000 NA
ATOM      4  C   UNL     1       1.542   8.051  20.182  0.00  0.00    +0.000 A 
ATOM      5  C   UNL     1       2.344   6.956  19.783  0.00  0.00    +0.000 A 
ATOM      6  C   UNL     1       2.827   7.118  18.488  0.00  0.00    +0.000 A 
ATOM      7  S   UNL     1       2.291   8.620  17.820  0.00  0.00    +0.000 S 
ATOM      8  C   UNL     1       1.446   9.007  19.216  0.00  0.00    +0.000 A 
ATOM      9  C   UNL     1       0.694  10.212  19.355  0.00  0.00    +0.000 A 
ATOM     10  O   UNL     1       0.559  11.038  18.456  0.00  0.00    +0.000 OA
ENDROOT
BRANCH   1  16
ATOM     11  C   UNL     1      -3.285  15.273  23.199  0.00  0.00    +0.000 C 
ATOM     12  C   UNL     1      -1.803  15.375  23.589  0.00  0.00    +0.000 C 
ATOM     13  C   UNL     1      -1.210  13.967  23.662  0.00  0.00    +0.000 C 
ATOM     14  C   UNL     1      -1.412  13.214  22.373  0.00  0.00    +0.000 A 
ATOM     15  C   UNL     1      -0.562  12.142  22.071  0.00  0.00    +0.000 A 
ATOM     16  C   UNL     1      -0.732  11.419  20.888  0.00  0.00    +0.000 A 
ATOM     17  C   UNL     1      -1.760  11.767  20.005  0.00  0.00    +0.000 A 
ATOM     18  C   UNL     1      -2.616  12.825  20.304  0.00  0.00    +0.000 A 
ATOM     19  C   UNL     1      -2.461  13.544  21.497  0.00  0.00    +0.000 A 
ATOM     20  C   UNL     1      -3.397  14.699  21.773  0.00  0.00    +0.000 C 
BRANCH  11  21
ATOM     21  C   UNL     1      -4.025  16.627  23.328  0.00  0.00    +0.000 C 
BRANCH  21  23
ATOM     22  C   UNL     1      -5.041  17.731  25.259  0.00  0.00    +0.000 C 
ATOM     23  N   UNL     1      -5.112  16.602  24.326  0.00  0.00    +0.000 NA
ATOM     24  C   UNL     1      -6.432  16.597  23.688  0.00  0.00    +0.000 C 
ENDBRANCH  21  23
ENDBRANCH  11  21
ENDBRANCH   1  16
BRANCH   6  25
ATOM     25  C   UNL     1       3.720   6.281  17.672  0.00  0.00    +0.000 A 
ATOM     26  C   UNL     1       3.565   4.880  17.639  0.00  0.00    +0.000 A 
ATOM     27  C   UNL     1       4.314   4.094  16.774  0.00  0.00    +0.000 A 
ATOM     28  C   UNL     1       5.257   4.690  15.947  0.00  0.00    +0.000 A 
ATOM     29 CL   UNL     1       6.172   3.719  14.860  0.00  0.00    +0.000 Cl
ATOM     30  C   UNL     1       5.460   6.065  15.989  0.00  0.00    +0.000 A 
ATOM     31  C   UNL     1       4.695   6.863  16.850  0.00  0.00    +0.000 A 
ENDBRANCH   6  25
TORSDOF 4
ENDMDL
MODEL 6
REMARK VINA RESULT:      -8.2      0.938      1.822
REMARK  Name = 
REMARK  6 active torsions:
REMARK  status: ('A' for Active; 'I' for Inactive)
REMARK    1  A    between atoms: C_1  and  N_2
REMARK    2  A    between atoms: N_2  and  C_3
REMARK    3  A    between atoms: N_2  and  C_4
REMARK    4  A    between atoms: C_4  and  C_5
REMARK    5  A    between atoms: C_10  and  N_11
REMARK    6  A    between atoms: C_16  and  C_17
REMARK                            x       y       z     vdW  Elec       q    Type
REMARK                         _______ _______ _______ _____ _____    ______ ____
ROOT
ATOM      1  N   UNL     1       0.502   9.131  21.225  0.00  0.00    +0.000 N 
ATOM      2  C   UNL     1       0.542   9.301  22.605  0.00  0.00    +0.000 A 
ATOM      3  N   UNL     1      -0.054  10.221  23.307  0.00  0.00    +0.000 NA
ATOM      4  C   UNL     1      -0.794  11.121  22.531  0.00  0.00    +0.000 A 
ATOM      5  C   UNL     1      -1.538  12.211  23.038  0.00  0.00    +0.000 A 
ATOM      6  C   UNL     1      -2.158  12.927  22.019  0.00  0.00    +0.000 A 
ATOM      7  S   UNL     1      -1.817  12.220  20.480  0.00  0.00    +0.000 S 
ATOM      8  C   UNL     1      -0.872  11.020  21.175  0.00  0.00    +0.000 A 
ATOM      9  C   UNL     1      -0.213  10.014  20.407  0.00  0.00    +0.000 A 
ATOM     10  O   UNL     1      -0.235   9.969  19.180  0.00  0.00    +0.000 OA
ENDROOT
BRANCH   1  16
ATOM     11  C   UNL     1       3.909   5.227  17.230  0.00  0.00    +0.000 C 
ATOM     12  C   UNL     1       4.517   6.637  17.242  0.00  0.00    +0.000 C 
ATOM     13  C   UNL     1       3.406   7.654  17.507  0.00  0.00    +0.000 C 
ATOM     14  C   UNL     1       2.660   7.341  18.778  0.00  0.00    +0.000 A 
ATOM     15  C   UNL     1       1.963   8.367  19.429  0.00  0.00    +0.000 A 
ATOM     16  C   UNL     1       1.254   8.103  20.603  0.00  0.00    +0.000 A 
ATOM     17  C   UNL     1       1.239   6.806  21.127  0.00  0.00    +0.000 A 
ATOM     18  C   UNL     1       1.922   5.779  20.479  0.00  0.00    +0.000 A 
ATOM     19  C   UNL     1       2.621   6.032  19.292  0.00  0.00    +0.000 A 
ATOM     20  C   UNL     1       3.367   4.894  18.633  0.00  0.00    +0.000 C 
BRANCH  11  21
ATOM     21  C   UNL     1       4.914   4.155  16.739  0.00  0.00    +0.000 C 
BRANCH  21  23
ATOM     22  C   UNL     1       7.315   4.494  17.058  0.00  0.00    +0.000 C 
ATOM     23  N   UNL     1       6.157   4.733  16.191  0.00  0.00    +0.000 NA
ATOM     24  C   UNL     1       6.452   4.211  14.853  0.00  0.00    +0.000 C 
ENDBRANCH  21  23
ENDBRANCH  11  21
ENDBRANCH   1  16
BRANCH   6  25
ATOM     25  C   UNL     1      -3.056  14.093  22.058  0.00  0.00    +0.000 A 
ATOM     26  C   UNL     1      -4.365  14.013  21.541  0.00  0.00    +0.000 A 
ATOM     27  C   UNL     1      -5.262  15.062  21.691  0.00  0.00    +0.000 A 
ATOM     28  C   UNL     1      -4.857  16.226  22.331  0.00  0.00    +0.000 A 
ATOM     29 CL   UNL     1      -5.974  17.519  22.535  0.00  0.00    +0.000 Cl
ATOM     30  C   UNL     1      -3.558  16.348  22.814  0.00  0.00    +0.000 A 
ATOM     31  C   UNL     1      -2.655  15.285  22.679  0.00  0.00    +0.000 A 
ENDBRANCH   6  25
TORSDOF 4
ENDMDL
MODEL 7
REMARK VINA RESULT:      -8.2      1.629      2.169
REMARK  Name = 
REMARK  6 active torsions:
REMARK  status: ('A' for Active; 'I' for Inactive)
REMARK    1  A    between atoms: C_1  and  N_2
REMARK    2  A    between atoms: N_2  and  C_3
REMARK    3  A    between atoms: N_2  and  C_4
REMARK    4  A    between atoms: C_4  and  C_5
REMARK    5  A    between atoms: C_10  and  N_11
REMARK    6  A    between atoms: C_16  and  C_17
REMARK                            x       y       z     vdW  Elec       q    Type
REMARK                         _______ _______ _______ _____ _____    ______ ____
ROOT
ATOM      1  N   UNL     1      -0.194  10.497  19.710  0.00  0.00    +0.000 N 
ATOM      2  C   UNL     1      -1.273  10.828  18.898  0.00  0.00    +0.000 A 
ATOM      3  N   UNL     1      -2.229  11.674  19.157  0.00  0.00    +0.000 NA
ATOM      4  C   UNL     1      -2.111  12.278  20.414  0.00  0.00    +0.000 A 
ATOM      5  C   UNL     1      -3.009  13.234  20.944  0.00  0.00    +0.000 A 
ATOM      6  C   UNL     1      -2.630  13.642  22.219  0.00  0.00    +0.000 A 
ATOM      7  S   UNL     1      -1.174  12.849  22.707  0.00  0.00    +0.000 S 
ATOM      8  C   UNL     1      -1.085  11.997  21.264  0.00  0.00    +0.000 A 
ATOM      9  C   UNL     1      -0.042  11.065  20.981  0.00  0.00    +0.000 A 
ATOM     10  O   UNL     1       0.843  10.769  21.779  0.00  0.00    +0.000 OA
ENDROOT
BRANCH   1  16
ATOM     11  C   UNL     1       4.077   5.568  19.181  0.00  0.00    +0.000 C 
ATOM     12  C   UNL     1       2.782   5.081  19.848  0.00  0.00    +0.000 C 
ATOM     13  C   UNL     1       2.153   6.243  20.619  0.00  0.00    +0.000 C 
ATOM     14  C   UNL     1       1.927   7.439  19.731  0.00  0.00    +0.000 A 
ATOM     15  C   UNL     1       0.964   8.388  20.100  0.00  0.00    +0.000 A 
ATOM     16  C   UNL     1       0.739   9.511  19.302  0.00  0.00    +0.000 A 
ATOM     17  C   UNL     1       1.483   9.690  18.131  0.00  0.00    +0.000 A 
ATOM     18  C   UNL     1       2.450   8.756  17.764  0.00  0.00    +0.000 A 
ATOM     19  C   UNL     1       2.693   7.635  18.569  0.00  0.00    +0.000 A 
ATOM     20  C   UNL     1       3.735   6.634  18.122  0.00  0.00    +0.000 C 
BRANCH  11  21
ATOM     21  C   UNL     1       4.901   4.406  18.573  0.00  0.00    +0.000 C 
BRANCH  21  23
ATOM     22  C   UNL     1       7.170   4.751  17.730  0.00  0.00    +0.000 C 
ATOM     23  N   UNL     1       5.737   4.824  17.430  0.00  0.00    +0.000 NA
ATOM     24  C   UNL     1       5.461   4.018  16.236  0.00  0.00    +0.000 C 
ENDBRANCH  21  23
ENDBRANCH  11  21
ENDBRANCH   1  16
BRANCH   6  25
ATOM     25  C   UNL     1      -3.215  14.633  23.136  0.00  0.00    +0.000 A 
ATOM     26  C   UNL     1      -2.407  15.331  24.056  0.00  0.00    +0.000 A 
ATOM     27  C   UNL     1      -2.924  16.359  24.832  0.00  0.00    +0.000 A 
ATOM     28  C   UNL     1      -4.269  16.689  24.728  0.00  0.00    +0.000 A 
ATOM     29 CL   UNL     1      -4.906  17.976  25.675  0.00  0.00    +0.000 Cl
ATOM     30  C   UNL     1      -5.099  15.989  23.859  0.00  0.00    +0.000 A 
ATOM     31  C   UNL     1      -4.577  14.961  23.062  0.00  0.00    +0.000 A 
ENDBRANCH   6  25
TORSDOF 4
ENDMDL
MODEL 8
REMARK VINA RESULT:      -8.2      1.596      1.771
REMARK  Name = 
REMARK  6 active torsions:
REMARK  status: ('A' for Active; 'I' for Inactive)
REMARK    1  A    between atoms: C_1  and  N_2
REMARK    2  A    between atoms: N_2  and  C_3
REMARK    3  A    between atoms: N_2  and  C_4
REMARK    4  A    between atoms: C_4  and  C_5
REMARK    5  A    between atoms: C_10  and  N_11
REMARK    6  A    between atoms: C_16  and  C_17
REMARK                            x       y       z     vdW  Elec       q    Type
REMARK                         _______ _______ _______ _____ _____    ______ ____
ROOT
ATOM      1  N   UNL     1       0.727   9.405  20.616  0.00  0.00    +0.000 N 
ATOM      2  C   UNL     1       0.029   8.846  21.681  0.00  0.00    +0.000 A 
ATOM      3  N   UNL     1      -0.670   9.470  22.585  0.00  0.00    +0.000 NA
ATOM      4  C   UNL     1      -0.674  10.861  22.421  0.00  0.00    +0.000 A 
ATOM      5  C   UNL     1      -1.354  11.776  23.258  0.00  0.00    +0.000 A 
ATOM      6  C   UNL     1      -1.160  13.090  22.846  0.00  0.00    +0.000 A 
ATOM      7  S   UNL     1      -0.165  13.147  21.433  0.00  0.00    +0.000 S 
ATOM      8  C   UNL     1      -0.007  11.477  21.406  0.00  0.00    +0.000 A 
ATOM      9  C   UNL     1       0.764  10.790  20.421  0.00  0.00    +0.000 A 
ATOM     10  O   UNL     1       1.415  11.357  19.548  0.00  0.00    +0.000 OA
ENDROOT
BRANCH   1  16
ATOM     11  C   UNL     1       4.661   5.007  17.787  0.00  0.00    +0.000 C 
ATOM     12  C   UNL     1       3.665   4.306  18.724  0.00  0.00    +0.000 C 
ATOM     13  C   UNL     1       3.308   5.256  19.869  0.00  0.00    +0.000 C 
ATOM     14  C   UNL     1       2.783   6.571  19.354  0.00  0.00    +0.000 A 
ATOM     15  C   UNL     1       1.981   7.358  20.191  0.00  0.00    +0.000 A 
ATOM     16  C   UNL     1       1.488   8.586  19.745  0.00  0.00    +0.000 A 
ATOM     17  C   UNL     1       1.802   9.032  18.456  0.00  0.00    +0.000 A 
ATOM     18  C   UNL     1       2.609   8.259  17.623  0.00  0.00    +0.000 A 
ATOM     19  C   UNL     1       3.120   7.034  18.070  0.00  0.00    +0.000 A 
ATOM     20  C   UNL     1       3.972   6.217  17.125  0.00  0.00    +0.000 C 
BRANCH  11  21
ATOM     21  C   UNL     1       5.256   4.043  16.731  0.00  0.00    +0.000 C 
BRANCH  21  23
ATOM     22  C   UNL     1       7.014   4.998  15.325  0.00  0.00    +0.000 C 
ATOM     23  N   UNL     1       6.708   4.225  16.532  0.00  0.00    +0.000 NA
ATOM     24  C   UNL     1       7.333   4.880  17.686  0.00  0.00    +0.000 C 
ENDBRANCH  21  23
ENDBRANCH  11  21
ENDBRANCH   1  16
BRANCH   6  25
ATOM     25  C   UNL     1      -1.691  14.360  23.365  0.00  0.00    +0.000 A 
ATOM     26  C   UNL     1      -2.103  14.475  24.709  0.00  0.00    +0.000 A 
ATOM     27  C   UNL     1      -2.481  15.699  25.243  0.00  0.00    +0.000 A 
ATOM     28  C   UNL     1      -2.486  16.829  24.435  0.00  0.00    +0.000 A 
ATOM     29 CL   UNL     1      -2.935  18.350  25.102  0.00  0.00    +0.000 Cl
ATOM     30  C   UNL     1      -2.125  16.737  23.095  0.00  0.00    +0.000 A 
ATOM     31  C   UNL     1      -1.728  15.506  22.557  0.00  0.00    +0.000 A 
ENDBRANCH   6  25
TORSDOF 4
ENDMDL
MODEL 9
REMARK VINA RESULT:      -8.2      1.663      2.492
REMARK  Name = 
REMARK  6 active torsions:
REMARK  status: ('A' for Active; 'I' for Inactive)
REMARK    1  A    between atoms: C_1  and  N_2
REMARK    2  A    between atoms: N_2  and  C_3
REMARK    3  A    between atoms: N_2  and  C_4
REMARK    4  A    between atoms: C_4  and  C_5
REMARK    5  A    between atoms: C_10  and  N_11
REMARK    6  A    between atoms: C_16  and  C_17
REMARK                            x       y       z     vdW  Elec       q    Type
REMARK                         _______ _______ _______ _____ _____    ______ ____
ROOT
ATOM      1  N   UNL     1      -0.220  10.367  20.501  0.00  0.00    +0.000 N 
ATOM      2  C   UNL     1      -1.059  10.845  19.501  0.00  0.00    +0.000 A 
ATOM      3  N   UNL     1      -1.938  11.801  19.594  0.00  0.00    +0.000 NA
ATOM      4  C   UNL     1      -2.011  12.366  20.873  0.00  0.00    +0.000 A 
ATOM      5  C   UNL     1      -2.876  13.419  21.248  0.00  0.00    +0.000 A 
ATOM      6  C   UNL     1      -2.723  13.757  22.590  0.00  0.00    +0.000 A 
ATOM      7  S   UNL     1      -1.507  12.777  23.330  0.00  0.00    +0.000 S 
ATOM      8  C   UNL     1      -1.225  11.943  21.902  0.00  0.00    +0.000 A 
ATOM      9  C   UNL     1      -0.267  10.891  21.798  0.00  0.00    +0.000 A 
ATOM     10  O   UNL     1       0.391  10.472  22.747  0.00  0.00    +0.000 OA
ENDROOT
BRANCH   1  16
ATOM     11  C   UNL     1       3.671   5.735  18.005  0.00  0.00    +0.000 C 
ATOM     12  C   UNL     1       4.126   7.125  17.534  0.00  0.00    +0.000 C 
ATOM     13  C   UNL     1       2.908   8.047  17.457  0.00  0.00    +0.000 C 
ATOM     14  C   UNL     1       2.171   8.100  18.770  0.00  0.00    +0.000 A 
ATOM     15  C   UNL     1       1.354   9.205  19.047  0.00  0.00    +0.000 A 
ATOM     16  C   UNL     1       0.650   9.277  20.251  0.00  0.00    +0.000 A 
ATOM     17  C   UNL     1       0.760   8.237  21.181  0.00  0.00    +0.000 A 
ATOM     18  C   UNL     1       1.562   7.131  20.907  0.00  0.00    +0.000 A 
ATOM     19  C   UNL     1       2.257   7.044  19.694  0.00  0.00    +0.000 A 
ATOM     20  C   UNL     1       3.134   5.837  19.446  0.00  0.00    +0.000 C 
BRANCH  11  21
ATOM     21  C   UNL     1       4.794   4.675  17.889  0.00  0.00    +0.000 C 
BRANCH  21  23
ATOM     22  C   UNL     1       7.159   4.802  17.283  0.00  0.00    +0.000 C 
ATOM     23  N   UNL     1       5.777   4.985  16.832  0.00  0.00    +0.000 NA
ATOM     24  C   UNL     1       5.558   4.167  15.635  0.00  0.00    +0.000 C 
ENDBRANCH  21  23
ENDBRANCH  11  21
ENDBRANCH   1  16
BRANCH   6  25
ATOM     25  C   UNL     1      -3.361  14.799  23.409  0.00  0.00    +0.000 A 
ATOM     26  C   UNL     1      -2.585  15.678  24.192  0.00  0.00    +0.000 A 
ATOM     27  C   UNL     1      -3.165  16.745  24.863  0.00  0.00    +0.000 A 
ATOM     28  C   UNL     1      -4.539  16.938  24.792  0.00  0.00    +0.000 A 
ATOM     29 CL   UNL     1      -5.256  18.272  25.607  0.00  0.00    +0.000 Cl
ATOM     30  C   UNL     1      -5.334  16.061  24.060  0.00  0.00    +0.000 A 
ATOM     31  C   UNL     1      -4.750  14.992  23.369  0.00  0.00    +0.000 A 
ENDBRANCH   6  25
TORSDOF 4
ENDMDL
