MODEL 1
REMARK VINA RESULT:      -6.9      0.000      0.000
REMARK  Name = 
REMARK  4 active torsions:
REMARK  status: ('A' for Active; 'I' for Inactive)
REMARK    1  A    between atoms: C_1  and  N_2
REMARK    2  A    between atoms: C_4  and  C_5
REMARK    3  A    between atoms: C_12  and  C_13
REMARK    4  A    between atoms: C_13  and  N_14
REMARK                            x       y       z     vdW  Elec       q    Type
REMARK                         _______ _______ _______ _____ _____    ______ ____
ROOT
ATOM      1  C   UNL     1       7.767   5.585  19.134  0.00  0.00    +0.000 C 
ATOM      2  N   UNL     1       6.903   5.222  18.035  0.00  0.00    +0.000 N 
ATOM      3  N   UNL     1       7.460   4.999  16.835  0.00  0.00    +0.000 NA
ATOM      4  C   UNL     1       6.431   4.773  16.005  0.00  0.00    +0.000 A 
ATOM      5  C   UNL     1       5.210   4.794  16.726  0.00  0.00    +0.000 A 
ATOM      6  C   UNL     1       5.538   5.075  18.038  0.00  0.00    +0.000 A 
ENDROOT
BRANCH   4   7
ATOM      7  C   UNL     1       6.632   4.551  14.574  0.00  0.00    +0.000 A 
ATOM      8  C   UNL     1       7.608   5.273  13.871  0.00  0.00    +0.000 A 
ATOM      9  C   UNL     1       7.784   5.083  12.498  0.00  0.00    +0.000 A 
ATOM     10  C   UNL     1       6.983   4.170  11.814  0.00  0.00    +0.000 A 
ATOM     11  C   UNL     1       6.012   3.444  12.501  0.00  0.00    +0.000 A 
ATOM     12  C   UNL     1       5.839   3.630  13.875  0.00  0.00    +0.000 A 
ENDBRANCH   4   7
BRANCH   6  13
ATOM     13  C   UNL     1       4.673   5.179  19.241  0.00  0.00    +0.000 C 
BRANCH  13  14
ATOM     14  N   UNL     1       3.499   4.327  19.144  0.00  0.00    +0.000 N 
ATOM     15  C   UNL     1       2.213   4.738  18.920  0.00  0.00    +0.000 A 
ATOM     16  C   UNL     1       1.447   3.604  19.064  0.00  0.00    +0.000 A 
ATOM     17  N   UNL     1       2.234   2.521  19.363  0.00  0.00    +0.000 NA
ATOM     18  C   UNL     1       3.464   2.986  19.404  0.00  0.00    +0.000 A 
ENDBRANCH  13  14
ENDBRANCH   6  13
TORSDOF 3
ENDMDL
MODEL 2
REMARK VINA RESULT:      -6.9      0.930      1.461
REMARK  Name = 
REMARK  4 active torsions:
REMARK  status: ('A' for Active; 'I' for Inactive)
REMARK    1  A    between atoms: C_1  and  N_2
REMARK    2  A    between atoms: C_4  and  C_5
REMARK    3  A    between atoms: C_12  and  C_13
REMARK    4  A    between atoms: C_13  and  N_14
REMARK                            x       y       z     vdW  Elec       q    Type
REMARK                         _______ _______ _______ _____ _____    ______ ____
ROOT
ATOM      1  C   UNL     1       7.830   7.071  18.121  0.00  0.00    +0.000 C 
ATOM      2  N   UNL     1       7.174   6.032  17.362  0.00  0.00    +0.000 N 
ATOM      3  N   UNL     1       7.473   5.911  16.059  0.00  0.00    +0.000 NA
ATOM      4  C   UNL     1       6.665   4.944  15.601  0.00  0.00    +0.000 A 
ATOM      5  C   UNL     1       5.893   4.409  16.664  0.00  0.00    +0.000 A 
ATOM      6  C   UNL     1       6.246   5.119  17.795  0.00  0.00    +0.000 A 
ENDROOT
BRANCH   4   7
ATOM      7  C   UNL     1       6.646   4.562  14.190  0.00  0.00    +0.000 A 
ATOM      8  C   UNL     1       5.714   3.627  13.717  0.00  0.00    +0.000 A 
ATOM      9  C   UNL     1       5.712   3.241  12.374  0.00  0.00    +0.000 A 
ATOM     10  C   UNL     1       6.644   3.783  11.492  0.00  0.00    +0.000 A 
ATOM     11  C   UNL     1       7.575   4.715  11.949  0.00  0.00    +0.000 A 
ATOM     12  C   UNL     1       7.575   5.106  13.290  0.00  0.00    +0.000 A 
ENDBRANCH   4   7
BRANCH   6  13
ATOM     13  C   UNL     1       5.793   4.967  19.202  0.00  0.00    +0.000 C 
BRANCH  13  14
ATOM     14  N   UNL     1       4.536   4.244  19.295  0.00  0.00    +0.000 N 
ATOM     15  C   UNL     1       3.280   4.788  19.260  0.00  0.00    +0.000 A 
ATOM     16  C   UNL     1       2.431   3.741  19.535  0.00  0.00    +0.000 A 
ATOM     17  N   UNL     1       3.136   2.581  19.729  0.00  0.00    +0.000 NA
ATOM     18  C   UNL     1       4.400   2.914  19.578  0.00  0.00    +0.000 A 
ENDBRANCH  13  14
ENDBRANCH   6  13
TORSDOF 3
ENDMDL
MODEL 3
REMARK VINA RESULT:      -6.9      0.682      1.513
REMARK  Name = 
REMARK  4 active torsions:
REMARK  status: ('A' for Active; 'I' for Inactive)
REMARK    1  A    between atoms: C_1  and  N_2
REMARK    2  A    between atoms: C_4  and  C_5
REMARK    3  A    between atoms: C_12  and  C_13
REMARK    4  A    between atoms: C_13  and  N_14
REMARK                            x       y       z     vdW  Elec       q    Type
REMARK                         _______ _______ _______ _____ _____    ______ ____
ROOT
ATOM      1  C   UNL     1       7.614   5.941  18.936  0.00  0.00    +0.000 C 
ATOM      2  N   UNL     1       6.889   5.250  17.896  0.00  0.00    +0.000 N 
ATOM      3  N   UNL     1       7.398   5.256  16.654  0.00  0.00    +0.000 NA
ATOM      4  C   UNL     1       6.486   4.628  15.898  0.00  0.00    +0.000 A 
ATOM      5  C   UNL     1       5.417   4.165  16.705  0.00  0.00    +0.000 A 
ATOM      6  C   UNL     1       5.702   4.568  17.996  0.00  0.00    +0.000 A 
ENDROOT
BRANCH   4   7
ATOM      7  C   UNL     1       6.652   4.489  14.452  0.00  0.00    +0.000 A 
ATOM      8  C   UNL     1       5.873   3.573  13.730  0.00  0.00    +0.000 A 
ATOM      9  C   UNL     1       6.048   3.420  12.352  0.00  0.00    +0.000 A 
ATOM     10  C   UNL     1       7.007   4.177  11.683  0.00  0.00    +0.000 A 
ATOM     11  C   UNL     1       7.786   5.093  12.389  0.00  0.00    +0.000 A 
ATOM     12  C   UNL     1       7.608   5.251  13.765  0.00  0.00    +0.000 A 
ENDBRANCH   4   7
BRANCH   6  13
ATOM     13  C   UNL     1       4.961   4.329  19.261  0.00  0.00    +0.000 C 
BRANCH  13  14
ATOM     14  N   UNL     1       3.683   3.677  19.028  0.00  0.00    +0.000 N 
ATOM     15  C   UNL     1       3.422   2.338  19.136  0.00  0.00    +0.000 A 
ATOM     16  C   UNL     1       2.133   2.188  18.675  0.00  0.00    +0.000 A 
ATOM     17  N   UNL     1       1.609   3.398  18.297  0.00  0.00    +0.000 NA
ATOM     18  C   UNL     1       2.563   4.275  18.522  0.00  0.00    +0.000 A 
ENDBRANCH  13  14
ENDBRANCH   6  13
TORSDOF 3
ENDMDL
MODEL 4
REMARK VINA RESULT:      -6.7      1.077      1.810
REMARK  Name = 
REMARK  4 active torsions:
REMARK  status: ('A' for Active; 'I' for Inactive)
REMARK    1  A    between atoms: C_1  and  N_2
REMARK    2  A    between atoms: C_4  and  C_5
REMARK    3  A    between atoms: C_12  and  C_13
REMARK    4  A    between atoms: C_13  and  N_14
REMARK                            x       y       z     vdW  Elec       q    Type
REMARK                         _______ _______ _______ _____ _____    ______ ____
ROOT
ATOM      1  C   UNL     1       7.297   5.633  19.184  0.00  0.00    +0.000 C 
ATOM      2  N   UNL     1       6.659   4.992  18.058  0.00  0.00    +0.000 N 
ATOM      3  N   UNL     1       7.237   5.102  16.852  0.00  0.00    +0.000 NA
ATOM      4  C   UNL     1       6.395   4.497  16.001  0.00  0.00    +0.000 A 
ATOM      5  C   UNL     1       5.299   3.943  16.711  0.00  0.00    +0.000 A 
ATOM      6  C   UNL     1       5.495   4.265  18.040  0.00  0.00    +0.000 A 
ENDROOT
BRANCH   4   7
ATOM      7  C   UNL     1       6.648   4.465  14.562  0.00  0.00    +0.000 A 
ATOM      8  C   UNL     1       5.958   3.564  13.737  0.00  0.00    +0.000 A 
ATOM      9  C   UNL     1       6.218   3.513  12.365  0.00  0.00    +0.000 A 
ATOM     10  C   UNL     1       7.173   4.359  11.805  0.00  0.00    +0.000 A 
ATOM     11  C   UNL     1       7.864   5.260  12.613  0.00  0.00    +0.000 A 
ATOM     12  C   UNL     1       7.601   5.316  13.984  0.00  0.00    +0.000 A 
ENDBRANCH   4   7
BRANCH   6  13
ATOM     13  C   UNL     1       4.692   3.914  19.240  0.00  0.00    +0.000 C 
BRANCH  13  14
ATOM     14  N   UNL     1       3.630   4.875  19.485  0.00  0.00    +0.000 N 
ATOM     15  C   UNL     1       3.535   6.134  18.955  0.00  0.00    +0.000 A 
ATOM     16  C   UNL     1       2.457   6.707  19.592  0.00  0.00    +0.000 A 
ATOM     17  N   UNL     1       1.899   5.830  20.487  0.00  0.00    +0.000 NA
ATOM     18  C   UNL     1       2.624   4.736  20.399  0.00  0.00    +0.000 A 
ENDBRANCH  13  14
ENDBRANCH   6  13
TORSDOF 3
ENDMDL
MODEL 5
REMARK VINA RESULT:      -6.7      1.769      6.487
REMARK  Name = 
REMARK  4 active torsions:
REMARK  status: ('A' for Active; 'I' for Inactive)
REMARK    1  A    between atoms: C_1  and  N_2
REMARK    2  A    between atoms: C_4  and  C_5
REMARK    3  A    between atoms: C_12  and  C_13
REMARK    4  A    between atoms: C_13  and  N_14
REMARK                            x       y       z     vdW  Elec       q    Type
REMARK                         _______ _______ _______ _____ _____    ______ ____
ROOT
ATOM      1  C   UNL     1       7.633   4.603  17.788  0.00  0.00    +0.000 C 
ATOM      2  N   UNL     1       6.195   4.718  17.867  0.00  0.00    +0.000 N 
ATOM      3  N   UNL     1       5.575   4.210  18.943  0.00  0.00    +0.000 NA
ATOM      4  C   UNL     1       4.266   4.378  18.706  0.00  0.00    +0.000 A 
ATOM      5  C   UNL     1       4.075   5.065  17.480  0.00  0.00    +0.000 A 
ATOM      6  C   UNL     1       5.336   5.285  16.959  0.00  0.00    +0.000 A 
ENDROOT
BRANCH   4   7
ATOM      7  C   UNL     1       3.248   3.886  19.633  0.00  0.00    +0.000 A 
ATOM      8  C   UNL     1       3.550   2.865  20.547  0.00  0.00    +0.000 A 
ATOM      9  C   UNL     1       2.572   2.375  21.416  0.00  0.00    +0.000 A 
ATOM     10  C   UNL     1       1.281   2.896  21.376  0.00  0.00    +0.000 A 
ATOM     11  C   UNL     1       0.968   3.912  20.474  0.00  0.00    +0.000 A 
ATOM     12  C   UNL     1       1.947   4.407  19.609  0.00  0.00    +0.000 A 
ENDBRANCH   4   7
BRANCH   6  13
ATOM     13  C   UNL     1       5.752   5.995  15.722  0.00  0.00    +0.000 C 
BRANCH  13  14
ATOM     14  N   UNL     1       6.115   5.071  14.660  0.00  0.00    +0.000 N 
ATOM     15  C   UNL     1       7.280   5.074  13.943  0.00  0.00    +0.000 A 
ATOM     16  C   UNL     1       7.098   4.124  12.964  0.00  0.00    +0.000 A 
ATOM     17  N   UNL     1       5.859   3.545  13.072  0.00  0.00    +0.000 NA
ATOM     18  C   UNL     1       5.291   4.134  14.102  0.00  0.00    +0.000 A 
ENDBRANCH  13  14
ENDBRANCH   6  13
TORSDOF 3
ENDMDL
MODEL 6
REMARK VINA RESULT:      -6.7      1.506      1.759
REMARK  Name = 
REMARK  4 active torsions:
REMARK  status: ('A' for Active; 'I' for Inactive)
REMARK    1  A    between atoms: C_1  and  N_2
REMARK    2  A    between atoms: C_4  and  C_5
REMARK    3  A    between atoms: C_12  and  C_13
REMARK    4  A    between atoms: C_13  and  N_14
REMARK                            x       y       z     vdW  Elec       q    Type
REMARK                         _______ _______ _______ _____ _____    ______ ____
ROOT
ATOM      1  C   UNL     1       3.707   6.569  18.006  0.00  0.00    +0.000 C 
ATOM      2  N   UNL     1       4.436   5.511  17.346  0.00  0.00    +0.000 N 
ATOM      3  N   UNL     1       4.936   5.750  16.124  0.00  0.00    +0.000 NA
ATOM      4  C   UNL     1       5.472   4.585  15.730  0.00  0.00    +0.000 A 
ATOM      5  C   UNL     1       5.357   3.620  16.762  0.00  0.00    +0.000 A 
ATOM      6  C   UNL     1       4.694   4.243  17.803  0.00  0.00    +0.000 A 
ENDROOT
BRANCH   4   7
ATOM      7  C   UNL     1       6.067   4.423  14.404  0.00  0.00    +0.000 A 
ATOM      8  C   UNL     1       7.217   5.142  14.046  0.00  0.00    +0.000 A 
ATOM      9  C   UNL     1       7.772   5.009  12.771  0.00  0.00    +0.000 A 
ATOM     10  C   UNL     1       7.179   4.160  11.839  0.00  0.00    +0.000 A 
ATOM     11  C   UNL     1       6.037   3.438  12.182  0.00  0.00    +0.000 A 
ATOM     12  C   UNL     1       5.485   3.566  13.459  0.00  0.00    +0.000 A 
ENDBRANCH   4   7
BRANCH   6  13
ATOM     13  C   UNL     1       4.334   3.733  19.151  0.00  0.00    +0.000 C 
BRANCH  13  14
ATOM     14  N   UNL     1       2.955   3.277  19.210  0.00  0.00    +0.000 N 
ATOM     15  C   UNL     1       2.393   2.288  18.449  0.00  0.00    +0.000 A 
ATOM     16  C   UNL     1       1.051   2.325  18.753  0.00  0.00    +0.000 A 
ATOM     17  N   UNL     1       0.788   3.303  19.678  0.00  0.00    +0.000 NA
ATOM     18  C   UNL     1       1.953   3.858  19.935  0.00  0.00    +0.000 A 
ENDBRANCH  13  14
ENDBRANCH   6  13
TORSDOF 3
ENDMDL
MODEL 7
REMARK VINA RESULT:      -6.7      2.734      6.673
REMARK  Name = 
REMARK  4 active torsions:
REMARK  status: ('A' for Active; 'I' for Inactive)
REMARK    1  A    between atoms: C_1  and  N_2
REMARK    2  A    between atoms: C_4  and  C_5
REMARK    3  A    between atoms: C_12  and  C_13
REMARK    4  A    between atoms: C_13  and  N_14
REMARK                            x       y       z     vdW  Elec       q    Type
REMARK                         _______ _______ _______ _____ _____    ______ ____
ROOT
ATOM      1  C   UNL     1       3.228   3.025  19.806  0.00  0.00    +0.000 C 
ATOM      2  N   UNL     1       3.447   4.378  19.349  0.00  0.00    +0.000 N 
ATOM      3  N   UNL     1       2.534   5.310  19.664  0.00  0.00    +0.000 NA
ATOM      4  C   UNL     1       2.944   6.427  19.045  0.00  0.00    +0.000 A 
ATOM      5  C   UNL     1       4.177   6.193  18.383  0.00  0.00    +0.000 A 
ATOM      6  C   UNL     1       4.489   4.865  18.602  0.00  0.00    +0.000 A 
ENDROOT
BRANCH   4   7
ATOM      7  C   UNL     1       2.166   7.663  19.095  0.00  0.00    +0.000 A 
ATOM      8  C   UNL     1       1.991   8.442  17.942  0.00  0.00    +0.000 A 
ATOM      9  C   UNL     1       1.270   9.638  17.992  0.00  0.00    +0.000 A 
ATOM     10  C   UNL     1       0.720  10.069  19.198  0.00  0.00    +0.000 A 
ATOM     11  C   UNL     1       0.885   9.302  20.351  0.00  0.00    +0.000 A 
ATOM     12  C   UNL     1       1.600   8.104  20.300  0.00  0.00    +0.000 A 
ENDBRANCH   4   7
BRANCH   6  13
ATOM     13  C   UNL     1       5.679   4.079  18.185  0.00  0.00    +0.000 C 
BRANCH  13  14
ATOM     14  N   UNL     1       6.146   4.458  16.862  0.00  0.00    +0.000 N 
ATOM     15  C   UNL     1       5.785   3.878  15.676  0.00  0.00    +0.000 A 
ATOM     16  C   UNL     1       6.593   4.468  14.731  0.00  0.00    +0.000 A 
ATOM     17  N   UNL     1       7.427   5.389  15.311  0.00  0.00    +0.000 NA
ATOM     18  C   UNL     1       7.134   5.362  16.593  0.00  0.00    +0.000 A 
ENDBRANCH  13  14
ENDBRANCH   6  13
TORSDOF 3
ENDMDL
MODEL 8
REMARK VINA RESULT:      -6.6      1.369      1.906
REMARK  Name = 
REMARK  4 active torsions:
REMARK  status: ('A' for Active; 'I' for Inactive)
REMARK    1  A    between atoms: C_1  and  N_2
REMARK    2  A    between atoms: C_4  and  C_5
REMARK    3  A    between atoms: C_12  and  C_13
REMARK    4  A    between atoms: C_13  and  N_14
REMARK                            x       y       z     vdW  Elec       q    Type
REMARK                         _______ _______ _______ _____ _____    ______ ____
ROOT
ATOM      1  C   UNL     1       3.807   7.262  17.730  0.00  0.00    +0.000 C 
ATOM      2  N   UNL     1       4.487   6.110  17.185  0.00  0.00    +0.000 N 
ATOM      3  N   UNL     1       4.981   6.192  15.941  0.00  0.00    +0.000 NA
ATOM      4  C   UNL     1       5.468   4.972  15.673  0.00  0.00    +0.000 A 
ATOM      5  C   UNL     1       5.328   4.131  16.808  0.00  0.00    +0.000 A 
ATOM      6  C   UNL     1       4.702   4.890  17.777  0.00  0.00    +0.000 A 
ENDROOT
BRANCH   4   7
ATOM      7  C   UNL     1       6.040   4.641  14.369  0.00  0.00    +0.000 A 
ATOM      8  C   UNL     1       5.409   3.712  13.530  0.00  0.00    +0.000 A 
ATOM      9  C   UNL     1       5.968   3.374  12.294  0.00  0.00    +0.000 A 
ATOM     10  C   UNL     1       7.165   3.959  11.888  0.00  0.00    +0.000 A 
ATOM     11  C   UNL     1       7.801   4.886  12.713  0.00  0.00    +0.000 A 
ATOM     12  C   UNL     1       7.241   5.229  13.946  0.00  0.00    +0.000 A 
ENDBRANCH   4   7
BRANCH   6  13
ATOM     13  C   UNL     1       4.338   4.547  19.177  0.00  0.00    +0.000 C 
BRANCH  13  14
ATOM     14  N   UNL     1       3.094   3.798  19.248  0.00  0.00    +0.000 N 
ATOM     15  C   UNL     1       1.829   4.317  19.190  0.00  0.00    +0.000 A 
ATOM     16  C   UNL     1       0.996   3.252  19.452  0.00  0.00    +0.000 A 
ATOM     17  N   UNL     1       1.722   2.108  19.662  0.00  0.00    +0.000 NA
ATOM     18  C   UNL     1       2.981   2.467  19.532  0.00  0.00    +0.000 A 
ENDBRANCH  13  14
ENDBRANCH   6  13
TORSDOF 3
ENDMDL
MODEL 9
REMARK VINA RESULT:      -6.6      2.600      6.658
REMARK  Name = 
REMARK  4 active torsions:
REMARK  status: ('A' for Active; 'I' for Inactive)
REMARK    1  A    between atoms: C_1  and  N_2
REMARK    2  A    between atoms: C_4  and  C_5
REMARK    3  A    between atoms: C_12  and  C_13
REMARK    4  A    between atoms: C_13  and  N_14
REMARK                            x       y       z     vdW  Elec       q    Type
REMARK                         _______ _______ _______ _____ _____    ______ ____
ROOT
ATOM      1  C   UNL     1       2.779   2.490  18.937  0.00  0.00    +0.000 C 
ATOM      2  N   UNL     1       3.098   3.846  18.553  0.00  0.00    +0.000 N 
ATOM      3  N   UNL     1       2.408   4.847  19.121  0.00  0.00    +0.000 NA
ATOM      4  C   UNL     1       2.849   5.962  18.521  0.00  0.00    +0.000 A 
ATOM      5  C   UNL     1       3.883   5.647  17.604  0.00  0.00    +0.000 A 
ATOM      6  C   UNL     1       4.037   4.275  17.648  0.00  0.00    +0.000 A 
ENDROOT
BRANCH   4   7
ATOM      7  C   UNL     1       2.282   7.275  18.828  0.00  0.00    +0.000 A 
ATOM      8  C   UNL     1       1.833   7.572  20.123  0.00  0.00    +0.000 A 
ATOM      9  C   UNL     1       1.266   8.815  20.413  0.00  0.00    +0.000 A 
ATOM     10  C   UNL     1       1.138   9.773  19.409  0.00  0.00    +0.000 A 
ATOM     11  C   UNL     1       1.582   9.491  18.118  0.00  0.00    +0.000 A 
ATOM     12  C   UNL     1       2.154   8.250  17.828  0.00  0.00    +0.000 A 
ENDBRANCH   4   7
BRANCH   6  13
ATOM     13  C   UNL     1       4.997   3.394  16.935  0.00  0.00    +0.000 C 
BRANCH  13  14
ATOM     14  N   UNL     1       5.785   4.127  15.957  0.00  0.00    +0.000 N 
ATOM     15  C   UNL     1       5.564   4.176  14.607  0.00  0.00    +0.000 A 
ATOM     16  C   UNL     1       6.645   4.857  14.095  0.00  0.00    +0.000 A 
ATOM     17  N   UNL     1       7.509   5.222  15.096  0.00  0.00    +0.000 NA
ATOM     18  C   UNL     1       6.965   4.770  16.205  0.00  0.00    +0.000 A 
ENDBRANCH  13  14
ENDBRANCH   6  13
TORSDOF 3
ENDMDL
