MODEL 1
REMARK VINA RESULT:      -7.5      0.000      0.000
REMARK  Name = 
REMARK  9 active torsions:
REMARK  status: ('A' for Active; 'I' for Inactive)
REMARK    1  A    between atoms: C_1  and  C_2
REMARK    2  A    between atoms: C_4  and  C_5
REMARK    3  A    between atoms: N_7  and  N_8
REMARK    4  A    between atoms: N_8  and  S_9
REMARK    5  A    between atoms: S_9  and  C_12
REMARK    6  A    between atoms: N_20  and  C_21
REMARK    7  A    between atoms: C_21  and  C_22
REMARK    8  A    between atoms: C_21  and  C_23
REMARK    9  A    between atoms: C_21  and  C_24
REMARK                            x       y       z     vdW  Elec       q    Type
REMARK                         _______ _______ _______ _____ _____    ______ ____
ROOT
ATOM      1  C   UNL     1       2.044   7.730  19.929  0.00  0.00    +0.000 C 
ATOM      2  O   UNL     1       2.047   8.743  19.229  0.00  0.00    +0.000 OA
ATOM      3  N   UNL     1       1.856   7.771  21.298  0.00  0.00    +0.000 N 
ATOM      4  H   UNL     1       1.766   6.896  21.817  0.00  0.00    +0.000 HD
ENDROOT
BRANCH   1   8
ATOM      5  C   UNL     1       3.257   3.780  16.982  0.00  0.00    +0.000 C 
ATOM      6  C   UNL     1       2.748   4.637  18.083  0.00  0.00    +0.000 A 
ATOM      7  C   UNL     1       2.792   6.016  18.156  0.00  0.00    +0.000 A 
ATOM      8  C   UNL     1       2.210   6.370  19.390  0.00  0.00    +0.000 A 
ATOM      9  N   UNL     1       1.801   5.272  20.049  0.00  0.00    +0.000 NA
ATOM     10  N   UNL     1       2.139   4.219  19.252  0.00  0.00    +0.000 N 
BRANCH  10  11
ATOM     11  C   UNL     1       1.819   2.846  19.719  0.00  0.00    +0.000 C 
ATOM     12  C   UNL     1       3.059   1.916  19.620  0.00  0.00    +0.000 C 
ATOM     13  C   UNL     1       1.384   2.845  21.197  0.00  0.00    +0.000 C 
ATOM     14  C   UNL     1       0.717   2.198  18.856  0.00  0.00    +0.000 C 
ENDBRANCH  10  11
ENDBRANCH   1   8
BRANCH   3  15
ATOM     15  N   UNL     1       1.590   9.048  21.967  0.00  0.00    +0.000 NA
ATOM     16  H   UNL     1       2.281   9.794  21.837  0.00  0.00    +0.000 HD
BRANCH  15  17
ATOM     17  S   UNL     1      -0.033   9.462  22.210  0.00  0.00    +0.000 S 
ATOM     18  O   UNL     1      -0.822   8.277  21.939  0.00  0.00    +0.000 OA
ATOM     19  O   UNL     1      -0.128  10.147  23.479  0.00  0.00    +0.000 OA
BRANCH  17  20
ATOM     20  C   UNL     1      -0.366  10.637  20.914  0.00  0.00    +0.000 A 
ATOM     21  C   UNL     1       0.021  11.976  21.070  0.00  0.00    +0.000 A 
ATOM     22  C   UNL     1      -0.123  12.866  20.003  0.00  0.00    +0.000 A 
ATOM     23  C   UNL     1      -0.640  12.412  18.791  0.00  0.00    +0.000 A 
ATOM     24  F   UNL     1      -0.761  13.265  17.764  0.00  0.00    +0.000 F 
ATOM     25  C   UNL     1      -1.017  11.082  18.625  0.00  0.00    +0.000 A 
ATOM     26  C   UNL     1      -0.877  10.186  19.689  0.00  0.00    +0.000 A 
ENDBRANCH  17  20
ENDBRANCH  15  17
ENDBRANCH   3  15
TORSDOF 5
ENDMDL
MODEL 2
REMARK VINA RESULT:      -7.4      1.224      1.607
REMARK  Name = 
REMARK  9 active torsions:
REMARK  status: ('A' for Active; 'I' for Inactive)
REMARK    1  A    between atoms: C_1  and  C_2
REMARK    2  A    between atoms: C_4  and  C_5
REMARK    3  A    between atoms: N_7  and  N_8
REMARK    4  A    between atoms: N_8  and  S_9
REMARK    5  A    between atoms: S_9  and  C_12
REMARK    6  A    between atoms: N_20  and  C_21
REMARK    7  A    between atoms: C_21  and  C_22
REMARK    8  A    between atoms: C_21  and  C_23
REMARK    9  A    between atoms: C_21  and  C_24
REMARK                            x       y       z     vdW  Elec       q    Type
REMARK                         _______ _______ _______ _____ _____    ______ ____
ROOT
ATOM      1  C   UNL     1       1.972   7.868  19.806  0.00  0.00    +0.000 C 
ATOM      2  O   UNL     1       1.751   8.781  19.010  0.00  0.00    +0.000 OA
ATOM      3  N   UNL     1       1.897   8.040  21.176  0.00  0.00    +0.000 N 
ATOM      4  H   UNL     1       1.995   7.228  21.789  0.00  0.00    +0.000 HD
ENDROOT
BRANCH   1   8
ATOM      5  C   UNL     1       3.492   3.823  17.144  0.00  0.00    +0.000 C 
ATOM      6  C   UNL     1       2.984   4.721  18.213  0.00  0.00    +0.000 A 
ATOM      7  C   UNL     1       2.783   6.085  18.131  0.00  0.00    +0.000 A 
ATOM      8  C   UNL     1       2.313   6.496  19.395  0.00  0.00    +0.000 A 
ATOM      9  N   UNL     1       2.203   5.441  20.222  0.00  0.00    +0.000 NA
ATOM     10  N   UNL     1       2.621   4.364  19.499  0.00  0.00    +0.000 N 
BRANCH  10  11
ATOM     11  C   UNL     1       2.623   3.031  20.151  0.00  0.00    +0.000 C 
ATOM     12  C   UNL     1       1.717   2.028  19.384  0.00  0.00    +0.000 C 
ATOM     13  C   UNL     1       4.037   2.420  20.172  0.00  0.00    +0.000 C 
ATOM     14  C   UNL     1       2.072   3.104  21.590  0.00  0.00    +0.000 C 
ENDBRANCH  10  11
ENDBRANCH   1   8
BRANCH   3  15
ATOM     15  N   UNL     1       1.482   9.331  21.735  0.00  0.00    +0.000 NA
ATOM     16  H   UNL     1       1.794  10.174  21.240  0.00  0.00    +0.000 HD
BRANCH  15  17
ATOM     17  S   UNL     1       0.015   9.366  22.577  0.00  0.00    +0.000 S 
ATOM     18  O   UNL     1      -0.754   8.216  22.146  0.00  0.00    +0.000 OA
ATOM     19  O   UNL     1       0.314   9.581  23.975  0.00  0.00    +0.000 OA
BRANCH  17  20
ATOM     20  C   UNL     1      -0.796  10.821  21.949  0.00  0.00    +0.000 A 
ATOM     21  C   UNL     1      -1.377  11.736  22.839  0.00  0.00    +0.000 A 
ATOM     22  C   UNL     1      -1.897  12.938  22.354  0.00  0.00    +0.000 A 
ATOM     23  C   UNL     1      -1.824  13.222  20.991  0.00  0.00    +0.000 A 
ATOM     24  F   UNL     1      -2.308  14.383  20.532  0.00  0.00    +0.000 F 
ATOM     25  C   UNL     1      -1.239  12.323  20.102  0.00  0.00    +0.000 A 
ATOM     26  C   UNL     1      -0.719  11.117  20.581  0.00  0.00    +0.000 A 
ENDBRANCH  17  20
ENDBRANCH  15  17
ENDBRANCH   3  15
TORSDOF 5
ENDMDL
MODEL 3
REMARK VINA RESULT:      -7.4      0.146      1.325
REMARK  Name = 
REMARK  9 active torsions:
REMARK  status: ('A' for Active; 'I' for Inactive)
REMARK    1  A    between atoms: C_1  and  C_2
REMARK    2  A    between atoms: C_4  and  C_5
REMARK    3  A    between atoms: N_7  and  N_8
REMARK    4  A    between atoms: N_8  and  S_9
REMARK    5  A    between atoms: S_9  and  C_12
REMARK    6  A    between atoms: N_20  and  C_21
REMARK    7  A    between atoms: C_21  and  C_22
REMARK    8  A    between atoms: C_21  and  C_23
REMARK    9  A    between atoms: C_21  and  C_24
REMARK                            x       y       z     vdW  Elec       q    Type
REMARK                         _______ _______ _______ _____ _____    ______ ____
ROOT
ATOM      1  C   UNL     1       2.097   7.657  19.953  0.00  0.00    +0.000 C 
ATOM      2  O   UNL     1       2.142   8.686  19.279  0.00  0.00    +0.000 OA
ATOM      3  N   UNL     1       1.874   7.667  21.318  0.00  0.00    +0.000 N 
ATOM      4  H   UNL     1       1.751   6.782  21.812  0.00  0.00    +0.000 HD
ENDROOT
BRANCH   1   8
ATOM      5  C   UNL     1       3.239   3.760  16.908  0.00  0.00    +0.000 C 
ATOM      6  C   UNL     1       2.755   4.597  18.035  0.00  0.00    +0.000 A 
ATOM      7  C   UNL     1       2.805   5.975  18.133  0.00  0.00    +0.000 A 
ATOM      8  C   UNL     1       2.248   6.306  19.385  0.00  0.00    +0.000 A 
ATOM      9  N   UNL     1       1.847   5.197  20.030  0.00  0.00    +0.000 NA
ATOM     10  N   UNL     1       2.165   4.158  19.207  0.00  0.00    +0.000 N 
BRANCH  10  11
ATOM     11  C   UNL     1       1.849   2.779  19.652  0.00  0.00    +0.000 C 
ATOM     12  C   UNL     1       1.421   2.754  21.145  0.00  0.00    +0.000 C 
ATOM     13  C   UNL     1       0.676   2.187  18.848  0.00  0.00    +0.000 C 
ATOM     14  C   UNL     1       3.075   1.851  19.533  0.00  0.00    +0.000 C 
ENDBRANCH  10  11
ENDBRANCH   1   8
BRANCH   3  15
ATOM     15  N   UNL     1       1.618   8.934  22.012  0.00  0.00    +0.000 NA
ATOM     16  H   UNL     1       2.365   9.637  21.988  0.00  0.00    +0.000 HD
BRANCH  15  17
ATOM     17  S   UNL     1       0.008   9.446  22.103  0.00  0.00    +0.000 S 
ATOM     18  O   UNL     1      -0.824   8.293  21.824  0.00  0.00    +0.000 OA
ATOM     19  O   UNL     1      -0.147  10.199  23.327  0.00  0.00    +0.000 OA
BRANCH  17  20
ATOM     20  C   UNL     1      -0.154  10.570  20.731  0.00  0.00    +0.000 A 
ATOM     21  C   UNL     1      -0.878  10.184  19.594  0.00  0.00    +0.000 A 
ATOM     22  C   UNL     1      -1.114  11.112  18.577  0.00  0.00    +0.000 A 
ATOM     23  C   UNL     1      -0.637  12.415  18.706  0.00  0.00    +0.000 A 
ATOM     24  F   UNL     1      -0.879  13.306  17.736  0.00  0.00    +0.000 F 
ATOM     25  C   UNL     1       0.074  12.809  19.838  0.00  0.00    +0.000 A 
ATOM     26  C   UNL     1       0.316  11.885  20.858  0.00  0.00    +0.000 A 
ENDBRANCH  17  20
ENDBRANCH  15  17
ENDBRANCH   3  15
TORSDOF 5
ENDMDL
MODEL 4
REMARK VINA RESULT:      -7.2      2.398      3.186
REMARK  Name = 
REMARK  9 active torsions:
REMARK  status: ('A' for Active; 'I' for Inactive)
REMARK    1  A    between atoms: C_1  and  C_2
REMARK    2  A    between atoms: C_4  and  C_5
REMARK    3  A    between atoms: N_7  and  N_8
REMARK    4  A    between atoms: N_8  and  S_9
REMARK    5  A    between atoms: S_9  and  C_12
REMARK    6  A    between atoms: N_20  and  C_21
REMARK    7  A    between atoms: C_21  and  C_22
REMARK    8  A    between atoms: C_21  and  C_23
REMARK    9  A    between atoms: C_21  and  C_24
REMARK                            x       y       z     vdW  Elec       q    Type
REMARK                         _______ _______ _______ _____ _____    ______ ____
ROOT
ATOM      1  C   UNL     1       1.994   8.454  18.439  0.00  0.00    +0.000 C 
ATOM      2  O   UNL     1       2.247   8.864  17.306  0.00  0.00    +0.000 OA
ATOM      3  N   UNL     1       1.402   9.248  19.404  0.00  0.00    +0.000 N 
ATOM      4  H   UNL     1       1.126   8.832  20.295  0.00  0.00    +0.000 HD
ENDROOT
BRANCH   1   8
ATOM      5  C   UNL     1       2.236   4.184  21.171  0.00  0.00    +0.000 C 
ATOM      6  C   UNL     1       2.366   5.202  20.097  0.00  0.00    +0.000 A 
ATOM      7  C   UNL     1       1.941   6.515  20.136  0.00  0.00    +0.000 A 
ATOM      8  C   UNL     1       2.265   7.077  18.884  0.00  0.00    +0.000 A 
ATOM      9  N   UNL     1       2.882   6.170  18.107  0.00  0.00    +0.000 NA
ATOM     10  N   UNL     1       2.934   5.027  18.848  0.00  0.00    +0.000 N 
BRANCH  10  11
ATOM     11  C   UNL     1       3.562   3.823  18.249  0.00  0.00    +0.000 C 
ATOM     12  C   UNL     1       2.509   2.709  17.993  0.00  0.00    +0.000 C 
ATOM     13  C   UNL     1       4.202   4.145  16.886  0.00  0.00    +0.000 C 
ATOM     14  C   UNL     1       4.624   3.214  19.186  0.00  0.00    +0.000 C 
ENDBRANCH  10  11
ENDBRANCH   1   8
BRANCH   3  15
ATOM     15  N   UNL     1       0.993  10.619  19.080  0.00  0.00    +0.000 NA
ATOM     16  H   UNL     1       1.250  10.974  18.153  0.00  0.00    +0.000 HD
BRANCH  15  17
ATOM     17  S   UNL     1      -0.415  11.194  19.822  0.00  0.00    +0.000 S 
ATOM     18  O   UNL     1      -0.694  10.322  20.945  0.00  0.00    +0.000 OA
ATOM     19  O   UNL     1      -0.267  12.620  20.004  0.00  0.00    +0.000 OA
BRANCH  17  20
ATOM     20  C   UNL     1      -1.678  10.915  18.598  0.00  0.00    +0.000 A 
ATOM     21  C   UNL     1      -2.871  11.651  18.646  0.00  0.00    +0.000 A 
ATOM     22  C   UNL     1      -3.803  11.525  17.614  0.00  0.00    +0.000 A 
ATOM     23  C   UNL     1      -3.534  10.677  16.541  0.00  0.00    +0.000 A 
ATOM     24  F   UNL     1      -4.423  10.572  15.544  0.00  0.00    +0.000 F 
ATOM     25  C   UNL     1      -2.347   9.951  16.480  0.00  0.00    +0.000 A 
ATOM     26  C   UNL     1      -1.411  10.071  17.511  0.00  0.00    +0.000 A 
ENDBRANCH  17  20
ENDBRANCH  15  17
ENDBRANCH   3  15
TORSDOF 5
ENDMDL
MODEL 5
REMARK VINA RESULT:      -7.2      2.002      2.432
REMARK  Name = 
REMARK  9 active torsions:
REMARK  status: ('A' for Active; 'I' for Inactive)
REMARK    1  A    between atoms: C_1  and  C_2
REMARK    2  A    between atoms: C_4  and  C_5
REMARK    3  A    between atoms: N_7  and  N_8
REMARK    4  A    between atoms: N_8  and  S_9
REMARK    5  A    between atoms: S_9  and  C_12
REMARK    6  A    between atoms: N_20  and  C_21
REMARK    7  A    between atoms: C_21  and  C_22
REMARK    8  A    between atoms: C_21  and  C_23
REMARK    9  A    between atoms: C_21  and  C_24
REMARK                            x       y       z     vdW  Elec       q    Type
REMARK                         _______ _______ _______ _____ _____    ______ ____
ROOT
ATOM      1  C   UNL     1       2.375   8.171  18.113  0.00  0.00    +0.000 C 
ATOM      2  O   UNL     1       2.607   8.869  17.126  0.00  0.00    +0.000 OA
ATOM      3  N   UNL     1       1.758   8.666  19.247  0.00  0.00    +0.000 N 
ATOM      4  H   UNL     1       1.502   8.023  19.999  0.00  0.00    +0.000 HD
ENDROOT
BRANCH   1   8
ATOM      5  C   UNL     1       4.548   3.634  17.444  0.00  0.00    +0.000 C 
ATOM      6  C   UNL     1       3.664   4.743  17.885  0.00  0.00    +0.000 A 
ATOM      7  C   UNL     1       3.722   6.065  17.489  0.00  0.00    +0.000 A 
ATOM      8  C   UNL     1       2.699   6.736  18.188  0.00  0.00    +0.000 A 
ATOM      9  N   UNL     1       2.018   5.877  18.967  0.00  0.00    +0.000 NA
ATOM     10  N   UNL     1       2.615   4.666  18.784  0.00  0.00    +0.000 N 
BRANCH  10  11
ATOM     11  C   UNL     1       2.086   3.496  19.528  0.00  0.00    +0.000 C 
ATOM     12  C   UNL     1       3.208   2.788  20.335  0.00  0.00    +0.000 C 
ATOM     13  C   UNL     1       1.011   3.921  20.547  0.00  0.00    +0.000 C 
ATOM     14  C   UNL     1       1.500   2.437  18.573  0.00  0.00    +0.000 C 
ENDBRANCH  10  11
ENDBRANCH   1   8
BRANCH   3  15
ATOM     15  N   UNL     1       1.296  10.057  19.287  0.00  0.00    +0.000 NA
ATOM     16  H   UNL     1       1.546  10.653  18.490  0.00  0.00    +0.000 HD
BRANCH  15  17
ATOM     17  S   UNL     1      -0.140  10.364  20.127  0.00  0.00    +0.000 S 
ATOM     18  O   UNL     1      -0.510   9.139  20.806  0.00  0.00    +0.000 OA
ATOM     19  O   UNL     1       0.032  11.599  20.858  0.00  0.00    +0.000 OA
BRANCH  17  20
ATOM     20  C   UNL     1      -1.332  10.643  18.834  0.00  0.00    +0.000 A 
ATOM     21  C   UNL     1      -1.268   9.892  17.651  0.00  0.00    +0.000 A 
ATOM     22  C   UNL     1      -2.278  10.020  16.695  0.00  0.00    +0.000 A 
ATOM     23  C   UNL     1      -3.346  10.883  16.930  0.00  0.00    +0.000 A 
ATOM     24  F   UNL     1      -4.322  10.991  16.019  0.00  0.00    +0.000 F 
ATOM     25  C   UNL     1      -3.423  11.625  18.107  0.00  0.00    +0.000 A 
ATOM     26  C   UNL     1      -2.414  11.503  19.067  0.00  0.00    +0.000 A 
ENDBRANCH  17  20
ENDBRANCH  15  17
ENDBRANCH   3  15
TORSDOF 5
ENDMDL
MODEL 6
REMARK VINA RESULT:      -7.2      2.495      3.162
REMARK  Name = 
REMARK  9 active torsions:
REMARK  status: ('A' for Active; 'I' for Inactive)
REMARK    1  A    between atoms: C_1  and  C_2
REMARK    2  A    between atoms: C_4  and  C_5
REMARK    3  A    between atoms: N_7  and  N_8
REMARK    4  A    between atoms: N_8  and  S_9
REMARK    5  A    between atoms: S_9  and  C_12
REMARK    6  A    between atoms: N_20  and  C_21
REMARK    7  A    between atoms: C_21  and  C_22
REMARK    8  A    between atoms: C_21  and  C_23
REMARK    9  A    between atoms: C_21  and  C_24
REMARK                            x       y       z     vdW  Elec       q    Type
REMARK                         _______ _______ _______ _____ _____    ______ ____
ROOT
ATOM      1  C   UNL     1       2.470   8.060  18.057  0.00  0.00    +0.000 C 
ATOM      2  O   UNL     1       3.179   8.415  17.115  0.00  0.00    +0.000 OA
ATOM      3  N   UNL     1       1.491   8.872  18.601  0.00  0.00    +0.000 N 
ATOM      4  H   UNL     1       0.868   8.494  19.316  0.00  0.00    +0.000 HD
ENDROOT
BRANCH   1   8
ATOM      5  C   UNL     1       2.156   4.203  21.340  0.00  0.00    +0.000 C 
ATOM      6  C   UNL     1       2.419   5.041  20.143  0.00  0.00    +0.000 A 
ATOM      7  C   UNL     1       2.164   6.391  19.996  0.00  0.00    +0.000 A 
ATOM      8  C   UNL     1       2.562   6.733  18.688  0.00  0.00    +0.000 A 
ATOM      9  N   UNL     1       3.062   5.659  18.052  0.00  0.00    +0.000 NA
ATOM     10  N   UNL     1       2.965   4.629  18.940  0.00  0.00    +0.000 N 
BRANCH  10  11
ATOM     11  C   UNL     1       3.437   3.286  18.522  0.00  0.00    +0.000 C 
ATOM     12  C   UNL     1       4.238   3.360  17.192  0.00  0.00    +0.000 C 
ATOM     13  C   UNL     1       4.383   2.673  19.572  0.00  0.00    +0.000 C 
ATOM     14  C   UNL     1       2.257   2.326  18.268  0.00  0.00    +0.000 C 
ENDBRANCH  10  11
ENDBRANCH   1   8
BRANCH   3  15
ATOM     15  N   UNL     1       1.223  10.192  18.020  0.00  0.00    +0.000 NA
ATOM     16  H   UNL     1       1.110  10.237  17.002  0.00  0.00    +0.000 HD
BRANCH  15  17
ATOM     17  S   UNL     1       0.395  11.302  18.992  0.00  0.00    +0.000 S 
ATOM     18  O   UNL     1       0.548  10.868  20.365  0.00  0.00    +0.000 OA
ATOM     19  O   UNL     1       0.791  12.630  18.581  0.00  0.00    +0.000 OA
BRANCH  17  20
ATOM     20  C   UNL     1      -1.311  11.065  18.541  0.00  0.00    +0.000 A 
ATOM     21  C   UNL     1      -2.304  11.875  19.111  0.00  0.00    +0.000 A 
ATOM     22  C   UNL     1      -3.622  11.775  18.661  0.00  0.00    +0.000 A 
ATOM     23  C   UNL     1      -3.937  10.879  17.640  0.00  0.00    +0.000 A 
ATOM     24  F   UNL     1      -5.199  10.798  17.199  0.00  0.00    +0.000 F 
ATOM     25  C   UNL     1      -2.955  10.079  17.061  0.00  0.00    +0.000 A 
ATOM     26  C   UNL     1      -1.634  10.172  17.509  0.00  0.00    +0.000 A 
ENDBRANCH  17  20
ENDBRANCH  15  17
ENDBRANCH   3  15
TORSDOF 5
ENDMDL
MODEL 7
REMARK VINA RESULT:      -7.2      4.193      8.144
REMARK  Name = 
REMARK  9 active torsions:
REMARK  status: ('A' for Active; 'I' for Inactive)
REMARK    1  A    between atoms: C_1  and  C_2
REMARK    2  A    between atoms: C_4  and  C_5
REMARK    3  A    between atoms: N_7  and  N_8
REMARK    4  A    between atoms: N_8  and  S_9
REMARK    5  A    between atoms: S_9  and  C_12
REMARK    6  A    between atoms: N_20  and  C_21
REMARK    7  A    between atoms: C_21  and  C_22
REMARK    8  A    between atoms: C_21  and  C_23
REMARK    9  A    between atoms: C_21  and  C_24
REMARK                            x       y       z     vdW  Elec       q    Type
REMARK                         _______ _______ _______ _____ _____    ______ ____
ROOT
ATOM      1  C   UNL     1       2.526   6.858  18.819  0.00  0.00    +0.000 C 
ATOM      2  O   UNL     1       3.087   7.103  17.751  0.00  0.00    +0.000 OA
ATOM      3  N   UNL     1       2.490   5.590  19.370  0.00  0.00    +0.000 N 
ATOM      4  H   UNL     1       2.096   5.461  20.303  0.00  0.00    +0.000 HD
ENDROOT
BRANCH   1   8
ATOM      5  C   UNL     1       0.391   9.368  22.679  0.00  0.00    +0.000 C 
ATOM      6  C   UNL     1       0.919   8.979  21.347  0.00  0.00    +0.000 A 
ATOM      7  C   UNL     1       1.499   7.775  20.998  0.00  0.00    +0.000 A 
ATOM      8  C   UNL     1       1.858   7.883  19.639  0.00  0.00    +0.000 A 
ATOM      9  N   UNL     1       1.501   9.085  19.152  0.00  0.00    +0.000 NA
ATOM     10  N   UNL     1       0.937   9.751  20.199  0.00  0.00    +0.000 N 
BRANCH  10  11
ATOM     11  C   UNL     1       0.442  11.132  19.975  0.00  0.00    +0.000 C 
ATOM     12  C   UNL     1       0.931  11.690  18.610  0.00  0.00    +0.000 C 
ATOM     13  C   UNL     1      -1.098  11.176  19.942  0.00  0.00    +0.000 C 
ATOM     14  C   UNL     1       0.962  12.101  21.056  0.00  0.00    +0.000 C 
ENDBRANCH  10  11
ENDBRANCH   1   8
BRANCH   3  15
ATOM     15  N   UNL     1       3.188   4.481  18.710  0.00  0.00    +0.000 NA
ATOM     16  H   UNL     1       2.827   4.181  17.799  0.00  0.00    +0.000 HD
BRANCH  15  17
ATOM     17  S   UNL     1       4.839   4.312  19.040  0.00  0.00    +0.000 S 
ATOM     18  O   UNL     1       5.259   5.504  19.748  0.00  0.00    +0.000 OA
ATOM     19  O   UNL     1       5.044   2.998  19.605  0.00  0.00    +0.000 OA
BRANCH  17  20
ATOM     20  C   UNL     1       5.595   4.351  17.428  0.00  0.00    +0.000 A 
ATOM     21  C   UNL     1       4.803   4.198  16.281  0.00  0.00    +0.000 A 
ATOM     22  C   UNL     1       5.376   4.358  15.018  0.00  0.00    +0.000 A 
ATOM     23  C   UNL     1       6.728   4.680  14.909  0.00  0.00    +0.000 A 
ATOM     24  F   UNL     1       7.271   4.849  13.696  0.00  0.00    +0.000 F 
ATOM     25  C   UNL     1       7.519   4.844  16.043  0.00  0.00    +0.000 A 
ATOM     26  C   UNL     1       6.952   4.683  17.310  0.00  0.00    +0.000 A 
ENDBRANCH  17  20
ENDBRANCH  15  17
ENDBRANCH   3  15
TORSDOF 5
ENDMDL
MODEL 8
REMARK VINA RESULT:      -7.1      3.890      7.395
REMARK  Name = 
REMARK  9 active torsions:
REMARK  status: ('A' for Active; 'I' for Inactive)
REMARK    1  A    between atoms: C_1  and  C_2
REMARK    2  A    between atoms: C_4  and  C_5
REMARK    3  A    between atoms: N_7  and  N_8
REMARK    4  A    between atoms: N_8  and  S_9
REMARK    5  A    between atoms: S_9  and  C_12
REMARK    6  A    between atoms: N_20  and  C_21
REMARK    7  A    between atoms: C_21  and  C_22
REMARK    8  A    between atoms: C_21  and  C_23
REMARK    9  A    between atoms: C_21  and  C_24
REMARK                            x       y       z     vdW  Elec       q    Type
REMARK                         _______ _______ _______ _____ _____    ______ ____
ROOT
ATOM      1  C   UNL     1       2.237   5.336  20.362  0.00  0.00    +0.000 C 
ATOM      2  O   UNL     1       2.451   4.967  21.517  0.00  0.00    +0.000 OA
ATOM      3  N   UNL     1       2.231   4.464  19.289  0.00  0.00    +0.000 N 
ATOM      4  H   UNL     1       1.953   4.805  18.368  0.00  0.00    +0.000 HD
ENDROOT
BRANCH   1   8
ATOM      5  C   UNL     1       1.963   9.772  17.912  0.00  0.00    +0.000 C 
ATOM      6  C   UNL     1       1.823   8.681  18.910  0.00  0.00    +0.000 A 
ATOM      7  C   UNL     1       2.353   7.407  18.833  0.00  0.00    +0.000 A 
ATOM      8  C   UNL     1       1.937   6.731  19.998  0.00  0.00    +0.000 A 
ATOM      9  N   UNL     1       1.203   7.544  20.778  0.00  0.00    +0.000 NA
ATOM     10  N   UNL     1       1.130   8.728  20.106  0.00  0.00    +0.000 N 
BRANCH  10  11
ATOM     11  C   UNL     1       0.366   9.844  20.718  0.00  0.00    +0.000 C 
ATOM     12  C   UNL     1      -0.831  10.264  19.821  0.00  0.00    +0.000 C 
ATOM     13  C   UNL     1      -0.227   9.434  22.080  0.00  0.00    +0.000 C 
ATOM     14  C   UNL     1       1.242  11.100  20.894  0.00  0.00    +0.000 C 
ENDBRANCH  10  11
ENDBRANCH   1   8
BRANCH   3  15
ATOM     15  N   UNL     1       2.428   3.027  19.508  0.00  0.00    +0.000 NA
ATOM     16  H   UNL     1       1.596   2.429  19.451  0.00  0.00    +0.000 HD
BRANCH  15  17
ATOM     17  S   UNL     1       3.934   2.386  19.079  0.00  0.00    +0.000 S 
ATOM     18  O   UNL     1       4.642   2.095  20.310  0.00  0.00    +0.000 OA
ATOM     19  O   UNL     1       3.710   1.359  18.087  0.00  0.00    +0.000 OA
BRANCH  17  20
ATOM     20  C   UNL     1       4.763   3.751  18.292  0.00  0.00    +0.000 A 
ATOM     21  C   UNL     1       4.479   4.064  16.955  0.00  0.00    +0.000 A 
ATOM     22  C   UNL     1       5.031   5.210  16.380  0.00  0.00    +0.000 A 
ATOM     23  C   UNL     1       5.850   6.040  17.145  0.00  0.00    +0.000 A 
ATOM     24  F   UNL     1       6.364   7.148  16.595  0.00  0.00    +0.000 F 
ATOM     25  C   UNL     1       6.129   5.743  18.477  0.00  0.00    +0.000 A 
ATOM     26  C   UNL     1       5.581   4.595  19.057  0.00  0.00    +0.000 A 
ENDBRANCH  17  20
ENDBRANCH  15  17
ENDBRANCH   3  15
TORSDOF 5
ENDMDL
MODEL 9
REMARK VINA RESULT:      -7.1      1.839      2.349
REMARK  Name = 
REMARK  9 active torsions:
REMARK  status: ('A' for Active; 'I' for Inactive)
REMARK    1  A    between atoms: C_1  and  C_2
REMARK    2  A    between atoms: C_4  and  C_5
REMARK    3  A    between atoms: N_7  and  N_8
REMARK    4  A    between atoms: N_8  and  S_9
REMARK    5  A    between atoms: S_9  and  C_12
REMARK    6  A    between atoms: N_20  and  C_21
REMARK    7  A    between atoms: C_21  and  C_22
REMARK    8  A    between atoms: C_21  and  C_23
REMARK    9  A    between atoms: C_21  and  C_24
REMARK                            x       y       z     vdW  Elec       q    Type
REMARK                         _______ _______ _______ _____ _____    ______ ____
ROOT
ATOM      1  C   UNL     1       2.320   7.977  18.703  0.00  0.00    +0.000 C 
ATOM      2  O   UNL     1       2.337   8.923  17.915  0.00  0.00    +0.000 OA
ATOM      3  N   UNL     1       1.731   8.057  19.952  0.00  0.00    +0.000 N 
ATOM      4  H   UNL     1       1.660   7.216  20.527  0.00  0.00    +0.000 HD
ENDROOT
BRANCH   1   8
ATOM      5  C   UNL     1       5.140   4.228  16.766  0.00  0.00    +0.000 C 
ATOM      6  C   UNL     1       4.143   5.012  17.538  0.00  0.00    +0.000 A 
ATOM      7  C   UNL     1       3.919   6.374  17.472  0.00  0.00    +0.000 A 
ATOM      8  C   UNL     1       2.895   6.656  18.399  0.00  0.00    +0.000 A 
ATOM      9  N   UNL     1       2.480   5.527  18.999  0.00  0.00    +0.000 NA
ATOM     10  N   UNL     1       3.249   4.530  18.477  0.00  0.00    +0.000 N 
BRANCH  10  11
ATOM     11  C   UNL     1       3.030   3.142  18.956  0.00  0.00    +0.000 C 
ATOM     12  C   UNL     1       1.849   3.074  19.962  0.00  0.00    +0.000 C 
ATOM     13  C   UNL     1       2.672   2.199  17.791  0.00  0.00    +0.000 C 
ATOM     14  C   UNL     1       4.268   2.598  19.697  0.00  0.00    +0.000 C 
ENDBRANCH  10  11
ENDBRANCH   1   8
BRANCH   3  15
ATOM     15  N   UNL     1       1.040   9.284  20.362  0.00  0.00    +0.000 NA
ATOM     16  H   UNL     1       0.640   9.864  19.617  0.00  0.00    +0.000 HD
BRANCH  15  17
ATOM     17  S   UNL     1       0.302   9.274  21.885  0.00  0.00    +0.000 S 
ATOM     18  O   UNL     1      -0.634   8.169  21.900  0.00  0.00    +0.000 OA
ATOM     19  O   UNL     1       1.344   9.383  22.881  0.00  0.00    +0.000 OA
BRANCH  17  20
ATOM     20  C   UNL     1      -0.645  10.782  21.902  0.00  0.00    +0.000 A 
ATOM     21  C   UNL     1      -0.796  11.526  20.723  0.00  0.00    +0.000 A 
ATOM     22  C   UNL     1      -1.645  12.635  20.708  0.00  0.00    +0.000 A 
ATOM     23  C   UNL     1      -2.342  12.985  21.863  0.00  0.00    +0.000 A 
ATOM     24  F   UNL     1      -3.168  14.040  21.840  0.00  0.00    +0.000 F 
ATOM     25  C   UNL     1      -2.207  12.246  23.035  0.00  0.00    +0.000 A 
ATOM     26  C   UNL     1      -1.357  11.136  23.057  0.00  0.00    +0.000 A 
ENDBRANCH  17  20
ENDBRANCH  15  17
ENDBRANCH   3  15
TORSDOF 5
ENDMDL
