MODEL 1
REMARK VINA RESULT:      -7.9      0.000      0.000
REMARK  Name = 
REMARK  14 active torsions:
REMARK  status: ('A' for Active; 'I' for Inactive)
REMARK    1  A    between atoms: C_1  and  C_2
REMARK    2  A    between atoms: C_2  and  C_3
REMARK    3  A    between atoms: C_2  and  C_4
REMARK    4  A    between atoms: C_2  and  C_5
REMARK    5  A    between atoms: C_7  and  C_8
REMARK    6  A    between atoms: N_10  and  C_11
REMARK    7  A    between atoms: C_20  and  C_21
REMARK    8  A    between atoms: N_23  and  C_24
REMARK    9  A    between atoms: C_24  and  C_25
REMARK   10  A    between atoms: C_25  and  N_26
REMARK   11  A    between atoms: C_28  and  C_29
REMARK   12  A    between atoms: C_29  and  C_30
REMARK   13  A    between atoms: C_29  and  C_31
REMARK   14  A    between atoms: C_29  and  C_32
REMARK                            x       y       z     vdW  Elec       q    Type
REMARK                         _______ _______ _______ _____ _____    ______ ____
ROOT
ATOM      1  C   UNL     1      -0.186   9.922  19.716  0.00  0.00    +0.000 A 
ATOM      2  C   UNL     1      -0.074  10.423  21.020  0.00  0.00    +0.000 A 
ATOM      3  C   UNL     1      -0.744  11.591  21.417  0.00  0.00    +0.000 A 
ATOM      4  C   UNL     1      -0.698  12.042  22.745  0.00  0.00    +0.000 A 
ATOM      5  C   UNL     1      -1.370  13.202  23.125  0.00  0.00    +0.000 A 
ATOM      6  C   UNL     1      -2.047  13.958  22.172  0.00  0.00    +0.000 A 
ATOM      7  C   UNL     1      -2.102  13.522  20.847  0.00  0.00    +0.000 A 
ATOM      8  C   UNL     1      -1.491  12.316  20.465  0.00  0.00    +0.000 A 
ATOM      9  C   UNL     1      -1.645  11.785  19.178  0.00  0.00    +0.000 A 
ATOM     10  C   UNL     1      -1.059  10.558  18.813  0.00  0.00    +0.000 A 
ENDROOT
BRANCH   1  13
ATOM     11  C   UNL     1       1.732   8.831  18.621  0.00  0.00    +0.000 C 
ATOM     12  O   UNL     1       2.176   9.835  18.080  0.00  0.00    +0.000 OA
ATOM     13  N   UNL     1       0.602   8.780  19.428  0.00  0.00    +0.000 N 
ATOM     14  H   UNL     1       0.628   8.058  20.141  0.00  0.00    +0.000 HD
BRANCH  11  17
ATOM     15  C   UNL     1       4.304   6.269  17.530  0.00  0.00    +0.000 A 
ATOM     16  C   UNL     1       3.644   7.488  17.751  0.00  0.00    +0.000 A 
ATOM     17  C   UNL     1       2.446   7.535  18.471  0.00  0.00    +0.000 A 
ATOM     18  C   UNL     1       1.899   6.364  19.010  0.00  0.00    +0.000 A 
ATOM     19  C   UNL     1       2.547   5.130  18.871  0.00  0.00    +0.000 A 
ATOM     20  C   UNL     1       3.716   5.103  18.079  0.00  0.00    +0.000 A 
BRANCH  15  22
ATOM     21  C   UNL     1       5.419   6.441  15.204  0.00  0.00    +0.000 C 
ATOM     22  C   UNL     1       5.612   6.176  16.716  0.00  0.00    +0.000 C 
ATOM     23  C   UNL     1       6.216   4.763  16.860  0.00  0.00    +0.000 C 
ATOM     24  C   UNL     1       6.637   7.215  17.223  0.00  0.00    +0.000 C 
ENDBRANCH  15  22
BRANCH  19  25
ATOM     25  C   UNL     1       1.978   3.865  19.544  0.00  0.00    +0.000 C 
ATOM     26  C   UNL     1       1.086   4.271  20.731  0.00  0.00    +0.000 C 
ATOM     27  C   UNL     1       1.148   3.006  18.563  0.00  0.00    +0.000 C 
ATOM     28  C   UNL     1       3.103   2.939  20.070  0.00  0.00    +0.000 C 
ENDBRANCH  19  25
ENDBRANCH  11  17
ENDBRANCH   1  13
BRANCH  10  29
ATOM     29  C   UNL     1      -1.608   9.938  17.565  0.00  0.00    +0.000 C 
ATOM     30  O   UNL     1      -0.867   9.316  16.803  0.00  0.00    +0.000 OA
ATOM     31  N   UNL     1      -2.919  10.215  17.253  0.00  0.00    +0.000 N 
ATOM     32  H   UNL     1      -3.480  10.747  17.907  0.00  0.00    +0.000 HD
BRANCH  31  33
ATOM     33  C   UNL     1      -3.539   9.778  16.015  0.00  0.00    +0.000 C 
BRANCH  33  34
ATOM     34  C   UNL     1      -3.281  10.721  14.830  0.00  0.00    +0.000 C 
BRANCH  34  35
ATOM     35  N   UNL     1      -2.769   9.998  13.659  0.00  0.00    +0.000 NA
ATOM     36  H   UNL     1      -3.566   9.497  13.245  0.00  0.00    +0.000 HD
ATOM     37  H   UNL     1      -2.157   9.251  13.990  0.00  0.00    +0.000 HD
ENDBRANCH  34  35
ENDBRANCH  33  34
ENDBRANCH  31  33
ENDBRANCH  10  29
TORSDOF 8
ENDMDL
MODEL 2
REMARK VINA RESULT:      -7.9      0.680      1.055
REMARK  Name = 
REMARK  14 active torsions:
REMARK  status: ('A' for Active; 'I' for Inactive)
REMARK    1  A    between atoms: C_1  and  C_2
REMARK    2  A    between atoms: C_2  and  C_3
REMARK    3  A    between atoms: C_2  and  C_4
REMARK    4  A    between atoms: C_2  and  C_5
REMARK    5  A    between atoms: C_7  and  C_8
REMARK    6  A    between atoms: N_10  and  C_11
REMARK    7  A    between atoms: C_20  and  C_21
REMARK    8  A    between atoms: N_23  and  C_24
REMARK    9  A    between atoms: C_24  and  C_25
REMARK   10  A    between atoms: C_25  and  N_26
REMARK   11  A    between atoms: C_28  and  C_29
REMARK   12  A    between atoms: C_29  and  C_30
REMARK   13  A    between atoms: C_29  and  C_31
REMARK   14  A    between atoms: C_29  and  C_32
REMARK                            x       y       z     vdW  Elec       q    Type
REMARK                         _______ _______ _______ _____ _____    ______ ____
ROOT
ATOM      1  C   UNL     1      -0.092   9.979  19.721  0.00  0.00    +0.000 A 
ATOM      2  C   UNL     1      -0.074  10.393  21.060  0.00  0.00    +0.000 A 
ATOM      3  C   UNL     1      -0.730  11.562  21.474  0.00  0.00    +0.000 A 
ATOM      4  C   UNL     1      -0.781  11.928  22.828  0.00  0.00    +0.000 A 
ATOM      5  C   UNL     1      -1.439  13.091  23.225  0.00  0.00    +0.000 A 
ATOM      6  C   UNL     1      -2.001  13.933  22.271  0.00  0.00    +0.000 A 
ATOM      7  C   UNL     1      -1.959  13.582  20.920  0.00  0.00    +0.000 A 
ATOM      8  C   UNL     1      -1.364  12.377  20.513  0.00  0.00    +0.000 A 
ATOM      9  C   UNL     1      -1.428  11.933  19.185  0.00  0.00    +0.000 A 
ATOM     10  C   UNL     1      -0.859  10.706  18.791  0.00  0.00    +0.000 A 
ENDROOT
BRANCH   1  13
ATOM     11  C   UNL     1       1.799   8.856  18.613  0.00  0.00    +0.000 C 
ATOM     12  O   UNL     1       2.258   9.853  18.071  0.00  0.00    +0.000 OA
ATOM     13  N   UNL     1       0.673   8.824  19.426  0.00  0.00    +0.000 N 
ATOM     14  H   UNL     1       0.690   8.100  20.138  0.00  0.00    +0.000 HD
BRANCH  11  17
ATOM     15  C   UNL     1       4.327   6.254  17.513  0.00  0.00    +0.000 A 
ATOM     16  C   UNL     1       3.689   7.483  17.740  0.00  0.00    +0.000 A 
ATOM     17  C   UNL     1       2.490   7.547  18.455  0.00  0.00    +0.000 A 
ATOM     18  C   UNL     1       1.918   6.384  18.983  0.00  0.00    +0.000 A 
ATOM     19  C   UNL     1       2.542   5.138  18.838  0.00  0.00    +0.000 A 
ATOM     20  C   UNL     1       3.714   5.095  18.051  0.00  0.00    +0.000 A 
BRANCH  15  22
ATOM     21  C   UNL     1       6.308   4.752  16.804  0.00  0.00    +0.000 C 
ATOM     22  C   UNL     1       5.637   6.142  16.704  0.00  0.00    +0.000 C 
ATOM     23  C   UNL     1       6.656   7.181  17.217  0.00  0.00    +0.000 C 
ATOM     24  C   UNL     1       5.367   6.400  15.205  0.00  0.00    +0.000 C 
ENDBRANCH  15  22
BRANCH  19  25
ATOM     25  C   UNL     1       1.946   3.879  19.498  0.00  0.00    +0.000 C 
ATOM     26  C   UNL     1       0.960   4.297  20.603  0.00  0.00    +0.000 C 
ATOM     27  C   UNL     1       1.208   2.981  18.479  0.00  0.00    +0.000 C 
ATOM     28  C   UNL     1       3.045   2.988  20.131  0.00  0.00    +0.000 C 
ENDBRANCH  19  25
ENDBRANCH  11  17
ENDBRANCH   1  13
BRANCH  10  29
ATOM     29  C   UNL     1      -1.322  10.188  17.465  0.00  0.00    +0.000 C 
ATOM     30  O   UNL     1      -0.851   9.147  17.006  0.00  0.00    +0.000 OA
ATOM     31  N   UNL     1      -2.173  10.992  16.742  0.00  0.00    +0.000 N 
ATOM     32  H   UNL     1      -2.517  11.848  17.159  0.00  0.00    +0.000 HD
BRANCH  31  33
ATOM     33  C   UNL     1      -2.602  10.666  15.393  0.00  0.00    +0.000 C 
BRANCH  33  34
ATOM     34  C   UNL     1      -4.128  10.599  15.231  0.00  0.00    +0.000 C 
BRANCH  34  35
ATOM     35  N   UNL     1      -4.825  11.153  16.399  0.00  0.00    +0.000 NA
ATOM     36  H   UNL     1      -4.268  10.904  17.226  0.00  0.00    +0.000 HD
ATOM     37  H   UNL     1      -5.695  10.635  16.525  0.00  0.00    +0.000 HD
ENDBRANCH  34  35
ENDBRANCH  33  34
ENDBRANCH  31  33
ENDBRANCH  10  29
TORSDOF 8
ENDMDL
MODEL 3
REMARK VINA RESULT:      -7.8      0.511      3.194
REMARK  Name = 
REMARK  14 active torsions:
REMARK  status: ('A' for Active; 'I' for Inactive)
REMARK    1  A    between atoms: C_1  and  C_2
REMARK    2  A    between atoms: C_2  and  C_3
REMARK    3  A    between atoms: C_2  and  C_4
REMARK    4  A    between atoms: C_2  and  C_5
REMARK    5  A    between atoms: C_7  and  C_8
REMARK    6  A    between atoms: N_10  and  C_11
REMARK    7  A    between atoms: C_20  and  C_21
REMARK    8  A    between atoms: N_23  and  C_24
REMARK    9  A    between atoms: C_24  and  C_25
REMARK   10  A    between atoms: C_25  and  N_26
REMARK   11  A    between atoms: C_28  and  C_29
REMARK   12  A    between atoms: C_29  and  C_30
REMARK   13  A    between atoms: C_29  and  C_31
REMARK   14  A    between atoms: C_29  and  C_32
REMARK                            x       y       z     vdW  Elec       q    Type
REMARK                         _______ _______ _______ _____ _____    ______ ____
ROOT
ATOM      1  C   UNL     1       0.144  10.137  19.403  0.00  0.00    +0.000 A 
ATOM      2  C   UNL     1       0.380  10.779  20.627  0.00  0.00    +0.000 A 
ATOM      3  C   UNL     1      -0.227  12.005  20.940  0.00  0.00    +0.000 A 
ATOM      4  C   UNL     1      -0.055  12.601  22.199  0.00  0.00    +0.000 A 
ATOM      5  C   UNL     1      -0.665  13.818  22.498  0.00  0.00    +0.000 A 
ATOM      6  C   UNL     1      -1.405  14.482  21.524  0.00  0.00    +0.000 A 
ATOM      7  C   UNL     1      -1.586  13.901  20.268  0.00  0.00    +0.000 A 
ATOM      8  C   UNL     1      -1.037  12.641  19.978  0.00  0.00    +0.000 A 
ATOM      9  C   UNL     1      -1.316  11.973  18.778  0.00  0.00    +0.000 A 
ATOM     10  C   UNL     1      -0.790  10.694  18.509  0.00  0.00    +0.000 A 
ENDROOT
BRANCH   1  13
ATOM     11  C   UNL     1       1.919   8.862  18.267  0.00  0.00    +0.000 C 
ATOM     12  O   UNL     1       2.321   9.777  17.561  0.00  0.00    +0.000 OA
ATOM     13  N   UNL     1       0.878   8.945  19.184  0.00  0.00    +0.000 N 
ATOM     14  H   UNL     1       0.966   8.317  19.976  0.00  0.00    +0.000 HD
BRANCH  11  17
ATOM     15  C   UNL     1       2.611   5.175  18.812  0.00  0.00    +0.000 A 
ATOM     16  C   UNL     1       1.970   6.423  18.785  0.00  0.00    +0.000 A 
ATOM     17  C   UNL     1       2.592   7.536  18.210  0.00  0.00    +0.000 A 
ATOM     18  C   UNL     1       3.857   7.415  17.624  0.00  0.00    +0.000 A 
ATOM     19  C   UNL     1       4.516   6.180  17.569  0.00  0.00    +0.000 A 
ATOM     20  C   UNL     1       3.895   5.091  18.220  0.00  0.00    +0.000 A 
BRANCH  15  22
ATOM     21  C   UNL     1       0.993   4.273  20.615  0.00  0.00    +0.000 C 
ATOM     22  C   UNL     1       1.967   3.932  19.463  0.00  0.00    +0.000 C 
ATOM     23  C   UNL     1       3.068   3.022  20.048  0.00  0.00    +0.000 C 
ATOM     24  C   UNL     1       1.159   3.134  18.416  0.00  0.00    +0.000 C 
ENDBRANCH  15  22
BRANCH  19  25
ATOM     25  C   UNL     1       5.869   6.044  16.844  0.00  0.00    +0.000 C 
ATOM     26  C   UNL     1       6.749   7.265  17.165  0.00  0.00    +0.000 C 
ATOM     27  C   UNL     1       6.624   4.759  17.256  0.00  0.00    +0.000 C 
ATOM     28  C   UNL     1       5.692   5.957  15.307  0.00  0.00    +0.000 C 
ENDBRANCH  19  25
ENDBRANCH  11  17
ENDBRANCH   1  13
BRANCH  10  29
ATOM     29  C   UNL     1      -1.460   9.954  17.393  0.00  0.00    +0.000 C 
ATOM     30  O   UNL     1      -0.823   9.149  16.712  0.00  0.00    +0.000 OA
ATOM     31  N   UNL     1      -2.750  10.320  17.085  0.00  0.00    +0.000 N 
ATOM     32  H   UNL     1      -3.222  11.001  17.666  0.00  0.00    +0.000 HD
BRANCH  31  33
ATOM     33  C   UNL     1      -3.471   9.769  15.951  0.00  0.00    +0.000 C 
BRANCH  33  34
ATOM     34  C   UNL     1      -3.370  10.627  14.681  0.00  0.00    +0.000 C 
BRANCH  34  35
ATOM     35  N   UNL     1      -2.734   9.895  13.579  0.00  0.00    +0.000 NA
ATOM     36  H   UNL     1      -2.562   8.938  13.914  0.00  0.00    +0.000 HD
ATOM     37  H   UNL     1      -1.798  10.277  13.442  0.00  0.00    +0.000 HD
ENDBRANCH  34  35
ENDBRANCH  33  34
ENDBRANCH  31  33
ENDBRANCH  10  29
TORSDOF 8
ENDMDL
MODEL 4
REMARK VINA RESULT:      -7.8      1.338      3.420
REMARK  Name = 
REMARK  14 active torsions:
REMARK  status: ('A' for Active; 'I' for Inactive)
REMARK    1  A    between atoms: C_1  and  C_2
REMARK    2  A    between atoms: C_2  and  C_3
REMARK    3  A    between atoms: C_2  and  C_4
REMARK    4  A    between atoms: C_2  and  C_5
REMARK    5  A    between atoms: C_7  and  C_8
REMARK    6  A    between atoms: N_10  and  C_11
REMARK    7  A    between atoms: C_20  and  C_21
REMARK    8  A    between atoms: N_23  and  C_24
REMARK    9  A    between atoms: C_24  and  C_25
REMARK   10  A    between atoms: C_25  and  N_26
REMARK   11  A    between atoms: C_28  and  C_29
REMARK   12  A    between atoms: C_29  and  C_30
REMARK   13  A    between atoms: C_29  and  C_31
REMARK   14  A    between atoms: C_29  and  C_32
REMARK                            x       y       z     vdW  Elec       q    Type
REMARK                         _______ _______ _______ _____ _____    ______ ____
ROOT
ATOM      1  C   UNL     1       0.616  10.710  19.262  0.00  0.00    +0.000 A 
ATOM      2  C   UNL     1       1.230  11.566  20.186  0.00  0.00    +0.000 A 
ATOM      3  C   UNL     1       0.768  12.875  20.392  0.00  0.00    +0.000 A 
ATOM      4  C   UNL     1       1.332  13.700  21.378  0.00  0.00    +0.000 A 
ATOM      5  C   UNL     1       0.861  14.997  21.574  0.00  0.00    +0.000 A 
ATOM      6  C   UNL     1      -0.137  15.506  20.749  0.00  0.00    +0.000 A 
ATOM      7  C   UNL     1      -0.708  14.698  19.765  0.00  0.00    +0.000 A 
ATOM      8  C   UNL     1      -0.294  13.366  19.604  0.00  0.00    +0.000 A 
ATOM      9  C   UNL     1      -0.942  12.492  18.721  0.00  0.00    +0.000 A 
ATOM     10  C   UNL     1      -0.543  11.147  18.593  0.00  0.00    +0.000 A 
ENDROOT
BRANCH   1  13
ATOM     11  C   UNL     1       2.087   9.156  18.043  0.00  0.00    +0.000 C 
ATOM     12  O   UNL     1       2.414   9.936  17.157  0.00  0.00    +0.000 OA
ATOM     13  N   UNL     1       1.229   9.444  19.097  0.00  0.00    +0.000 N 
ATOM     14  H   UNL     1       1.416   8.919  19.946  0.00  0.00    +0.000 HD
BRANCH  11  17
ATOM     15  C   UNL     1       2.512   5.469  18.812  0.00  0.00    +0.000 A 
ATOM     16  C   UNL     1       1.964   6.757  18.711  0.00  0.00    +0.000 A 
ATOM     17  C   UNL     1       2.661   7.783  18.066  0.00  0.00    +0.000 A 
ATOM     18  C   UNL     1       3.909   7.534  17.484  0.00  0.00    +0.000 A 
ATOM     19  C   UNL     1       4.476   6.253  17.504  0.00  0.00    +0.000 A 
ATOM     20  C   UNL     1       3.782   5.255  18.223  0.00  0.00    +0.000 A 
BRANCH  15  22
ATOM     21  C   UNL     1       0.700   4.804  20.533  0.00  0.00    +0.000 C 
ATOM     22  C   UNL     1       1.784   4.319  19.542  0.00  0.00    +0.000 C 
ATOM     23  C   UNL     1       2.803   3.487  20.349  0.00  0.00    +0.000 C 
ATOM     24  C   UNL     1       1.077   3.398  18.523  0.00  0.00    +0.000 C 
ENDBRANCH  15  22
BRANCH  19  25
ATOM     25  C   UNL     1       5.809   5.973  16.783  0.00  0.00    +0.000 C 
ATOM     26  C   UNL     1       5.565   5.881  15.267  0.00  0.00    +0.000 C 
ATOM     27  C   UNL     1       6.861   7.073  17.056  0.00  0.00    +0.000 C 
ATOM     28  C   UNL     1       6.452   4.646  17.259  0.00  0.00    +0.000 C 
ENDBRANCH  19  25
ENDBRANCH  11  17
ENDBRANCH   1  13
BRANCH  10  29
ATOM     29  C   UNL     1      -1.538  10.252  17.920  0.00  0.00    +0.000 C 
ATOM     30  O   UNL     1      -1.942   9.236  18.487  0.00  0.00    +0.000 OA
ATOM     31  N   UNL     1      -1.857  10.542  16.613  0.00  0.00    +0.000 N 
ATOM     32  H   UNL     1      -1.483  11.381  16.189  0.00  0.00    +0.000 HD
BRANCH  31  33
ATOM     33  C   UNL     1      -2.713   9.688  15.808  0.00  0.00    +0.000 C 
BRANCH  33  34
ATOM     34  C   UNL     1      -3.282  10.386  14.563  0.00  0.00    +0.000 C 
BRANCH  34  35
ATOM     35  N   UNL     1      -2.685   9.867  13.327  0.00  0.00    +0.000 NA
ATOM     36  H   UNL     1      -2.437  10.680  12.749  0.00  0.00    +0.000 HD
ATOM     37  H   UNL     1      -3.418   9.401  12.791  0.00  0.00    +0.000 HD
ENDBRANCH  34  35
ENDBRANCH  33  34
ENDBRANCH  31  33
ENDBRANCH  10  29
TORSDOF 8
ENDMDL
MODEL 5
REMARK VINA RESULT:      -7.8      0.167      3.164
REMARK  Name = 
REMARK  14 active torsions:
REMARK  status: ('A' for Active; 'I' for Inactive)
REMARK    1  A    between atoms: C_1  and  C_2
REMARK    2  A    between atoms: C_2  and  C_3
REMARK    3  A    between atoms: C_2  and  C_4
REMARK    4  A    between atoms: C_2  and  C_5
REMARK    5  A    between atoms: C_7  and  C_8
REMARK    6  A    between atoms: N_10  and  C_11
REMARK    7  A    between atoms: C_20  and  C_21
REMARK    8  A    between atoms: N_23  and  C_24
REMARK    9  A    between atoms: C_24  and  C_25
REMARK   10  A    between atoms: C_25  and  N_26
REMARK   11  A    between atoms: C_28  and  C_29
REMARK   12  A    between atoms: C_29  and  C_30
REMARK   13  A    between atoms: C_29  and  C_31
REMARK   14  A    between atoms: C_29  and  C_32
REMARK                            x       y       z     vdW  Elec       q    Type
REMARK                         _______ _______ _______ _____ _____    ______ ____
ROOT
ATOM      1  C   UNL     1      -0.187   9.861  19.736  0.00  0.00    +0.000 A 
ATOM      2  C   UNL     1      -0.090  10.330  21.053  0.00  0.00    +0.000 A 
ATOM      3  C   UNL     1      -0.767  11.486  21.470  0.00  0.00    +0.000 A 
ATOM      4  C   UNL     1      -0.736  11.905  22.809  0.00  0.00    +0.000 A 
ATOM      5  C   UNL     1      -1.414  13.054  23.211  0.00  0.00    +0.000 A 
ATOM      6  C   UNL     1      -2.082  13.832  22.270  0.00  0.00    +0.000 A 
ATOM      7  C   UNL     1      -2.122  13.428  20.934  0.00  0.00    +0.000 A 
ATOM      8  C   UNL     1      -1.505  12.234  20.529  0.00  0.00    +0.000 A 
ATOM      9  C   UNL     1      -1.645  11.734  19.228  0.00  0.00    +0.000 A 
ATOM     10  C   UNL     1      -1.052  10.517  18.839  0.00  0.00    +0.000 A 
ENDROOT
BRANCH   1  13
ATOM     11  C   UNL     1       1.746   8.801  18.637  0.00  0.00    +0.000 C 
ATOM     12  O   UNL     1       2.195   9.819  18.127  0.00  0.00    +0.000 OA
ATOM     13  N   UNL     1       0.606   8.728  19.428  0.00  0.00    +0.000 N 
ATOM     14  H   UNL     1       0.624   7.988  20.123  0.00  0.00    +0.000 HD
BRANCH  11  17
ATOM     15  C   UNL     1       2.621   5.125  18.935  0.00  0.00    +0.000 A 
ATOM     16  C   UNL     1       1.931   6.344  19.021  0.00  0.00    +0.000 A 
ATOM     17  C   UNL     1       2.464   7.510  18.462  0.00  0.00    +0.000 A 
ATOM     18  C   UNL     1       3.686   7.473  17.780  0.00  0.00    +0.000 A 
ATOM     19  C   UNL     1       4.388   6.272  17.613  0.00  0.00    +0.000 A 
ATOM     20  C   UNL     1       3.860   5.126  18.249  0.00  0.00    +0.000 A 
BRANCH  15  22
ATOM     21  C   UNL     1       3.166   2.970  20.256  0.00  0.00    +0.000 C 
ATOM     22  C   UNL     1       2.077   3.825  19.566  0.00  0.00    +0.000 C 
ATOM     23  C   UNL     1       1.431   2.947  18.473  0.00  0.00    +0.000 C 
ATOM     24  C   UNL     1       1.017   4.150  20.641  0.00  0.00    +0.000 C 
ENDBRANCH  15  22
BRANCH  19  25
ATOM     25  C   UNL     1       5.687   6.230  16.785  0.00  0.00    +0.000 C 
ATOM     26  C   UNL     1       5.368   6.537  15.312  0.00  0.00    +0.000 C 
ATOM     27  C   UNL     1       6.735   7.247  17.294  0.00  0.00    +0.000 C 
ATOM     28  C   UNL     1       6.373   4.842  16.861  0.00  0.00    +0.000 C 
ENDBRANCH  19  25
ENDBRANCH  11  17
ENDBRANCH   1  13
BRANCH  10  29
ATOM     29  C   UNL     1      -1.586   9.927  17.571  0.00  0.00    +0.000 C 
ATOM     30  O   UNL     1      -0.835   9.328  16.799  0.00  0.00    +0.000 OA
ATOM     31  N   UNL     1      -2.896  10.205  17.254  0.00  0.00    +0.000 N 
ATOM     32  H   UNL     1      -3.465  10.717  17.916  0.00  0.00    +0.000 HD
BRANCH  31  33
ATOM     33  C   UNL     1      -3.503   9.797  16.000  0.00  0.00    +0.000 C 
BRANCH  33  34
ATOM     34  C   UNL     1      -3.307  10.811  14.862  0.00  0.00    +0.000 C 
BRANCH  34  35
ATOM     35  N   UNL     1      -3.385  10.171  13.543  0.00  0.00    +0.000 NA
ATOM     36  H   UNL     1      -2.619   9.487  13.496  0.00  0.00    +0.000 HD
ATOM     37  H   UNL     1      -3.135  10.866  12.838  0.00  0.00    +0.000 HD
ENDBRANCH  34  35
ENDBRANCH  33  34
ENDBRANCH  31  33
ENDBRANCH  10  29
TORSDOF 8
ENDMDL
MODEL 6
REMARK VINA RESULT:      -7.8      0.680      1.044
REMARK  Name = 
REMARK  14 active torsions:
REMARK  status: ('A' for Active; 'I' for Inactive)
REMARK    1  A    between atoms: C_1  and  C_2
REMARK    2  A    between atoms: C_2  and  C_3
REMARK    3  A    between atoms: C_2  and  C_4
REMARK    4  A    between atoms: C_2  and  C_5
REMARK    5  A    between atoms: C_7  and  C_8
REMARK    6  A    between atoms: N_10  and  C_11
REMARK    7  A    between atoms: C_20  and  C_21
REMARK    8  A    between atoms: N_23  and  C_24
REMARK    9  A    between atoms: C_24  and  C_25
REMARK   10  A    between atoms: C_25  and  N_26
REMARK   11  A    between atoms: C_28  and  C_29
REMARK   12  A    between atoms: C_29  and  C_30
REMARK   13  A    between atoms: C_29  and  C_31
REMARK   14  A    between atoms: C_29  and  C_32
REMARK                            x       y       z     vdW  Elec       q    Type
REMARK                         _______ _______ _______ _____ _____    ______ ____
ROOT
ATOM      1  C   UNL     1      -0.070   9.993  19.698  0.00  0.00    +0.000 A 
ATOM      2  C   UNL     1      -0.044  10.423  21.031  0.00  0.00    +0.000 A 
ATOM      3  C   UNL     1      -0.697  11.599  21.434  0.00  0.00    +0.000 A 
ATOM      4  C   UNL     1      -0.740  11.981  22.784  0.00  0.00    +0.000 A 
ATOM      5  C   UNL     1      -1.394  13.149  23.171  0.00  0.00    +0.000 A 
ATOM      6  C   UNL     1      -1.959  13.981  22.209  0.00  0.00    +0.000 A 
ATOM      7  C   UNL     1      -1.924  13.614  20.863  0.00  0.00    +0.000 A 
ATOM      8  C   UNL     1      -1.334  12.403  20.467  0.00  0.00    +0.000 A 
ATOM      9  C   UNL     1      -1.405  11.944  19.145  0.00  0.00    +0.000 A 
ATOM     10  C   UNL     1      -0.841  10.711  18.763  0.00  0.00    +0.000 A 
ENDROOT
BRANCH   1  13
ATOM     11  C   UNL     1       1.821   8.856  18.604  0.00  0.00    +0.000 C 
ATOM     12  O   UNL     1       2.287   9.848  18.059  0.00  0.00    +0.000 OA
ATOM     13  N   UNL     1       0.691   8.833  19.413  0.00  0.00    +0.000 N 
ATOM     14  H   UNL     1       0.702   8.113  20.128  0.00  0.00    +0.000 HD
BRANCH  11  17
ATOM     15  C   UNL     1       4.337   6.235  17.523  0.00  0.00    +0.000 A 
ATOM     16  C   UNL     1       3.705   7.469  17.740  0.00  0.00    +0.000 A 
ATOM     17  C   UNL     1       2.506   7.543  18.457  0.00  0.00    +0.000 A 
ATOM     18  C   UNL     1       1.932   6.387  18.996  0.00  0.00    +0.000 A 
ATOM     19  C   UNL     1       2.551   5.137  18.861  0.00  0.00    +0.000 A 
ATOM     20  C   UNL     1       3.722   5.084  18.072  0.00  0.00    +0.000 A 
BRANCH  15  22
ATOM     21  C   UNL     1       5.449   6.306  15.190  0.00  0.00    +0.000 C 
ATOM     22  C   UNL     1       5.645   6.111  16.712  0.00  0.00    +0.000 C 
ATOM     23  C   UNL     1       6.255   4.709  16.919  0.00  0.00    +0.000 C 
ATOM     24  C   UNL     1       6.666   7.176  17.171  0.00  0.00    +0.000 C 
ENDBRANCH  15  22
BRANCH  19  25
ATOM     25  C   UNL     1       1.952   3.887  19.534  0.00  0.00    +0.000 C 
ATOM     26  C   UNL     1       3.084   3.038  20.140  0.00  0.00    +0.000 C 
ATOM     27  C   UNL     1       0.945   4.251  20.648  0.00  0.00    +0.000 C 
ATOM     28  C   UNL     1       1.168   3.011  18.524  0.00  0.00    +0.000 C 
ENDBRANCH  19  25
ENDBRANCH  11  17
ENDBRANCH   1  13
BRANCH  10  29
ATOM     29  C   UNL     1      -1.311  10.179  17.445  0.00  0.00    +0.000 C 
ATOM     30  O   UNL     1      -0.813   9.155  16.975  0.00  0.00    +0.000 OA
ATOM     31  N   UNL     1      -2.204  10.952  16.740  0.00  0.00    +0.000 N 
ATOM     32  H   UNL     1      -2.570  11.795  17.165  0.00  0.00    +0.000 HD
BRANCH  31  33
ATOM     33  C   UNL     1      -2.647  10.613  15.399  0.00  0.00    +0.000 C 
BRANCH  33  34
ATOM     34  C   UNL     1      -4.157  10.803  15.183  0.00  0.00    +0.000 C 
BRANCH  34  35
ATOM     35  N   UNL     1      -4.844  11.164  16.429  0.00  0.00    +0.000 NA
ATOM     36  H   UNL     1      -5.799  11.445  16.174  0.00  0.00    +0.000 HD
ATOM     37  H   UNL     1      -4.424  12.022  16.786  0.00  0.00    +0.000 HD
ENDBRANCH  34  35
ENDBRANCH  33  34
ENDBRANCH  31  33
ENDBRANCH  10  29
TORSDOF 8
ENDMDL
MODEL 7
REMARK VINA RESULT:      -7.8      0.162      3.121
REMARK  Name = 
REMARK  14 active torsions:
REMARK  status: ('A' for Active; 'I' for Inactive)
REMARK    1  A    between atoms: C_1  and  C_2
REMARK    2  A    between atoms: C_2  and  C_3
REMARK    3  A    between atoms: C_2  and  C_4
REMARK    4  A    between atoms: C_2  and  C_5
REMARK    5  A    between atoms: C_7  and  C_8
REMARK    6  A    between atoms: N_10  and  C_11
REMARK    7  A    between atoms: C_20  and  C_21
REMARK    8  A    between atoms: N_23  and  C_24
REMARK    9  A    between atoms: C_24  and  C_25
REMARK   10  A    between atoms: C_25  and  N_26
REMARK   11  A    between atoms: C_28  and  C_29
REMARK   12  A    between atoms: C_29  and  C_30
REMARK   13  A    between atoms: C_29  and  C_31
REMARK   14  A    between atoms: C_29  and  C_32
REMARK                            x       y       z     vdW  Elec       q    Type
REMARK                         _______ _______ _______ _____ _____    ______ ____
ROOT
ATOM      1  C   UNL     1      -0.188   9.892  19.721  0.00  0.00    +0.000 A 
ATOM      2  C   UNL     1      -0.087  10.385  21.029  0.00  0.00    +0.000 A 
ATOM      3  C   UNL     1      -0.768  11.544  21.431  0.00  0.00    +0.000 A 
ATOM      4  C   UNL     1      -0.732  11.986  22.762  0.00  0.00    +0.000 A 
ATOM      5  C   UNL     1      -1.415  13.138  23.148  0.00  0.00    +0.000 A 
ATOM      6  C   UNL     1      -2.092  13.896  22.197  0.00  0.00    +0.000 A 
ATOM      7  C   UNL     1      -2.137  13.469  20.869  0.00  0.00    +0.000 A 
ATOM      8  C   UNL     1      -1.515  12.271  20.481  0.00  0.00    +0.000 A 
ATOM      9  C   UNL     1      -1.659  11.748  19.189  0.00  0.00    +0.000 A 
ATOM     10  C   UNL     1      -1.062  10.528  18.818  0.00  0.00    +0.000 A 
ENDROOT
BRANCH   1  13
ATOM     11  C   UNL     1       1.742   8.823  18.626  0.00  0.00    +0.000 C 
ATOM     12  O   UNL     1       2.180   9.834  18.093  0.00  0.00    +0.000 OA
ATOM     13  N   UNL     1       0.609   8.759  19.429  0.00  0.00    +0.000 N 
ATOM     14  H   UNL     1       0.638   8.032  20.137  0.00  0.00    +0.000 HD
BRANCH  11  17
ATOM     15  C   UNL     1       2.666   5.169  19.021  0.00  0.00    +0.000 A 
ATOM     16  C   UNL     1       1.967   6.384  19.089  0.00  0.00    +0.000 A 
ATOM     17  C   UNL     1       2.467   7.534  18.470  0.00  0.00    +0.000 A 
ATOM     18  C   UNL     1       3.663   7.484  17.745  0.00  0.00    +0.000 A 
ATOM     19  C   UNL     1       4.371   6.284  17.594  0.00  0.00    +0.000 A 
ATOM     20  C   UNL     1       3.879   5.157  18.289  0.00  0.00    +0.000 A 
BRANCH  15  22
ATOM     21  C   UNL     1       1.068   3.139  18.914  0.00  0.00    +0.000 C 
ATOM     22  C   UNL     1       2.160   3.887  19.716  0.00  0.00    +0.000 C 
ATOM     23  C   UNL     1       1.554   4.244  21.090  0.00  0.00    +0.000 C 
ATOM     24  C   UNL     1       3.323   2.891  19.923  0.00  0.00    +0.000 C 
ENDBRANCH  15  22
BRANCH  19  25
ATOM     25  C   UNL     1       5.639   6.225  16.721  0.00  0.00    +0.000 C 
ATOM     26  C   UNL     1       6.223   4.802  16.759  0.00  0.00    +0.000 C 
ATOM     27  C   UNL     1       5.353   6.611  15.252  0.00  0.00    +0.000 C 
ATOM     28  C   UNL     1       6.724   7.215  17.216  0.00  0.00    +0.000 C 
ENDBRANCH  19  25
ENDBRANCH  11  17
ENDBRANCH   1  13
BRANCH  10  29
ATOM     29  C   UNL     1      -1.600   9.913  17.563  0.00  0.00    +0.000 C 
ATOM     30  O   UNL     1      -0.849   9.311  16.795  0.00  0.00    +0.000 OA
ATOM     31  N   UNL     1      -2.915  10.174  17.252  0.00  0.00    +0.000 N 
ATOM     32  H   UNL     1      -3.484  10.690  17.911  0.00  0.00    +0.000 HD
BRANCH  31  33
ATOM     33  C   UNL     1      -3.526   9.741  16.009  0.00  0.00    +0.000 C 
BRANCH  33  34
ATOM     34  C   UNL     1      -3.299  10.711  14.839  0.00  0.00    +0.000 C 
BRANCH  34  35
ATOM     35  N   UNL     1      -2.772  10.022  13.654  0.00  0.00    +0.000 NA
ATOM     36  H   UNL     1      -3.455   9.297  13.401  0.00  0.00    +0.000 HD
ATOM     37  H   UNL     1      -1.947   9.493  13.936  0.00  0.00    +0.000 HD
ENDBRANCH  34  35
ENDBRANCH  33  34
ENDBRANCH  31  33
ENDBRANCH  10  29
TORSDOF 8
ENDMDL
MODEL 8
REMARK VINA RESULT:      -7.8      2.118      8.860
REMARK  Name = 
REMARK  14 active torsions:
REMARK  status: ('A' for Active; 'I' for Inactive)
REMARK    1  A    between atoms: C_1  and  C_2
REMARK    2  A    between atoms: C_2  and  C_3
REMARK    3  A    between atoms: C_2  and  C_4
REMARK    4  A    between atoms: C_2  and  C_5
REMARK    5  A    between atoms: C_7  and  C_8
REMARK    6  A    between atoms: N_10  and  C_11
REMARK    7  A    between atoms: C_20  and  C_21
REMARK    8  A    between atoms: N_23  and  C_24
REMARK    9  A    between atoms: C_24  and  C_25
REMARK   10  A    between atoms: C_25  and  N_26
REMARK   11  A    between atoms: C_28  and  C_29
REMARK   12  A    between atoms: C_29  and  C_30
REMARK   13  A    between atoms: C_29  and  C_31
REMARK   14  A    between atoms: C_29  and  C_32
REMARK                            x       y       z     vdW  Elec       q    Type
REMARK                         _______ _______ _______ _____ _____    ______ ____
ROOT
ATOM      1  C   UNL     1       2.954   6.928  18.308  0.00  0.00    +0.000 A 
ATOM      2  C   UNL     1       3.596   7.100  17.075  0.00  0.00    +0.000 A 
ATOM      3  C   UNL     1       4.714   6.331  16.717  0.00  0.00    +0.000 A 
ATOM      4  C   UNL     1       5.302   6.447  15.448  0.00  0.00    +0.000 A 
ATOM      5  C   UNL     1       6.410   5.676  15.104  0.00  0.00    +0.000 A 
ATOM      6  C   UNL     1       6.981   4.822  16.044  0.00  0.00    +0.000 A 
ATOM      7  C   UNL     1       6.407   4.695  17.310  0.00  0.00    +0.000 A 
ATOM      8  C   UNL     1       5.247   5.412  17.644  0.00  0.00    +0.000 A 
ATOM      9  C   UNL     1       4.572   5.202  18.854  0.00  0.00    +0.000 A 
ATOM     10  C   UNL     1       3.388   5.900  19.167  0.00  0.00    +0.000 A 
ENDROOT
BRANCH   1  13
ATOM     11  C   UNL     1       1.875   9.135  18.124  0.00  0.00    +0.000 C 
ATOM     12  O   UNL     1       2.755   9.667  17.459  0.00  0.00    +0.000 OA
ATOM     13  N   UNL     1       1.886   7.820  18.574  0.00  0.00    +0.000 N 
ATOM     14  H   UNL     1       0.966   7.405  18.678  0.00  0.00    +0.000 HD
BRANCH  11  17
ATOM     15  C   UNL     1      -1.674  10.458  17.989  0.00  0.00    +0.000 A 
ATOM     16  C   UNL     1      -0.521   9.700  17.732  0.00  0.00    +0.000 A 
ATOM     17  C   UNL     1       0.648   9.901  18.471  0.00  0.00    +0.000 A 
ATOM     18  C   UNL     1       0.679  10.846  19.503  0.00  0.00    +0.000 A 
ATOM     19  C   UNL     1      -0.460  11.589  19.841  0.00  0.00    +0.000 A 
ATOM     20  C   UNL     1      -1.604  11.414  19.031  0.00  0.00    +0.000 A 
BRANCH  15  22
ATOM     21  C   UNL     1      -2.729   9.888  15.698  0.00  0.00    +0.000 C 
ATOM     22  C   UNL     1      -2.973  10.284  17.174  0.00  0.00    +0.000 C 
ATOM     23  C   UNL     1      -3.766  11.608  17.167  0.00  0.00    +0.000 C 
ATOM     24  C   UNL     1      -3.852   9.175  17.793  0.00  0.00    +0.000 C 
ENDBRANCH  15  22
BRANCH  19  25
ATOM     25  C   UNL     1      -0.436  12.563  21.035  0.00  0.00    +0.000 C 
ATOM     26  C   UNL     1       0.941  13.246  21.113  0.00  0.00    +0.000 C 
ATOM     27  C   UNL     1      -1.530  13.649  20.923  0.00  0.00    +0.000 C 
ATOM     28  C   UNL     1      -0.699  11.833  22.377  0.00  0.00    +0.000 C 
ENDBRANCH  19  25
ENDBRANCH  11  17
ENDBRANCH   1  13
BRANCH  10  29
ATOM     29  C   UNL     1       2.584   5.316  20.287  0.00  0.00    +0.000 C 
ATOM     30  O   UNL     1       1.730   5.995  20.858  0.00  0.00    +0.000 OA
ATOM     31  N   UNL     1       2.941   4.061  20.726  0.00  0.00    +0.000 N 
ATOM     32  H   UNL     1       3.663   3.553  20.231  0.00  0.00    +0.000 HD
BRANCH  31  33
ATOM     33  C   UNL     1       2.324   3.429  21.878  0.00  0.00    +0.000 C 
BRANCH  33  34
ATOM     34  C   UNL     1       1.088   2.586  21.531  0.00  0.00    +0.000 C 
BRANCH  34  35
ATOM     35  N   UNL     1       0.475   3.014  20.267  0.00  0.00    +0.000 NA
ATOM     36  H   UNL     1       0.827   2.384  19.535  0.00  0.00    +0.000 HD
ATOM     37  H   UNL     1       0.865   3.922  20.016  0.00  0.00    +0.000 HD
ENDBRANCH  34  35
ENDBRANCH  33  34
ENDBRANCH  31  33
ENDBRANCH  10  29
TORSDOF 8
ENDMDL
MODEL 9
REMARK VINA RESULT:      -7.7      2.225      8.917
REMARK  Name = 
REMARK  14 active torsions:
REMARK  status: ('A' for Active; 'I' for Inactive)
REMARK    1  A    between atoms: C_1  and  C_2
REMARK    2  A    between atoms: C_2  and  C_3
REMARK    3  A    between atoms: C_2  and  C_4
REMARK    4  A    between atoms: C_2  and  C_5
REMARK    5  A    between atoms: C_7  and  C_8
REMARK    6  A    between atoms: N_10  and  C_11
REMARK    7  A    between atoms: C_20  and  C_21
REMARK    8  A    between atoms: N_23  and  C_24
REMARK    9  A    between atoms: C_24  and  C_25
REMARK   10  A    between atoms: C_25  and  N_26
REMARK   11  A    between atoms: C_28  and  C_29
REMARK   12  A    between atoms: C_29  and  C_30
REMARK   13  A    between atoms: C_29  and  C_31
REMARK   14  A    between atoms: C_29  and  C_32
REMARK                            x       y       z     vdW  Elec       q    Type
REMARK                         _______ _______ _______ _____ _____    ______ ____
ROOT
ATOM      1  C   UNL     1       2.922   6.967  18.563  0.00  0.00    +0.000 A 
ATOM      2  C   UNL     1       3.825   7.245  17.528  0.00  0.00    +0.000 A 
ATOM      3  C   UNL     1       4.915   6.402  17.260  0.00  0.00    +0.000 A 
ATOM      4  C   UNL     1       5.767   6.638  16.171  0.00  0.00    +0.000 A 
ATOM      5  C   UNL     1       6.844   5.791  15.915  0.00  0.00    +0.000 A 
ATOM      6  C   UNL     1       7.118   4.734  16.778  0.00  0.00    +0.000 A 
ATOM      7  C   UNL     1       6.279   4.487  17.865  0.00  0.00    +0.000 A 
ATOM      8  C   UNL     1       5.148   5.288  18.093  0.00  0.00    +0.000 A 
ATOM      9  C   UNL     1       4.214   4.981  19.091  0.00  0.00    +0.000 A 
ATOM     10  C   UNL     1       3.063   5.769  19.290  0.00  0.00    +0.000 A 
ENDROOT
BRANCH   1  13
ATOM     11  C   UNL     1       1.846   9.123  18.050  0.00  0.00    +0.000 C 
ATOM     12  O   UNL     1       2.623   9.461  17.166  0.00  0.00    +0.000 OA
ATOM     13  N   UNL     1       1.912   7.938  18.774  0.00  0.00    +0.000 N 
ATOM     14  H   UNL     1       1.014   7.593  19.096  0.00  0.00    +0.000 HD
BRANCH  11  17
ATOM     15  C   UNL     1      -1.624  10.646  17.993  0.00  0.00    +0.000 A 
ATOM     16  C   UNL     1      -0.535   9.795  17.747  0.00  0.00    +0.000 A 
ATOM     17  C   UNL     1       0.690   9.995  18.390  0.00  0.00    +0.000 A 
ATOM     18  C   UNL     1       0.843  11.035  19.314  0.00  0.00    +0.000 A 
ATOM     19  C   UNL     1      -0.227  11.877  19.642  0.00  0.00    +0.000 A 
ATOM     20  C   UNL     1      -1.431  11.695  18.925  0.00  0.00    +0.000 A 
BRANCH  15  22
ATOM     21  C   UNL     1      -3.776   9.234  17.755  0.00  0.00    +0.000 C 
ATOM     22  C   UNL     1      -2.982  10.474  17.280  0.00  0.00    +0.000 C 
ATOM     23  C   UNL     1      -2.757  10.319  15.761  0.00  0.00    +0.000 C 
ATOM     24  C   UNL     1      -3.883  11.703  17.532  0.00  0.00    +0.000 C 
ENDBRANCH  15  22
BRANCH  19  25
ATOM     25  C   UNL     1      -0.069  12.962  20.725  0.00  0.00    +0.000 C 
ATOM     26  C   UNL     1       1.414  13.350  20.851  0.00  0.00    +0.000 C 
ATOM     27  C   UNL     1      -0.894  14.230  20.405  0.00  0.00    +0.000 C 
ATOM     28  C   UNL     1      -0.568  12.470  22.108  0.00  0.00    +0.000 C 
ENDBRANCH  19  25
ENDBRANCH  11  17
ENDBRANCH   1  13
BRANCH  10  29
ATOM     29  C   UNL     1       1.987   5.127  20.109  0.00  0.00    +0.000 C 
ATOM     30  O   UNL     1       1.426   5.761  21.004  0.00  0.00    +0.000 OA
ATOM     31  N   UNL     1       1.765   3.784  19.909  0.00  0.00    +0.000 N 
ATOM     32  H   UNL     1       2.267   3.306  19.171  0.00  0.00    +0.000 HD
BRANCH  31  33
ATOM     33  C   UNL     1       0.838   3.014  20.718  0.00  0.00    +0.000 C 
BRANCH  33  34
ATOM     34  C   UNL     1       1.473   2.417  21.984  0.00  0.00    +0.000 C 
BRANCH  34  35
ATOM     35  N   UNL     1       2.936   2.354  21.881  0.00  0.00    +0.000 NA
ATOM     36  H   UNL     1       3.178   1.386  21.635  0.00  0.00    +0.000 HD
ATOM     37  H   UNL     1       3.325   2.473  22.817  0.00  0.00    +0.000 HD
ENDBRANCH  34  35
ENDBRANCH  33  34
ENDBRANCH  31  33
ENDBRANCH  10  29
TORSDOF 8
ENDMDL
