MODEL 1
REMARK VINA RESULT:      -7.1      0.000      0.000
REMARK  Name = 
REMARK  5 active torsions:
REMARK  status: ('A' for Active; 'I' for Inactive)
REMARK    1  A    between atoms: C_1  and  N_2
REMARK    2  A    between atoms: N_2  and  C_3
REMARK    3  A    between atoms: C_3  and  C_4
REMARK    4  A    between atoms: C_8  and  O_9
REMARK    5  A    between atoms: C_10  and  C_12
REMARK                            x       y       z     vdW  Elec       q    Type
REMARK                         _______ _______ _______ _____ _____    ______ ____
ROOT
ATOM      1  C   UNL     1       3.832   2.146  17.448  0.00  0.00    +0.000 C 
ATOM      2  N   UNL     1       3.701   3.312  18.315  0.00  0.00    +0.000 N 
ATOM      3  C   UNL     1       2.504   4.042  18.136  0.00  0.00    +0.000 C 
ATOM      4  O   UNL     1       1.643   3.688  17.338  0.00  0.00    +0.000 OA
ENDROOT
BRANCH   3   5
ATOM      5  C   UNL     1       2.242   5.295  18.896  0.00  0.00    +0.000 A 
ATOM      6  C   UNL     1       2.357   6.533  18.250  0.00  0.00    +0.000 A 
ATOM      7  C   UNL     1       2.182   7.713  18.960  0.00  0.00    +0.000 A 
ATOM      8  F   UNL     1       2.448   8.875  18.339  0.00  0.00    +0.000 F 
ATOM      9  C   UNL     1       1.766   7.689  20.284  0.00  0.00    +0.000 A 
ATOM     10 CL   UNL     1       1.514   9.153  21.149  0.00  0.00    +0.000 Cl
ATOM     11  C   UNL     1       1.548   6.466  20.917  0.00  0.00    +0.000 A 
ATOM     12  C   UNL     1       1.808   5.269  20.234  0.00  0.00    +0.000 A 
ATOM     13 CL   UNL     1       1.611   3.810  21.145  0.00  0.00    +0.000 Cl
ENDBRANCH   3   5
BRANCH   2  14
ATOM     14  C   UNL     1       4.894   3.797  19.036  0.00  0.00    +0.000 C 
BRANCH  14  15
ATOM     15  C   UNL     1       5.491   5.121  18.563  0.00  0.00    +0.000 C 
ATOM     16  C   UNL     1       6.748   5.535  19.349  0.00  0.00    +0.000 C 
ATOM     17  C   UNL     1       7.600   6.348  18.367  0.00  0.00    +0.000 C 
ATOM     18  C   UNL     1       6.851   6.324  17.033  0.00  0.00    +0.000 C 
ATOM     19  C   UNL     1       5.976   5.083  17.114  0.00  0.00    +0.000 C 
BRANCH  19  20
ATOM     20  O   UNL     1       6.740   3.913  16.839  0.00  0.00    +0.000 OA
ATOM     21  H   UNL     1       6.652   3.684  15.899  0.00  0.00    +0.000 HD
ENDBRANCH  19  20
ENDBRANCH  14  15
ENDBRANCH   2  14
TORSDOF 4
ENDMDL
MODEL 2
REMARK VINA RESULT:      -6.9      3.303      5.447
REMARK  Name = 
REMARK  5 active torsions:
REMARK  status: ('A' for Active; 'I' for Inactive)
REMARK    1  A    between atoms: C_1  and  N_2
REMARK    2  A    between atoms: N_2  and  C_3
REMARK    3  A    between atoms: C_3  and  C_4
REMARK    4  A    between atoms: C_8  and  O_9
REMARK    5  A    between atoms: C_10  and  C_12
REMARK                            x       y       z     vdW  Elec       q    Type
REMARK                         _______ _______ _______ _____ _____    ______ ____
ROOT
ATOM      1  C   UNL     1       3.054   2.772  16.661  0.00  0.00    +0.000 C 
ATOM      2  N   UNL     1       3.785   3.901  17.226  0.00  0.00    +0.000 N 
ATOM      3  C   UNL     1       5.081   4.085  16.690  0.00  0.00    +0.000 C 
ATOM      4  O   UNL     1       5.521   3.366  15.799  0.00  0.00    +0.000 OA
ENDROOT
BRANCH   3   5
ATOM      5  C   UNL     1       5.984   5.150  17.202  0.00  0.00    +0.000 A 
ATOM      6  C   UNL     1       6.945   4.836  18.173  0.00  0.00    +0.000 A 
ATOM      7  C   UNL     1       7.750   5.832  18.710  0.00  0.00    +0.000 A 
ATOM      8  F   UNL     1       8.551   5.515  19.742  0.00  0.00    +0.000 F 
ATOM      9  C   UNL     1       7.710   7.125  18.208  0.00  0.00    +0.000 A 
ATOM     10 CL   UNL     1       8.736   8.346  18.849  0.00  0.00    +0.000 Cl
ATOM     11  C   UNL     1       6.832   7.435  17.170  0.00  0.00    +0.000 A 
ATOM     12  C   UNL     1       5.952   6.458  16.683  0.00  0.00    +0.000 A 
ATOM     13 CL   UNL     1       4.828   6.975  15.473  0.00  0.00    +0.000 Cl
ENDBRANCH   3   5
BRANCH   2  14
ATOM     14  C   UNL     1       3.280   4.526  18.464  0.00  0.00    +0.000 C 
BRANCH  14  15
ATOM     15  C   UNL     1       2.494   3.627  19.416  0.00  0.00    +0.000 C 
ATOM     16  C   UNL     1       3.393   2.742  20.297  0.00  0.00    +0.000 C 
ATOM     17  C   UNL     1       2.611   2.524  21.598  0.00  0.00    +0.000 C 
ATOM     18  C   UNL     1       1.322   3.338  21.460  0.00  0.00    +0.000 C 
ATOM     19  C   UNL     1       1.658   4.405  20.432  0.00  0.00    +0.000 C 
BRANCH  19  20
ATOM     20  O   UNL     1       2.398   5.464  21.031  0.00  0.00    +0.000 OA
ATOM     21  H   UNL     1       3.310   5.449  20.699  0.00  0.00    +0.000 HD
ENDBRANCH  19  20
ENDBRANCH  14  15
ENDBRANCH   2  14
TORSDOF 4
ENDMDL
MODEL 3
REMARK VINA RESULT:      -6.7      1.402      1.652
REMARK  Name = 
REMARK  5 active torsions:
REMARK  status: ('A' for Active; 'I' for Inactive)
REMARK    1  A    between atoms: C_1  and  N_2
REMARK    2  A    between atoms: N_2  and  C_3
REMARK    3  A    between atoms: C_3  and  C_4
REMARK    4  A    between atoms: C_8  and  O_9
REMARK    5  A    between atoms: C_10  and  C_12
REMARK                            x       y       z     vdW  Elec       q    Type
REMARK                         _______ _______ _______ _____ _____    ______ ____
ROOT
ATOM      1  C   UNL     1       4.489   3.520  16.720  0.00  0.00    +0.000 C 
ATOM      2  N   UNL     1       4.198   4.829  17.294  0.00  0.00    +0.000 N 
ATOM      3  C   UNL     1       2.947   4.917  17.948  0.00  0.00    +0.000 C 
ATOM      4  O   UNL     1       2.199   3.950  18.045  0.00  0.00    +0.000 OA
ENDROOT
BRANCH   3   5
ATOM      5  C   UNL     1       2.469   6.199  18.532  0.00  0.00    +0.000 A 
ATOM      6  C   UNL     1       2.259   7.304  17.697  0.00  0.00    +0.000 A 
ATOM      7  C   UNL     1       1.878   8.526  18.234  0.00  0.00    +0.000 A 
ATOM      8  F   UNL     1       1.833   9.594  17.419  0.00  0.00    +0.000 F 
ATOM      9  C   UNL     1       1.572   8.644  19.583  0.00  0.00    +0.000 A 
ATOM     10 CL   UNL     1       1.063  10.150  20.237  0.00  0.00    +0.000 Cl
ATOM     11  C   UNL     1       1.677   7.529  20.414  0.00  0.00    +0.000 A 
ATOM     12  C   UNL     1       2.148   6.313  19.897  0.00  0.00    +0.000 A 
ATOM     13 CL   UNL     1       2.345   5.024  21.035  0.00  0.00    +0.000 Cl
ENDBRANCH   3   5
BRANCH   2  14
ATOM     14  C   UNL     1       5.031   5.980  16.895  0.00  0.00    +0.000 C 
BRANCH  14  15
ATOM     15  C   UNL     1       6.009   6.516  17.939  0.00  0.00    +0.000 C 
ATOM     16  C   UNL     1       6.691   5.406  18.758  0.00  0.00    +0.000 C 
ATOM     17  C   UNL     1       8.065   5.965  19.148  0.00  0.00    +0.000 C 
ATOM     18  C   UNL     1       8.164   7.344  18.492  0.00  0.00    +0.000 C 
ATOM     19  C   UNL     1       7.184   7.281  17.331  0.00  0.00    +0.000 C 
BRANCH  19  20
ATOM     20  O   UNL     1       7.758   6.589  16.228  0.00  0.00    +0.000 OA
ATOM     21  H   UNL     1       8.397   7.167  15.780  0.00  0.00    +0.000 HD
ENDBRANCH  19  20
ENDBRANCH  14  15
ENDBRANCH   2  14
TORSDOF 4
ENDMDL
MODEL 4
REMARK VINA RESULT:      -6.7      0.921      1.139
REMARK  Name = 
REMARK  5 active torsions:
REMARK  status: ('A' for Active; 'I' for Inactive)
REMARK    1  A    between atoms: C_1  and  N_2
REMARK    2  A    between atoms: N_2  and  C_3
REMARK    3  A    between atoms: C_3  and  C_4
REMARK    4  A    between atoms: C_8  and  O_9
REMARK    5  A    between atoms: C_10  and  C_12
REMARK                            x       y       z     vdW  Elec       q    Type
REMARK                         _______ _______ _______ _____ _____    ______ ____
ROOT
ATOM      1  C   UNL     1       3.786   2.118  17.498  0.00  0.00    +0.000 C 
ATOM      2  N   UNL     1       3.671   3.305  18.339  0.00  0.00    +0.000 N 
ATOM      3  C   UNL     1       2.418   3.957  18.262  0.00  0.00    +0.000 C 
ATOM      4  O   UNL     1       1.505   3.523  17.568  0.00  0.00    +0.000 OA
ENDROOT
BRANCH   3   5
ATOM      5  C   UNL     1       2.158   5.219  19.006  0.00  0.00    +0.000 A 
ATOM      6  C   UNL     1       2.250   6.447  18.339  0.00  0.00    +0.000 A 
ATOM      7  C   UNL     1       2.076   7.637  19.033  0.00  0.00    +0.000 A 
ATOM      8  F   UNL     1       2.320   8.792  18.390  0.00  0.00    +0.000 F 
ATOM      9  C   UNL     1       1.682   7.630  20.364  0.00  0.00    +0.000 A 
ATOM     10 CL   UNL     1       1.430   9.106  21.210  0.00  0.00    +0.000 Cl
ATOM     11  C   UNL     1       1.485   6.416  21.019  0.00  0.00    +0.000 A 
ATOM     12  C   UNL     1       1.746   5.210  20.351  0.00  0.00    +0.000 A 
ATOM     13 CL   UNL     1       1.577   3.765  21.288  0.00  0.00    +0.000 Cl
ENDBRANCH   3   5
BRANCH   2  14
ATOM     14  C   UNL     1       4.898   3.886  18.918  0.00  0.00    +0.000 C 
BRANCH  14  15
ATOM     15  C   UNL     1       5.805   4.665  17.967  0.00  0.00    +0.000 C 
ATOM     16  C   UNL     1       5.244   6.047  17.589  0.00  0.00    +0.000 C 
ATOM     17  C   UNL     1       6.468   6.931  17.325  0.00  0.00    +0.000 C 
ATOM     18  C   UNL     1       7.692   6.063  17.623  0.00  0.00    +0.000 C 
ATOM     19  C   UNL     1       7.173   4.990  18.566  0.00  0.00    +0.000 C 
BRANCH  19  20
ATOM     20  O   UNL     1       7.068   5.496  19.892  0.00  0.00    +0.000 OA
ATOM     21  H   UNL     1       7.019   6.466  19.864  0.00  0.00    +0.000 HD
ENDBRANCH  19  20
ENDBRANCH  14  15
ENDBRANCH   2  14
TORSDOF 4
ENDMDL
MODEL 5
REMARK VINA RESULT:      -6.6      2.966      4.601
REMARK  Name = 
REMARK  5 active torsions:
REMARK  status: ('A' for Active; 'I' for Inactive)
REMARK    1  A    between atoms: C_1  and  N_2
REMARK    2  A    between atoms: N_2  and  C_3
REMARK    3  A    between atoms: C_3  and  C_4
REMARK    4  A    between atoms: C_8  and  O_9
REMARK    5  A    between atoms: C_10  and  C_12
REMARK                            x       y       z     vdW  Elec       q    Type
REMARK                         _______ _______ _______ _____ _____    ______ ____
ROOT
ATOM      1  C   UNL     1       7.494   6.832  18.050  0.00  0.00    +0.000 C 
ATOM      2  N   UNL     1       6.182   6.216  17.883  0.00  0.00    +0.000 N 
ATOM      3  C   UNL     1       5.796   5.366  18.946  0.00  0.00    +0.000 C 
ATOM      4  O   UNL     1       6.504   5.202  19.933  0.00  0.00    +0.000 OA
ENDROOT
BRANCH   3   5
ATOM      5  C   UNL     1       4.516   4.608  18.902  0.00  0.00    +0.000 A 
ATOM      6  C   UNL     1       4.541   3.211  18.801  0.00  0.00    +0.000 A 
ATOM      7  C   UNL     1       3.357   2.495  18.691  0.00  0.00    +0.000 A 
ATOM      8  F   UNL     1       3.432   1.175  18.446  0.00  0.00    +0.000 F 
ATOM      9  C   UNL     1       2.129   3.131  18.809  0.00  0.00    +0.000 A 
ATOM     10 CL   UNL     1       0.665   2.235  18.711  0.00  0.00    +0.000 Cl
ATOM     11  C   UNL     1       2.083   4.510  19.012  0.00  0.00    +0.000 A 
ATOM     12  C   UNL     1       3.272   5.253  19.035  0.00  0.00    +0.000 A 
ATOM     13 CL   UNL     1       3.099   6.969  19.182  0.00  0.00    +0.000 Cl
ENDBRANCH   3   5
BRANCH   2  14
ATOM     14  C   UNL     1       5.540   6.264  16.556  0.00  0.00    +0.000 C 
BRANCH  14  15
ATOM     15  C   UNL     1       5.567   4.977  15.732  0.00  0.00    +0.000 C 
ATOM     16  C   UNL     1       4.801   5.092  14.402  0.00  0.00    +0.000 C 
ATOM     17  C   UNL     1       5.506   4.132  13.436  0.00  0.00    +0.000 C 
ATOM     18  C   UNL     1       6.691   3.547  14.207  0.00  0.00    +0.000 C 
ATOM     19  C   UNL     1       6.974   4.568  15.296  0.00  0.00    +0.000 C 
BRANCH  19  20
ATOM     20  O   UNL     1       7.711   5.668  14.772  0.00  0.00    +0.000 OA
ATOM     21  H   UNL     1       8.247   6.064  15.479  0.00  0.00    +0.000 HD
ENDBRANCH  19  20
ENDBRANCH  14  15
ENDBRANCH   2  14
TORSDOF 4
ENDMDL
MODEL 6
REMARK VINA RESULT:      -6.4      1.457      1.802
REMARK  Name = 
REMARK  5 active torsions:
REMARK  status: ('A' for Active; 'I' for Inactive)
REMARK    1  A    between atoms: C_1  and  N_2
REMARK    2  A    between atoms: N_2  and  C_3
REMARK    3  A    between atoms: C_3  and  C_4
REMARK    4  A    between atoms: C_8  and  O_9
REMARK    5  A    between atoms: C_10  and  C_12
REMARK                            x       y       z     vdW  Elec       q    Type
REMARK                         _______ _______ _______ _____ _____    ______ ____
ROOT
ATOM      1  C   UNL     1       4.425   3.687  16.456  0.00  0.00    +0.000 C 
ATOM      2  N   UNL     1       4.161   4.951  17.134  0.00  0.00    +0.000 N 
ATOM      3  C   UNL     1       2.898   5.023  17.767  0.00  0.00    +0.000 C 
ATOM      4  O   UNL     1       2.119   4.077  17.764  0.00  0.00    +0.000 OA
ENDROOT
BRANCH   3   5
ATOM      5  C   UNL     1       2.445   6.266  18.447  0.00  0.00    +0.000 A 
ATOM      6  C   UNL     1       2.218   7.425  17.694  0.00  0.00    +0.000 A 
ATOM      7  C   UNL     1       1.860   8.610  18.321  0.00  0.00    +0.000 A 
ATOM      8  F   UNL     1       1.799   9.730  17.580  0.00  0.00    +0.000 F 
ATOM      9  C   UNL     1       1.596   8.640  19.683  0.00  0.00    +0.000 A 
ATOM     10 CL   UNL     1       1.115  10.102  20.451  0.00  0.00    +0.000 Cl
ATOM     11  C   UNL     1       1.717   7.473  20.436  0.00  0.00    +0.000 A 
ATOM     12  C   UNL     1       2.165   6.292  19.827  0.00  0.00    +0.000 A 
ATOM     13 CL   UNL     1       2.387   4.929  20.870  0.00  0.00    +0.000 Cl
ENDBRANCH   3   5
BRANCH   2  14
ATOM     14  C   UNL     1       5.038   6.104  16.853  0.00  0.00    +0.000 C 
BRANCH  14  15
ATOM     15  C   UNL     1       6.492   5.990  17.309  0.00  0.00    +0.000 C 
ATOM     16  C   UNL     1       7.166   7.355  17.535  0.00  0.00    +0.000 C 
ATOM     17  C   UNL     1       8.214   7.121  18.629  0.00  0.00    +0.000 C 
ATOM     18  C   UNL     1       8.070   5.658  19.051  0.00  0.00    +0.000 C 
ATOM     19  C   UNL     1       6.648   5.290  18.659  0.00  0.00    +0.000 C 
BRANCH  19  20
ATOM     20  O   UNL     1       5.721   5.778  19.624  0.00  0.00    +0.000 OA
ATOM     21  H   UNL     1       6.126   6.509  20.120  0.00  0.00    +0.000 HD
ENDBRANCH  19  20
ENDBRANCH  14  15
ENDBRANCH   2  14
TORSDOF 4
ENDMDL
MODEL 7
REMARK VINA RESULT:      -6.4      1.266      1.677
REMARK  Name = 
REMARK  5 active torsions:
REMARK  status: ('A' for Active; 'I' for Inactive)
REMARK    1  A    between atoms: C_1  and  N_2
REMARK    2  A    between atoms: N_2  and  C_3
REMARK    3  A    between atoms: C_3  and  C_4
REMARK    4  A    between atoms: C_8  and  O_9
REMARK    5  A    between atoms: C_10  and  C_12
REMARK                            x       y       z     vdW  Elec       q    Type
REMARK                         _______ _______ _______ _____ _____    ______ ____
ROOT
ATOM      1  C   UNL     1       3.861   1.569  17.908  0.00  0.00    +0.000 C 
ATOM      2  N   UNL     1       3.813   2.951  18.375  0.00  0.00    +0.000 N 
ATOM      3  C   UNL     1       2.509   3.442  18.616  0.00  0.00    +0.000 C 
ATOM      4  O   UNL     1       1.515   2.737  18.474  0.00  0.00    +0.000 OA
ENDROOT
BRANCH   3   5
ATOM      5  C   UNL     1       2.279   4.851  19.034  0.00  0.00    +0.000 A 
ATOM      6  C   UNL     1       2.251   5.864  18.066  0.00  0.00    +0.000 A 
ATOM      7  C   UNL     1       2.105   7.192  18.445  0.00  0.00    +0.000 A 
ATOM      8  F   UNL     1       2.234   8.141  17.501  0.00  0.00    +0.000 F 
ATOM      9  C   UNL     1       1.856   7.529  19.768  0.00  0.00    +0.000 A 
ATOM     10 CL   UNL     1       1.638   9.171  20.227  0.00  0.00    +0.000 Cl
ATOM     11  C   UNL     1       1.779   6.526  20.733  0.00  0.00    +0.000 A 
ATOM     12  C   UNL     1       2.014   5.190  20.374  0.00  0.00    +0.000 A 
ATOM     13 CL   UNL     1       2.004   4.038  21.664  0.00  0.00    +0.000 Cl
ENDBRANCH   3   5
BRANCH   2  14
ATOM     14  C   UNL     1       5.026   3.782  18.255  0.00  0.00    +0.000 C 
BRANCH  14  15
ATOM     15  C   UNL     1       5.668   3.866  16.872  0.00  0.00    +0.000 C 
ATOM     16  C   UNL     1       4.837   4.681  15.865  0.00  0.00    +0.000 C 
ATOM     17  C   UNL     1       5.851   5.292  14.891  0.00  0.00    +0.000 C 
ATOM     18  C   UNL     1       7.233   4.873  15.398  0.00  0.00    +0.000 C 
ATOM     19  C   UNL     1       7.020   4.579  16.874  0.00  0.00    +0.000 C 
BRANCH  19  20
ATOM     20  O   UNL     1       6.984   5.787  17.626  0.00  0.00    +0.000 OA
ATOM     21  H   UNL     1       7.568   5.705  18.398  0.00  0.00    +0.000 HD
ENDBRANCH  19  20
ENDBRANCH  14  15
ENDBRANCH   2  14
TORSDOF 4
ENDMDL
MODEL 8
REMARK VINA RESULT:      -6.2      1.489      1.924
REMARK  Name = 
REMARK  5 active torsions:
REMARK  status: ('A' for Active; 'I' for Inactive)
REMARK    1  A    between atoms: C_1  and  N_2
REMARK    2  A    between atoms: N_2  and  C_3
REMARK    3  A    between atoms: C_3  and  C_4
REMARK    4  A    between atoms: C_8  and  O_9
REMARK    5  A    between atoms: C_10  and  C_12
REMARK                            x       y       z     vdW  Elec       q    Type
REMARK                         _______ _______ _______ _____ _____    ______ ____
ROOT
ATOM      1  C   UNL     1       5.355   3.662  15.646  0.00  0.00    +0.000 C 
ATOM      2  N   UNL     1       4.908   4.618  16.653  0.00  0.00    +0.000 N 
ATOM      3  C   UNL     1       3.674   4.293  17.262  0.00  0.00    +0.000 C 
ATOM      4  O   UNL     1       3.063   3.268  16.979  0.00  0.00    +0.000 OA
ENDROOT
BRANCH   3   5
ATOM      5  C   UNL     1       3.045   5.196  18.263  0.00  0.00    +0.000 A 
ATOM      6  C   UNL     1       2.797   6.534  17.928  0.00  0.00    +0.000 A 
ATOM      7  C   UNL     1       2.272   7.407  18.872  0.00  0.00    +0.000 A 
ATOM      8  F   UNL     1       2.191   8.711  18.557  0.00  0.00    +0.000 F 
ATOM      9  C   UNL     1       1.864   6.945  20.116  0.00  0.00    +0.000 A 
ATOM     10 CL   UNL     1       1.180   8.022  21.268  0.00  0.00    +0.000 Cl
ATOM     11  C   UNL     1       2.008   5.595  20.432  0.00  0.00    +0.000 A 
ATOM     12  C   UNL     1       2.620   4.724  19.519  0.00  0.00    +0.000 A 
ATOM     13 CL   UNL     1       2.849   3.094  20.052  0.00  0.00    +0.000 Cl
ENDBRANCH   3   5
BRANCH   2  14
ATOM     14  C   UNL     1       5.570   5.936  16.723  0.00  0.00    +0.000 C 
BRANCH  14  15
ATOM     15  C   UNL     1       6.960   5.973  17.357  0.00  0.00    +0.000 C 
ATOM     16  C   UNL     1       7.470   7.402  17.615  0.00  0.00    +0.000 C 
ATOM     17  C   UNL     1       8.391   7.296  18.836  0.00  0.00    +0.000 C 
ATOM     18  C   UNL     1       8.334   5.835  19.287  0.00  0.00    +0.000 C 
ATOM     19  C   UNL     1       7.012   5.322  18.738  0.00  0.00    +0.000 C 
BRANCH  19  20
ATOM     20  O   UNL     1       5.932   5.739  19.566  0.00  0.00    +0.000 OA
ATOM     21  H   UNL     1       6.252   5.869  20.474  0.00  0.00    +0.000 HD
ENDBRANCH  19  20
ENDBRANCH  14  15
ENDBRANCH   2  14
TORSDOF 4
ENDMDL
MODEL 9
REMARK VINA RESULT:      -6.1      3.091      5.046
REMARK  Name = 
REMARK  5 active torsions:
REMARK  status: ('A' for Active; 'I' for Inactive)
REMARK    1  A    between atoms: C_1  and  N_2
REMARK    2  A    between atoms: N_2  and  C_3
REMARK    3  A    between atoms: C_3  and  C_4
REMARK    4  A    between atoms: C_8  and  O_9
REMARK    5  A    between atoms: C_10  and  C_12
REMARK                            x       y       z     vdW  Elec       q    Type
REMARK                         _______ _______ _______ _____ _____    ______ ____
ROOT
ATOM      1  C   UNL     1       2.008   3.722  21.433  0.00  0.00    +0.000 C 
ATOM      2  N   UNL     1       2.809   4.295  20.357  0.00  0.00    +0.000 N 
ATOM      3  C   UNL     1       3.532   3.347  19.596  0.00  0.00    +0.000 C 
ATOM      4  O   UNL     1       3.450   2.143  19.816  0.00  0.00    +0.000 OA
ENDROOT
BRANCH   3   5
ATOM      5  C   UNL     1       4.448   3.770  18.503  0.00  0.00    +0.000 A 
ATOM      6  C   UNL     1       5.748   4.191  18.814  0.00  0.00    +0.000 A 
ATOM      7  C   UNL     1       6.593   4.652  17.813  0.00  0.00    +0.000 A 
ATOM      8  F   UNL     1       7.773   5.186  18.173  0.00  0.00    +0.000 F 
ATOM      9  C   UNL     1       6.216   4.585  16.479  0.00  0.00    +0.000 A 
ATOM     10 CL   UNL     1       7.280   5.122  15.240  0.00  0.00    +0.000 Cl
ATOM     11  C   UNL     1       4.964   4.074  16.141  0.00  0.00    +0.000 A 
ATOM     12  C   UNL     1       4.069   3.689  17.150  0.00  0.00    +0.000 A 
ATOM     13 CL   UNL     1       2.503   3.172  16.628  0.00  0.00    +0.000 Cl
ENDBRANCH   3   5
BRANCH   2  14
ATOM     14  C   UNL     1       3.048   5.751  20.348  0.00  0.00    +0.000 C 
BRANCH  14  15
ATOM     15  C   UNL     1       2.093   6.599  19.509  0.00  0.00    +0.000 C 
ATOM     16  C   UNL     1       1.883   8.015  20.073  0.00  0.00    +0.000 C 
ATOM     17  C   UNL     1       1.594   8.905  18.858  0.00  0.00    +0.000 C 
ATOM     18  C   UNL     1       1.711   7.999  17.631  0.00  0.00    +0.000 C 
ATOM     19  C   UNL     1       2.600   6.855  18.090  0.00  0.00    +0.000 C 
BRANCH  19  20
ATOM     20  O   UNL     1       3.969   7.246  18.075  0.00  0.00    +0.000 OA
ATOM     21  H   UNL     1       4.108   7.958  18.721  0.00  0.00    +0.000 HD
ENDBRANCH  19  20
ENDBRANCH  14  15
ENDBRANCH   2  14
TORSDOF 4
ENDMDL
