MODEL 1
REMARK VINA RESULT:      -6.0      0.000      0.000
REMARK  Name = 
REMARK  11 active torsions:
REMARK  status: ('A' for Active; 'I' for Inactive)
REMARK    1  A    between atoms: C_1  and  N_2
REMARK    2  A    between atoms: N_2  and  C_3
REMARK    3  A    between atoms: N_2  and  C_4
REMARK    4  A    between atoms: C_7  and  O_8
REMARK    5  A    between atoms: C_15  and  N_16
REMARK    6  A    between atoms: N_16  and  C_17
REMARK    7  A    between atoms: N_16  and  C_18
REMARK    8  A    between atoms: C_21  and  C_22
REMARK    9  A    between atoms: C_25  and  O_26
REMARK   10  A    between atoms: C_27  and  O_28
REMARK   11  A    between atoms: C_32  and  O_33
REMARK                            x       y       z     vdW  Elec       q    Type
REMARK                         _______ _______ _______ _____ _____    ______ ____
ROOT
ATOM      1  C   UNL     1      -5.616  12.478  19.774  0.00  0.00    +0.000 A 
ATOM      2  C   UNL     1      -6.570  13.066  20.633  0.00  0.00    +0.000 A 
ATOM      3  C   UNL     1      -6.225  13.618  21.864  0.00  0.00    +0.000 A 
ATOM      4  C   UNL     1      -4.912  13.530  22.312  0.00  0.00    +0.000 A 
ATOM      5  C   UNL     1      -3.937  12.875  21.533  0.00  0.00    +0.000 A 
ATOM      6  C   UNL     1      -4.276  12.397  20.226  0.00  0.00    +0.000 A 
ATOM      7  C   UNL     1      -3.101  11.891  19.344  0.00  0.00    +0.000 C 
ATOM      8  C   UNL     1      -1.872  12.840  19.600  0.00  0.00    +0.000 C 
ATOM      9  C   UNL     1      -0.594  12.815  18.671  0.00  0.00    +0.000 C 
ATOM     10  C   UNL     1       0.779  13.540  19.187  0.00  0.00    +0.000 C 
ATOM     11  C   UNL     1       1.200  15.157  18.717  0.00  0.00    +0.000 C 
ATOM     12  C   UNL     1       0.809  15.972  19.959  0.00  0.00    +0.000 C 
ATOM     13  O   UNL     1      -0.090  16.812  19.941  0.00  0.00    +0.000 OA
ATOM     14  C   UNL     1       1.433  15.587  21.268  0.00  0.00    +0.000 C 
ATOM     15  C   UNL     1       0.566  14.598  21.525  0.00  0.00    +0.000 C 
ATOM     16  C   UNL     1       0.869  13.272  20.745  0.00  0.00    +0.000 C 
ATOM     17  C   UNL     1      -0.160  12.326  21.400  0.00  0.00    +0.000 C 
ATOM     18  O   UNL     1       0.108  11.512  22.283  0.00  0.00    +0.000 OA
ATOM     19  C   UNL     1      -1.558  12.574  21.040  0.00  0.00    +0.000 C 
ATOM     20  C   UNL     1      -2.544  12.659  21.988  0.00  0.00    +0.000 C 
ENDROOT
BRANCH  14  21
ATOM     21  C   UNL     1       2.852  15.240  21.605  0.00  0.00    +0.000 C 
ATOM     22  N   UNL     1       3.844  15.627  20.777  0.00  0.00    +0.000 N 
ATOM     23  O   UNL     1       3.156  14.650  22.642  0.00  0.00    +0.000 OA
ATOM     24  H   UNL     1       4.737  15.177  20.924  0.00  0.00    +0.000 HD
ATOM     25  H   UNL     1       3.637  16.016  19.867  0.00  0.00    +0.000 HD
ENDBRANCH  14  21
BRANCH   1  27
ATOM     26  C   UNL     1      -6.520  13.023  17.577  0.00  0.00    +0.000 C 
ATOM     27  N   UNL     1      -5.979  12.010  18.492  0.00  0.00    +0.000 N 
ATOM     28  C   UNL     1      -6.779  10.785  18.557  0.00  0.00    +0.000 C 
ENDBRANCH   1  27
BRANCH  11  29
ATOM     29  N   UNL     1       2.519  15.863  18.451  0.00  0.00    +0.000 NA
ATOM     30  C   UNL     1       2.358  17.280  17.984  0.00  0.00    +0.000 C 
ATOM     31  C   UNL     1       3.657  15.291  17.753  0.00  0.00    +0.000 C 
ENDBRANCH  11  29
BRANCH   4  32
ATOM     32  O   UNL     1      -4.588  14.143  23.490  0.00  0.00    +0.000 OA
ATOM     33  H   UNL     1      -4.094  13.532  24.058  0.00  0.00    +0.000 HD
ENDBRANCH   4  32
BRANCH  15  34
ATOM     34  O   UNL     1      -0.795  14.925  21.602  0.00  0.00    +0.000 OA
ATOM     35  H   UNL     1      -1.019  15.707  21.048  0.00  0.00    +0.000 HD
ENDBRANCH  15  34
BRANCH  16  36
ATOM     36  O   UNL     1       2.180  12.768  20.973  0.00  0.00    +0.000 OA
ATOM     37  H   UNL     1       2.227  12.323  21.835  0.00  0.00    +0.000 HD
ENDBRANCH  16  36
BRANCH  20  38
ATOM     38  O   UNL     1      -2.322  12.606  23.335  0.00  0.00    +0.000 OA
ATOM     39  H   UNL     1      -1.362  12.586  23.499  0.00  0.00    +0.000 HD
ENDBRANCH  20  38
TORSDOF 7
ENDMDL
MODEL 2
REMARK VINA RESULT:      -5.7      4.387      9.917
REMARK  Name = 
REMARK  11 active torsions:
REMARK  status: ('A' for Active; 'I' for Inactive)
REMARK    1  A    between atoms: C_1  and  N_2
REMARK    2  A    between atoms: N_2  and  C_3
REMARK    3  A    between atoms: N_2  and  C_4
REMARK    4  A    between atoms: C_7  and  O_8
REMARK    5  A    between atoms: C_15  and  N_16
REMARK    6  A    between atoms: N_16  and  C_17
REMARK    7  A    between atoms: N_16  and  C_18
REMARK    8  A    between atoms: C_21  and  C_22
REMARK    9  A    between atoms: C_25  and  O_26
REMARK   10  A    between atoms: C_27  and  O_28
REMARK   11  A    between atoms: C_32  and  O_33
REMARK                            x       y       z     vdW  Elec       q    Type
REMARK                         _______ _______ _______ _____ _____    ______ ____
ROOT
ATOM      1  C   UNL     1       9.614  13.370  19.052  0.00  0.00    +0.000 A 
ATOM      2  C   UNL     1      10.434  13.095  20.167  0.00  0.00    +0.000 A 
ATOM      3  C   UNL     1      10.230  13.691  21.409  0.00  0.00    +0.000 A 
ATOM      4  C   UNL     1       9.233  14.649  21.554  0.00  0.00    +0.000 A 
ATOM      5  C   UNL     1       8.442  15.026  20.450  0.00  0.00    +0.000 A 
ATOM      6  C   UNL     1       8.592  14.339  19.202  0.00  0.00    +0.000 A 
ATOM      7  C   UNL     1       7.538  14.654  18.104  0.00  0.00    +0.000 C 
ATOM      8  C   UNL     1       6.144  14.812  18.816  0.00  0.00    +0.000 C 
ATOM      9  C   UNL     1       4.793  14.849  17.997  0.00  0.00    +0.000 C 
ATOM     10  C   UNL     1       3.430  15.378  18.734  0.00  0.00    +0.000 C 
ATOM     11  C   UNL     1       2.282  14.284  19.439  0.00  0.00    +0.000 C 
ATOM     12  C   UNL     1       2.617  14.376  20.935  0.00  0.00    +0.000 C 
ATOM     13  O   UNL     1       3.058  13.421  21.573  0.00  0.00    +0.000 OA
ATOM     14  C   UNL     1       2.569  15.732  21.576  0.00  0.00    +0.000 C 
ATOM     15  C   UNL     1       3.798  16.092  21.180  0.00  0.00    +0.000 C 
ATOM     16  C   UNL     1       3.868  16.565  19.687  0.00  0.00    +0.000 C 
ATOM     17  C   UNL     1       5.324  17.071  19.627  0.00  0.00    +0.000 C 
ATOM     18  O   UNL     1       5.651  18.256  19.700  0.00  0.00    +0.000 OA
ATOM     19  C   UNL     1       6.353  16.030  19.661  0.00  0.00    +0.000 C 
ATOM     20  C   UNL     1       7.429  16.105  20.506  0.00  0.00    +0.000 C 
ENDROOT
BRANCH  14  21
ATOM     21  C   UNL     1       1.556  16.831  21.456  0.00  0.00    +0.000 C 
ATOM     22  N   UNL     1       0.315  16.542  21.015  0.00  0.00    +0.000 N 
ATOM     23  O   UNL     1       1.801  17.990  21.791  0.00  0.00    +0.000 OA
ATOM     24  H   UNL     1      -0.246  17.335  20.735  0.00  0.00    +0.000 HD
ATOM     25  H   UNL     1       0.100  15.633  20.628  0.00  0.00    +0.000 HD
ENDBRANCH  14  21
BRANCH   1  27
ATOM     26  C   UNL     1       9.741  11.216  17.918  0.00  0.00    +0.000 C 
ATOM     27  N   UNL     1       9.787  12.682  17.831  0.00  0.00    +0.000 N 
ATOM     28  C   UNL     1      10.926  13.192  17.065  0.00  0.00    +0.000 C 
ENDBRANCH   1  27
BRANCH  11  29
ATOM     29  N   UNL     1       0.771  14.306  19.596  0.00  0.00    +0.000 NA
ATOM     30  C   UNL     1       0.218  13.086  20.272  0.00  0.00    +0.000 C 
ATOM     31  C   UNL     1      -0.178  14.717  18.575  0.00  0.00    +0.000 C 
ENDBRANCH  11  29
BRANCH   4  32
ATOM     32  O   UNL     1       9.008  15.165  22.801  0.00  0.00    +0.000 OA
ATOM     33  H   UNL     1       9.256  14.516  23.478  0.00  0.00    +0.000 HD
ENDBRANCH   4  32
BRANCH  15  34
ATOM     34  O   UNL     1       4.876  15.294  21.585  0.00  0.00    +0.000 OA
ATOM     35  H   UNL     1       5.657  15.403  20.996  0.00  0.00    +0.000 HD
ENDBRANCH  15  34
BRANCH  16  36
ATOM     36  O   UNL     1       2.985  17.640  19.391  0.00  0.00    +0.000 OA
ATOM     37  H   UNL     1       3.366  18.214  18.708  0.00  0.00    +0.000 HD
ENDBRANCH  16  36
BRANCH  20  38
ATOM     38  O   UNL     1       7.609  17.089  21.437  0.00  0.00    +0.000 OA
ATOM     39  H   UNL     1       6.999  17.825  21.244  0.00  0.00    +0.000 HD
ENDBRANCH  20  38
TORSDOF 7
ENDMDL
MODEL 3
REMARK VINA RESULT:      -5.6      0.976      1.146
REMARK  Name = 
REMARK  11 active torsions:
REMARK  status: ('A' for Active; 'I' for Inactive)
REMARK    1  A    between atoms: C_1  and  N_2
REMARK    2  A    between atoms: N_2  and  C_3
REMARK    3  A    between atoms: N_2  and  C_4
REMARK    4  A    between atoms: C_7  and  O_8
REMARK    5  A    between atoms: C_15  and  N_16
REMARK    6  A    between atoms: N_16  and  C_17
REMARK    7  A    between atoms: N_16  and  C_18
REMARK    8  A    between atoms: C_21  and  C_22
REMARK    9  A    between atoms: C_25  and  O_26
REMARK   10  A    between atoms: C_27  and  O_28
REMARK   11  A    between atoms: C_32  and  O_33
REMARK                            x       y       z     vdW  Elec       q    Type
REMARK                         _______ _______ _______ _____ _____    ______ ____
ROOT
ATOM      1  C   UNL     1      -6.095  13.532  21.117  0.00  0.00    +0.000 A 
ATOM      2  C   UNL     1      -6.833  14.271  22.066  0.00  0.00    +0.000 A 
ATOM      3  C   UNL     1      -6.250  14.806  23.213  0.00  0.00    +0.000 A 
ATOM      4  C   UNL     1      -4.911  14.549  23.485  0.00  0.00    +0.000 A 
ATOM      5  C   UNL     1      -4.150  13.742  22.615  0.00  0.00    +0.000 A 
ATOM      6  C   UNL     1      -4.728  13.278  21.390  0.00  0.00    +0.000 A 
ATOM      7  C   UNL     1      -3.765  12.587  20.385  0.00  0.00    +0.000 C 
ATOM      8  C   UNL     1      -2.396  13.363  20.429  0.00  0.00    +0.000 C 
ATOM      9  C   UNL     1      -1.275  13.132  19.339  0.00  0.00    +0.000 C 
ATOM     10  C   UNL     1       0.241  13.674  19.632  0.00  0.00    +0.000 C 
ATOM     11  C   UNL     1       0.805  15.201  19.032  0.00  0.00    +0.000 C 
ATOM     12  C   UNL     1       0.703  16.099  20.274  0.00  0.00    +0.000 C 
ATOM     13  O   UNL     1      -0.069  17.055  20.335  0.00  0.00    +0.000 OA
ATOM     14  C   UNL     1       1.446  15.670  21.505  0.00  0.00    +0.000 C 
ATOM     15  C   UNL     1       0.498  14.820  21.923  0.00  0.00    +0.000 C 
ATOM     16  C   UNL     1       0.510  13.442  21.175  0.00  0.00    +0.000 C 
ATOM     17  C   UNL     1      -0.536  12.669  22.007  0.00  0.00    +0.000 C 
ATOM     18  O   UNL     1      -0.259  11.852  22.885  0.00  0.00    +0.000 OA
ATOM     19  C   UNL     1      -1.924  13.098  21.824  0.00  0.00    +0.000 C 
ATOM     20  C   UNL     1      -2.749  13.348  22.890  0.00  0.00    +0.000 C 
ENDROOT
BRANCH  14  21
ATOM     21  C   UNL     1       2.839  15.139  21.667  0.00  0.00    +0.000 C 
ATOM     22  N   UNL     1       3.749  15.360  20.697  0.00  0.00    +0.000 N 
ATOM     23  O   UNL     1       3.201  14.543  22.681  0.00  0.00    +0.000 OA
ATOM     24  H   UNL     1       4.585  14.794  20.744  0.00  0.00    +0.000 HD
ATOM     25  H   UNL     1       3.472  15.747  19.805  0.00  0.00    +0.000 HD
ENDBRANCH  14  21
BRANCH   1  27
ATOM     26  C   UNL     1      -7.447  14.091  19.169  0.00  0.00    +0.000 C 
ATOM     27  N   UNL     1      -6.691  13.080  19.920  0.00  0.00    +0.000 N 
ATOM     28  C   UNL     1      -7.412  11.818  20.102  0.00  0.00    +0.000 C 
ENDBRANCH   1  27
BRANCH  11  29
ATOM     29  N   UNL     1       2.157  15.709  18.559  0.00  0.00    +0.000 NA
ATOM     30  C   UNL     1       2.110  17.091  17.977  0.00  0.00    +0.000 C 
ATOM     31  C   UNL     1       3.129  14.939  17.801  0.00  0.00    +0.000 C 
ENDBRANCH  11  29
BRANCH   4  32
ATOM     32  O   UNL     1      -4.347  15.147  24.578  0.00  0.00    +0.000 OA
ATOM     33  H   UNL     1      -4.630  16.073  24.633  0.00  0.00    +0.000 HD
ENDBRANCH   4  32
BRANCH  15  34
ATOM     34  O   UNL     1      -0.783  15.335  22.165  0.00  0.00    +0.000 OA
ATOM     35  H   UNL     1      -0.767  16.071  22.819  0.00  0.00    +0.000 HD
ENDBRANCH  15  34
BRANCH  16  36
ATOM     36  O   UNL     1       1.760  12.768  21.251  0.00  0.00    +0.000 OA
ATOM     37  H   UNL     1       1.888  12.201  20.473  0.00  0.00    +0.000 HD
ENDBRANCH  16  36
BRANCH  20  38
ATOM     38  O   UNL     1      -2.352  13.305  24.196  0.00  0.00    +0.000 OA
ATOM     39  H   UNL     1      -2.922  12.681  24.683  0.00  0.00    +0.000 HD
ENDBRANCH  20  38
TORSDOF 7
ENDMDL
MODEL 4
REMARK VINA RESULT:      -5.5      8.722     11.492
REMARK  Name = 
REMARK  11 active torsions:
REMARK  status: ('A' for Active; 'I' for Inactive)
REMARK    1  A    between atoms: C_1  and  N_2
REMARK    2  A    between atoms: N_2  and  C_3
REMARK    3  A    between atoms: N_2  and  C_4
REMARK    4  A    between atoms: C_7  and  O_8
REMARK    5  A    between atoms: C_15  and  N_16
REMARK    6  A    between atoms: N_16  and  C_17
REMARK    7  A    between atoms: N_16  and  C_18
REMARK    8  A    between atoms: C_21  and  C_22
REMARK    9  A    between atoms: C_25  and  O_26
REMARK   10  A    between atoms: C_27  and  O_28
REMARK   11  A    between atoms: C_32  and  O_33
REMARK                            x       y       z     vdW  Elec       q    Type
REMARK                         _______ _______ _______ _____ _____    ______ ____
ROOT
ATOM      1  C   UNL     1      10.176  13.407  19.114  0.00  0.00    +0.000 A 
ATOM      2  C   UNL     1      10.384  14.547  18.309  0.00  0.00    +0.000 A 
ATOM      3  C   UNL     1       9.606  15.697  18.428  0.00  0.00    +0.000 A 
ATOM      4  C   UNL     1       8.536  15.712  19.314  0.00  0.00    +0.000 A 
ATOM      5  C   UNL     1       8.229  14.568  20.079  0.00  0.00    +0.000 A 
ATOM      6  C   UNL     1       9.090  13.426  20.024  0.00  0.00    +0.000 A 
ATOM      7  C   UNL     1       8.815  12.297  21.057  0.00  0.00    +0.000 C 
ATOM      8  C   UNL     1       8.412  12.984  22.414  0.00  0.00    +0.000 C 
ATOM      9  C   UNL     1       8.341  12.170  23.767  0.00  0.00    +0.000 C 
ATOM     10  C   UNL     1       7.573  12.832  25.053  0.00  0.00    +0.000 C 
ATOM     11  C   UNL     1       8.431  13.682  26.299  0.00  0.00    +0.000 C 
ATOM     12  C   UNL     1       8.174  15.151  25.931  0.00  0.00    +0.000 C 
ATOM     13  O   UNL     1       9.076  15.912  25.584  0.00  0.00    +0.000 OA
ATOM     14  C   UNL     1       6.747  15.601  25.823  0.00  0.00    +0.000 C 
ATOM     15  C   UNL     1       6.578  15.157  24.571  0.00  0.00    +0.000 C 
ATOM     16  C   UNL     1       6.323  13.613  24.475  0.00  0.00    +0.000 C 
ATOM     17  C   UNL     1       5.989  13.481  22.974  0.00  0.00    +0.000 C 
ATOM     18  O   UNL     1       4.848  13.391  22.522  0.00  0.00    +0.000 OA
ATOM     19  C   UNL     1       7.121  13.655  22.062  0.00  0.00    +0.000 C 
ATOM     20  C   UNL     1       7.049  14.480  20.970  0.00  0.00    +0.000 C 
ENDROOT
BRANCH  14  21
ATOM     21  C   UNL     1       5.571  15.334  26.715  0.00  0.00    +0.000 C 
ATOM     22  N   UNL     1       5.781  14.941  27.988  0.00  0.00    +0.000 N 
ATOM     23  O   UNL     1       4.411  15.506  26.343  0.00  0.00    +0.000 OA
ATOM     24  H   UNL     1       4.978  14.556  28.466  0.00  0.00    +0.000 HD
ATOM     25  H   UNL     1       6.706  14.683  28.306  0.00  0.00    +0.000 HD
ENDBRANCH  14  21
BRANCH   1  27
ATOM     26  C   UNL     1      12.323  12.434  19.732  0.00  0.00    +0.000 C 
ATOM     27  N   UNL     1      11.037  12.291  19.036  0.00  0.00    +0.000 N 
ATOM     28  C   UNL     1      11.159  11.780  17.669  0.00  0.00    +0.000 C 
ENDBRANCH   1  27
BRANCH  11  29
ATOM     29  N   UNL     1       8.225  13.837  27.797  0.00  0.00    +0.000 NA
ATOM     30  C   UNL     1       9.329  14.588  28.481  0.00  0.00    +0.000 C 
ATOM     31  C   UNL     1       7.771  12.793  28.699  0.00  0.00    +0.000 C 
ENDBRANCH  11  29
BRANCH   4  32
ATOM     32  O   UNL     1       7.835  16.877  19.462  0.00  0.00    +0.000 OA
ATOM     33  H   UNL     1       8.344  17.504  20.000  0.00  0.00    +0.000 HD
ENDBRANCH   4  32
BRANCH  15  34
ATOM     34  O   UNL     1       7.426  15.664  23.577  0.00  0.00    +0.000 OA
ATOM     35  H   UNL     1       7.088  15.474  22.672  0.00  0.00    +0.000 HD
ENDBRANCH  15  34
BRANCH  16  36
ATOM     36  O   UNL     1       5.208  13.175  25.244  0.00  0.00    +0.000 OA
ATOM     37  H   UNL     1       4.670  13.932  25.523  0.00  0.00    +0.000 HD
ENDBRANCH  16  36
BRANCH  20  38
ATOM     38  O   UNL     1       5.973  15.267  20.671  0.00  0.00    +0.000 OA
ATOM     39  H   UNL     1       5.163  14.840  21.005  0.00  0.00    +0.000 HD
ENDBRANCH  20  38
TORSDOF 7
ENDMDL
MODEL 5
REMARK VINA RESULT:      -5.5      2.651      7.265
REMARK  Name = 
REMARK  11 active torsions:
REMARK  status: ('A' for Active; 'I' for Inactive)
REMARK    1  A    between atoms: C_1  and  N_2
REMARK    2  A    between atoms: N_2  and  C_3
REMARK    3  A    between atoms: N_2  and  C_4
REMARK    4  A    between atoms: C_7  and  O_8
REMARK    5  A    between atoms: C_15  and  N_16
REMARK    6  A    between atoms: N_16  and  C_17
REMARK    7  A    between atoms: N_16  and  C_18
REMARK    8  A    between atoms: C_21  and  C_22
REMARK    9  A    between atoms: C_25  and  O_26
REMARK   10  A    between atoms: C_27  and  O_28
REMARK   11  A    between atoms: C_32  and  O_33
REMARK                            x       y       z     vdW  Elec       q    Type
REMARK                         _______ _______ _______ _____ _____    ______ ____
ROOT
ATOM      1  C   UNL     1       2.954  14.591  19.708  0.00  0.00    +0.000 A 
ATOM      2  C   UNL     1       3.055  14.087  18.394  0.00  0.00    +0.000 A 
ATOM      3  C   UNL     1       2.150  13.162  17.878  0.00  0.00    +0.000 A 
ATOM      4  C   UNL     1       1.150  12.651  18.698  0.00  0.00    +0.000 A 
ATOM      5  C   UNL     1       1.058  13.054  20.045  0.00  0.00    +0.000 A 
ATOM      6  C   UNL     1       1.929  14.077  20.541  0.00  0.00    +0.000 A 
ATOM      7  C   UNL     1       1.621  14.624  21.962  0.00  0.00    +0.000 C 
ATOM      8  C   UNL     1       0.057  14.705  22.111  0.00  0.00    +0.000 C 
ATOM      9  C   UNL     1      -0.624  15.482  23.307  0.00  0.00    +0.000 C 
ATOM     10  C   UNL     1      -2.211  15.229  23.618  0.00  0.00    +0.000 C 
ATOM     11  C   UNL     1      -3.448  16.283  23.009  0.00  0.00    +0.000 C 
ATOM     12  C   UNL     1      -3.994  15.490  21.812  0.00  0.00    +0.000 C 
ATOM     13  O   UNL     1      -3.885  15.887  20.652  0.00  0.00    +0.000 OA
ATOM     14  C   UNL     1      -4.513  14.107  22.072  0.00  0.00    +0.000 C 
ATOM     15  C   UNL     1      -3.309  13.521  22.034  0.00  0.00    +0.000 C 
ATOM     16  C   UNL     1      -2.480  13.691  23.354  0.00  0.00    +0.000 C 
ATOM     17  C   UNL     1      -1.283  12.766  23.048  0.00  0.00    +0.000 C 
ATOM     18  O   UNL     1      -1.163  11.619  23.479  0.00  0.00    +0.000 OA
ATOM     19  C   UNL     1      -0.346  13.265  22.039  0.00  0.00    +0.000 C 
ATOM     20  C   UNL     1       0.082  12.481  21.000  0.00  0.00    +0.000 C 
ENDROOT
BRANCH  14  21
ATOM     21  C   UNL     1      -5.395  13.588  23.169  0.00  0.00    +0.000 C 
ATOM     22  N   UNL     1      -6.156  14.452  23.872  0.00  0.00    +0.000 N 
ATOM     23  O   UNL     1      -5.490  12.387  23.423  0.00  0.00    +0.000 OA
ATOM     24  H   UNL     1      -6.545  14.091  24.733  0.00  0.00    +0.000 HD
ATOM     25  H   UNL     1      -6.033  15.450  23.773  0.00  0.00    +0.000 HD
ENDBRANCH  14  21
BRANCH   1  27
ATOM     26  C   UNL     1       3.535  16.957  19.709  0.00  0.00    +0.000 C 
ATOM     27  N   UNL     1       3.830  15.596  20.174  0.00  0.00    +0.000 N 
ATOM     28  C   UNL     1       5.237  15.214  20.030  0.00  0.00    +0.000 C 
ENDBRANCH   1  27
BRANCH  11  29
ATOM     29  N   UNL     1      -4.794  16.742  23.545  0.00  0.00    +0.000 NA
ATOM     30  C   UNL     1      -5.531  17.659  22.614  0.00  0.00    +0.000 C 
ATOM     31  C   UNL     1      -5.055  17.183  24.905  0.00  0.00    +0.000 C 
ENDBRANCH  11  29
BRANCH   4  32
ATOM     32  O   UNL     1       0.233  11.800  18.145  0.00  0.00    +0.000 OA
ATOM     33  H   UNL     1      -0.073  12.149  17.293  0.00  0.00    +0.000 HD
ENDBRANCH   4  32
BRANCH  15  34
ATOM     34  O   UNL     1      -2.556  13.650  20.859  0.00  0.00    +0.000 OA
ATOM     35  H   UNL     1      -1.676  14.059  21.027  0.00  0.00    +0.000 HD
ENDBRANCH  15  34
BRANCH  16  36
ATOM     36  O   UNL     1      -3.156  13.215  24.512  0.00  0.00    +0.000 OA
ATOM     37  H   UNL     1      -3.041  13.834  25.251  0.00  0.00    +0.000 HD
ENDBRANCH  16  36
BRANCH  20  38
ATOM     38  O   UNL     1      -0.371  11.215  20.755  0.00  0.00    +0.000 OA
ATOM     39  H   UNL     1      -0.068  10.934  19.872  0.00  0.00    +0.000 HD
ENDBRANCH  20  38
TORSDOF 7
ENDMDL
MODEL 6
REMARK VINA RESULT:      -5.4      2.955      8.442
REMARK  Name = 
REMARK  11 active torsions:
REMARK  status: ('A' for Active; 'I' for Inactive)
REMARK    1  A    between atoms: C_1  and  N_2
REMARK    2  A    between atoms: N_2  and  C_3
REMARK    3  A    between atoms: N_2  and  C_4
REMARK    4  A    between atoms: C_7  and  O_8
REMARK    5  A    between atoms: C_15  and  N_16
REMARK    6  A    between atoms: N_16  and  C_17
REMARK    7  A    between atoms: N_16  and  C_18
REMARK    8  A    between atoms: C_21  and  C_22
REMARK    9  A    between atoms: C_25  and  O_26
REMARK   10  A    between atoms: C_27  and  O_28
REMARK   11  A    between atoms: C_32  and  O_33
REMARK                            x       y       z     vdW  Elec       q    Type
REMARK                         _______ _______ _______ _____ _____    ______ ____
ROOT
ATOM      1  C   UNL     1       7.078  15.422  19.574  0.00  0.00    +0.000 A 
ATOM      2  C   UNL     1       7.677  15.829  20.785  0.00  0.00    +0.000 A 
ATOM      3  C   UNL     1       6.935  16.307  21.862  0.00  0.00    +0.000 A 
ATOM      4  C   UNL     1       5.560  16.465  21.730  0.00  0.00    +0.000 A 
ATOM      5  C   UNL     1       4.921  16.157  20.512  0.00  0.00    +0.000 A 
ATOM      6  C   UNL     1       5.675  15.574  19.444  0.00  0.00    +0.000 A 
ATOM      7  C   UNL     1       4.865  15.058  18.222  0.00  0.00    +0.000 C 
ATOM      8  C   UNL     1       3.541  14.407  18.771  0.00  0.00    +0.000 C 
ATOM      9  C   UNL     1       2.608  13.522  17.853  0.00  0.00    +0.000 C 
ATOM     10  C   UNL     1       1.087  13.184  18.356  0.00  0.00    +0.000 C 
ATOM     11  C   UNL     1       0.695  11.702  19.168  0.00  0.00    +0.000 C 
ATOM     12  C   UNL     1       0.626  12.142  20.638  0.00  0.00    +0.000 C 
ATOM     13  O   UNL     1       1.415  11.731  21.488  0.00  0.00    +0.000 OA
ATOM     14  C   UNL     1      -0.328  13.246  20.990  0.00  0.00    +0.000 C 
ATOM     15  C   UNL     1       0.501  14.235  20.632  0.00  0.00    +0.000 C 
ATOM     16  C   UNL     1       0.557  14.486  19.085  0.00  0.00    +0.000 C 
ATOM     17  C   UNL     1       1.417  15.767  19.045  0.00  0.00    +0.000 C 
ATOM     18  O   UNL     1       0.965  16.903  18.907  0.00  0.00    +0.000 OA
ATOM     19  C   UNL     1       2.833  15.582  19.371  0.00  0.00    +0.000 C 
ATOM     20  C   UNL     1       3.479  16.391  20.269  0.00  0.00    +0.000 C 
ENDROOT
BRANCH  14  21
ATOM     21  C   UNL     1      -1.749  13.476  20.570  0.00  0.00    +0.000 C 
ATOM     22  N   UNL     1      -2.476  12.442  20.099  0.00  0.00    +0.000 N 
ATOM     23  O   UNL     1      -2.299  14.571  20.684  0.00  0.00    +0.000 OA
ATOM     24  H   UNL     1      -3.331  12.690  19.620  0.00  0.00    +0.000 HD
ATOM     25  H   UNL     1      -2.040  11.555  19.887  0.00  0.00    +0.000 HD
ENDBRANCH  14  21
BRANCH   1  27
ATOM     26  C   UNL     1       8.585  13.636  18.884  0.00  0.00    +0.000 C 
ATOM     27  N   UNL     1       7.845  14.855  18.533  0.00  0.00    +0.000 N 
ATOM     28  C   UNL     1       8.655  15.856  17.834  0.00  0.00    +0.000 C 
ENDBRANCH   1  27
BRANCH  11  29
ATOM     29  N   UNL     1      -0.538  10.813  19.193  0.00  0.00    +0.000 NA
ATOM     30  C   UNL     1      -0.428   9.658  20.145  0.00  0.00    +0.000 C 
ATOM     31  C   UNL     1      -1.275  10.360  18.026  0.00  0.00    +0.000 C 
ENDBRANCH  11  29
BRANCH   4  32
ATOM     32  O   UNL     1       4.848  16.868  22.827  0.00  0.00    +0.000 OA
ATOM     33  H   UNL     1       4.178  17.519  22.566  0.00  0.00    +0.000 HD
ENDBRANCH   4  32
BRANCH  15  34
ATOM     34  O   UNL     1       1.744  14.313  21.275  0.00  0.00    +0.000 OA
ATOM     35  H   UNL     1       1.727  14.935  22.038  0.00  0.00    +0.000 HD
ENDBRANCH  15  34
BRANCH  16  36
ATOM     36  O   UNL     1      -0.715  14.758  18.510  0.00  0.00    +0.000 OA
ATOM     37  H   UNL     1      -0.692  15.590  18.011  0.00  0.00    +0.000 HD
ENDBRANCH  16  36
BRANCH  20  38
ATOM     38  O   UNL     1       2.869  17.373  20.996  0.00  0.00    +0.000 OA
ATOM     39  H   UNL     1       1.964  17.505  20.658  0.00  0.00    +0.000 HD
ENDBRANCH  20  38
TORSDOF 7
ENDMDL
MODEL 7
REMARK VINA RESULT:      -5.4      5.225      8.670
REMARK  Name = 
REMARK  11 active torsions:
REMARK  status: ('A' for Active; 'I' for Inactive)
REMARK    1  A    between atoms: C_1  and  N_2
REMARK    2  A    between atoms: N_2  and  C_3
REMARK    3  A    between atoms: N_2  and  C_4
REMARK    4  A    between atoms: C_7  and  O_8
REMARK    5  A    between atoms: C_15  and  N_16
REMARK    6  A    between atoms: N_16  and  C_17
REMARK    7  A    between atoms: N_16  and  C_18
REMARK    8  A    between atoms: C_21  and  C_22
REMARK    9  A    between atoms: C_25  and  O_26
REMARK   10  A    between atoms: C_27  and  O_28
REMARK   11  A    between atoms: C_32  and  O_33
REMARK                            x       y       z     vdW  Elec       q    Type
REMARK                         _______ _______ _______ _____ _____    ______ ____
ROOT
ATOM      1  C   UNL     1       1.948  14.689  20.410  0.00  0.00    +0.000 A 
ATOM      2  C   UNL     1       1.140  15.188  19.368  0.00  0.00    +0.000 A 
ATOM      3  C   UNL     1       1.614  16.099  18.426  0.00  0.00    +0.000 A 
ATOM      4  C   UNL     1       2.904  16.601  18.547  0.00  0.00    +0.000 A 
ATOM      5  C   UNL     1       3.725  16.202  19.621  0.00  0.00    +0.000 A 
ATOM      6  C   UNL     1       3.268  15.193  20.528  0.00  0.00    +0.000 A 
ATOM      7  C   UNL     1       4.308  14.648  21.545  0.00  0.00    +0.000 C 
ATOM      8  C   UNL     1       5.691  14.547  20.802  0.00  0.00    +0.000 C 
ATOM      9  C   UNL     1       6.915  13.766  21.426  0.00  0.00    +0.000 C 
ATOM     10  C   UNL     1       8.410  14.000  20.801  0.00  0.00    +0.000 C 
ATOM     11  C   UNL     1       9.091  12.927  19.619  0.00  0.00    +0.000 C 
ATOM     12  C   UNL     1       8.888  13.708  18.312  0.00  0.00    +0.000 C 
ATOM     13  O   UNL     1       8.149  13.308  17.413  0.00  0.00    +0.000 OA
ATOM     14  C   UNL     1       9.475  15.085  18.226  0.00  0.00    +0.000 C 
ATOM     15  C   UNL     1       8.457  15.687  18.856  0.00  0.00    +0.000 C 
ATOM     16  C   UNL     1       8.500  15.533  20.416  0.00  0.00    +0.000 C 
ATOM     17  C   UNL     1       7.342  16.472  20.816  0.00  0.00    +0.000 C 
ATOM     18  O   UNL     1       7.492  17.622  21.229  0.00  0.00    +0.000 OA
ATOM     19  C   UNL     1       5.999  15.981  20.503  0.00  0.00    +0.000 C 
ATOM     20  C   UNL     1       5.072  16.766  19.867  0.00  0.00    +0.000 C 
ENDROOT
BRANCH  14  21
ATOM     21  C   UNL     1      10.822  15.598  18.642  0.00  0.00    +0.000 C 
ATOM     22  N   UNL     1      11.839  14.728  18.807  0.00  0.00    +0.000 N 
ATOM     23  O   UNL     1      11.051  16.797  18.795  0.00  0.00    +0.000 OA
ATOM     24  H   UNL     1      12.644  15.085  19.304  0.00  0.00    +0.000 HD
ATOM     25  H   UNL     1      11.676  13.730  18.799  0.00  0.00    +0.000 HD
ENDBRANCH  14  21
BRANCH   1  27
ATOM     26  C   UNL     1       1.287  12.362  20.709  0.00  0.00    +0.000 C 
ATOM     27  N   UNL     1       1.470  13.697  21.294  0.00  0.00    +0.000 N 
ATOM     28  C   UNL     1       0.323  14.161  22.078  0.00  0.00    +0.000 C 
ENDBRANCH   1  27
BRANCH  11  29
ATOM     29  N   UNL     1      10.504  12.453  19.323  0.00  0.00    +0.000 NA
ATOM     30  C   UNL     1      10.601  11.570  18.113  0.00  0.00    +0.000 C 
ATOM     31  C   UNL     1      11.455  11.966  20.307  0.00  0.00    +0.000 C 
ENDBRANCH  11  29
BRANCH   4  32
ATOM     32  O   UNL     1       3.367  17.437  17.569  0.00  0.00    +0.000 OA
ATOM     33  H   UNL     1       2.861  17.305  16.752  0.00  0.00    +0.000 HD
ENDBRANCH   4  32
BRANCH  15  34
ATOM     34  O   UNL     1       7.178  15.563  18.298  0.00  0.00    +0.000 OA
ATOM     35  H   UNL     1       6.792  16.437  18.062  0.00  0.00    +0.000 HD
ENDBRANCH  15  34
BRANCH  16  36
ATOM     36  O   UNL     1       9.709  16.005  20.999  0.00  0.00    +0.000 OA
ATOM     37  H   UNL     1      10.459  15.835  20.407  0.00  0.00    +0.000 HD
ENDBRANCH  16  36
BRANCH  20  38
ATOM     38  O   UNL     1       5.323  18.025  19.399  0.00  0.00    +0.000 OA
ATOM     39  H   UNL     1       6.244  18.069  19.080  0.00  0.00    +0.000 HD
ENDBRANCH  20  38
TORSDOF 7
ENDMDL
MODEL 8
REMARK VINA RESULT:      -5.4      2.769      4.195
REMARK  Name = 
REMARK  11 active torsions:
REMARK  status: ('A' for Active; 'I' for Inactive)
REMARK    1  A    between atoms: C_1  and  N_2
REMARK    2  A    between atoms: N_2  and  C_3
REMARK    3  A    between atoms: N_2  and  C_4
REMARK    4  A    between atoms: C_7  and  O_8
REMARK    5  A    between atoms: C_15  and  N_16
REMARK    6  A    between atoms: N_16  and  C_17
REMARK    7  A    between atoms: N_16  and  C_18
REMARK    8  A    between atoms: C_21  and  C_22
REMARK    9  A    between atoms: C_25  and  O_26
REMARK   10  A    between atoms: C_27  and  O_28
REMARK   11  A    between atoms: C_32  and  O_33
REMARK                            x       y       z     vdW  Elec       q    Type
REMARK                         _______ _______ _______ _____ _____    ______ ____
ROOT
ATOM      1  C   UNL     1      -6.425  14.060  22.407  0.00  0.00    +0.000 A 
ATOM      2  C   UNL     1      -7.239  14.920  21.638  0.00  0.00    +0.000 A 
ATOM      3  C   UNL     1      -6.711  15.810  20.706  0.00  0.00    +0.000 A 
ATOM      4  C   UNL     1      -5.332  15.923  20.569  0.00  0.00    +0.000 A 
ATOM      5  C   UNL     1      -4.472  15.152  21.375  0.00  0.00    +0.000 A 
ATOM      6  C   UNL     1      -5.020  14.168  22.260  0.00  0.00    +0.000 A 
ATOM      7  C   UNL     1      -4.008  13.208  22.946  0.00  0.00    +0.000 C 
ATOM      8  C   UNL     1      -2.892  12.863  21.892  0.00  0.00    +0.000 C 
ATOM      9  C   UNL     1      -1.856  11.694  22.132  0.00  0.00    +0.000 C 
ATOM     10  C   UNL     1      -0.513  11.617  21.199  0.00  0.00    +0.000 C 
ATOM     11  C   UNL     1      -0.427  10.607  19.791  0.00  0.00    +0.000 C 
ATOM     12  C   UNL     1      -0.643  11.614  18.652  0.00  0.00    +0.000 C 
ATOM     13  O   UNL     1      -1.629  11.576  17.916  0.00  0.00    +0.000 OA
ATOM     14  C   UNL     1       0.297  12.780  18.566  0.00  0.00    +0.000 C 
ATOM     15  C   UNL     1      -0.352  13.521  19.473  0.00  0.00    +0.000 C 
ATOM     16  C   UNL     1      -0.051  13.113  20.957  0.00  0.00    +0.000 C 
ATOM     17  C   UNL     1      -0.776  14.249  21.708  0.00  0.00    +0.000 C 
ATOM     18  O   UNL     1      -0.214  15.235  22.185  0.00  0.00    +0.000 OA
ATOM     19  C   UNL     1      -2.239  14.192  21.672  0.00  0.00    +0.000 C 
ATOM     20  C   UNL     1      -2.997  15.288  21.352  0.00  0.00    +0.000 C 
ENDROOT
BRANCH  14  21
ATOM     21  C   UNL     1       1.790  12.840  18.702  0.00  0.00    +0.000 C 
ATOM     22  N   UNL     1       2.543  11.854  18.174  0.00  0.00    +0.000 N 
ATOM     23  O   UNL     1       2.363  13.786  19.242  0.00  0.00    +0.000 OA
ATOM     24  H   UNL     1       3.503  11.820  18.489  0.00  0.00    +0.000 HD
ATOM     25  H   UNL     1       2.117  11.009  17.819  0.00  0.00    +0.000 HD
ENDBRANCH  14  21
BRANCH   1  27
ATOM     26  C   UNL     1      -7.746  12.025  22.625  0.00  0.00    +0.000 C 
ATOM     27  N   UNL     1      -6.992  13.103  23.277  0.00  0.00    +0.000 N 
ATOM     28  C   UNL     1      -7.699  13.725  24.398  0.00  0.00    +0.000 C 
ENDBRANCH   1  27
BRANCH  11  29
ATOM     29  N   UNL     1       0.695   9.827  19.126  0.00  0.00    +0.000 NA
ATOM     30  C   UNL     1       0.343   9.311  17.762  0.00  0.00    +0.000 C 
ATOM     31  C   UNL     1       1.532   8.833  19.776  0.00  0.00    +0.000 C 
ENDBRANCH  11  29
BRANCH   4  32
ATOM     32  O   UNL     1      -4.845  16.752  19.596  0.00  0.00    +0.000 OA
ATOM     33  H   UNL     1      -3.955  17.056  19.835  0.00  0.00    +0.000 HD
ENDBRANCH   4  32
BRANCH  15  34
ATOM     34  O   UNL     1      -1.695  13.836  19.222  0.00  0.00    +0.000 OA
ATOM     35  H   UNL     1      -1.786  14.625  18.642  0.00  0.00    +0.000 HD
ENDBRANCH  15  34
BRANCH  16  36
ATOM     36  O   UNL     1       1.334  13.144  21.283  0.00  0.00    +0.000 OA
ATOM     37  H   UNL     1       1.850  13.492  20.538  0.00  0.00    +0.000 HD
ENDBRANCH  16  36
BRANCH  20  38
ATOM     38  O   UNL     1      -2.482  16.492  20.964  0.00  0.00    +0.000 OA
ATOM     39  H   UNL     1      -1.776  16.752  21.585  0.00  0.00    +0.000 HD
ENDBRANCH  20  38
TORSDOF 7
ENDMDL
MODEL 9
REMARK VINA RESULT:      -5.3      4.122      6.732
REMARK  Name = 
REMARK  11 active torsions:
REMARK  status: ('A' for Active; 'I' for Inactive)
REMARK    1  A    between atoms: C_1  and  N_2
REMARK    2  A    between atoms: N_2  and  C_3
REMARK    3  A    between atoms: N_2  and  C_4
REMARK    4  A    between atoms: C_7  and  O_8
REMARK    5  A    between atoms: C_15  and  N_16
REMARK    6  A    between atoms: N_16  and  C_17
REMARK    7  A    between atoms: N_16  and  C_18
REMARK    8  A    between atoms: C_21  and  C_22
REMARK    9  A    between atoms: C_25  and  O_26
REMARK   10  A    between atoms: C_27  and  O_28
REMARK   11  A    between atoms: C_32  and  O_33
REMARK                            x       y       z     vdW  Elec       q    Type
REMARK                         _______ _______ _______ _____ _____    ______ ____
ROOT
ATOM      1  C   UNL     1       0.338  12.111  20.712  0.00  0.00    +0.000 A 
ATOM      2  C   UNL     1       0.400  10.964  19.893  0.00  0.00    +0.000 A 
ATOM      3  C   UNL     1       1.224  10.890  18.773  0.00  0.00    +0.000 A 
ATOM      4  C   UNL     1       1.962  12.004  18.390  0.00  0.00    +0.000 A 
ATOM      5  C   UNL     1       1.869  13.205  19.122  0.00  0.00    +0.000 A 
ATOM      6  C   UNL     1       1.098  13.244  20.327  0.00  0.00    +0.000 A 
ATOM      7  C   UNL     1       1.224  14.528  21.193  0.00  0.00    +0.000 C 
ATOM      8  C   UNL     1       2.727  14.991  21.141  0.00  0.00    +0.000 C 
ATOM      9  C   UNL     1       3.294  16.088  22.127  0.00  0.00    +0.000 C 
ATOM     10  C   UNL     1       4.736  16.787  21.794  0.00  0.00    +0.000 C 
ATOM     11  C   UNL     1       6.216  16.231  22.510  0.00  0.00    +0.000 C 
ATOM     12  C   UNL     1       6.838  15.403  21.375  0.00  0.00    +0.000 C 
ATOM     13  O   UNL     1       7.007  14.187  21.461  0.00  0.00    +0.000 OA
ATOM     14  C   UNL     1       7.072  16.089  20.061  0.00  0.00    +0.000 C 
ATOM     15  C   UNL     1       5.817  15.928  19.620  0.00  0.00    +0.000 C 
ATOM     16  C   UNL     1       4.798  16.959  20.221  0.00  0.00    +0.000 C 
ATOM     17  C   UNL     1       3.545  16.627  19.384  0.00  0.00    +0.000 C 
ATOM     18  O   UNL     1       3.167  17.279  18.411  0.00  0.00    +0.000 OA
ATOM     19  C   UNL     1       2.901  15.350  19.698  0.00  0.00    +0.000 C 
ATOM     20  C   UNL     1       2.551  14.457  18.719  0.00  0.00    +0.000 C 
ENDROOT
BRANCH  14  21
ATOM     21  C   UNL     1       7.644  17.441  19.757  0.00  0.00    +0.000 C 
ATOM     22  N   UNL     1       8.391  18.069  20.688  0.00  0.00    +0.000 N 
ATOM     23  O   UNL     1       7.496  17.986  18.663  0.00  0.00    +0.000 OA
ATOM     24  H   UNL     1       8.553  19.054  20.527  0.00  0.00    +0.000 HD
ATOM     25  H   UNL     1       8.450  17.713  21.632  0.00  0.00    +0.000 HD
ENDBRANCH  14  21
BRANCH   1  27
ATOM     26  C   UNL     1      -0.489  10.855  22.629  0.00  0.00    +0.000 C 
ATOM     27  N   UNL     1      -0.436  12.125  21.893  0.00  0.00    +0.000 N 
ATOM     28  C   UNL     1      -1.747  12.744  21.689  0.00  0.00    +0.000 C 
ENDBRANCH   1  27
BRANCH  11  29
ATOM     29  N   UNL     1       7.497  16.923  22.944  0.00  0.00    +0.000 NA
ATOM     30  C   UNL     1       8.525  15.987  23.507  0.00  0.00    +0.000 C 
ATOM     31  C   UNL     1       7.572  18.167  23.691  0.00  0.00    +0.000 C 
ENDBRANCH  11  29
BRANCH   4  32
ATOM     32  O   UNL     1       2.817  11.881  17.329  0.00  0.00    +0.000 OA
ATOM     33  H   UNL     1       3.262  11.019  17.360  0.00  0.00    +0.000 HD
ENDBRANCH   4  32
BRANCH  15  34
ATOM     34  O   UNL     1       5.322  14.622  19.515  0.00  0.00    +0.000 OA
ATOM     35  H   UNL     1       5.429  14.118  20.354  0.00  0.00    +0.000 HD
ENDBRANCH  15  34
BRANCH  16  36
ATOM     36  O   UNL     1       5.166  18.314  19.997  0.00  0.00    +0.000 OA
ATOM     37  H   UNL     1       4.920  18.863  20.758  0.00  0.00    +0.000 HD
ENDBRANCH  16  36
BRANCH  20  38
ATOM     38  O   UNL     1       2.831  14.622  17.392  0.00  0.00    +0.000 OA
ATOM     39  H   UNL     1       2.001  14.787  16.908  0.00  0.00    +0.000 HD
ENDBRANCH  20  38
TORSDOF 7
ENDMDL
