MODEL 1
REMARK VINA RESULT:      -7.9      0.000      0.000
REMARK  Name = 
REMARK  7 active torsions:
REMARK  status: ('A' for Active; 'I' for Inactive)
REMARK    1  A    between atoms: C_1  and  C_2
REMARK    2  A    between atoms: C_4  and  C_5
REMARK    3  A    between atoms: N_8  and  C_9
REMARK    4  A    between atoms: C_9  and  N_11
REMARK    5  A    between atoms: N_14  and  C_15
REMARK    6  A    between atoms: C_19  and  O_20
REMARK    7  A    between atoms: O_20  and  C_21
REMARK                            x       y       z     vdW  Elec       q    Type
REMARK                         _______ _______ _______ _____ _____    ______ ____
ROOT
ATOM      1  N   UNL     1       2.216   6.782  19.418  0.00  0.00    +0.000 N 
ATOM      2  C   UNL     1       1.334   7.142  20.543  0.00  0.00    +0.000 C 
ATOM      3  C   UNL     1       1.338   8.650  20.857  0.00  0.00    +0.000 C 
ATOM      4  N   UNL     1       1.087   9.432  19.633  0.00  0.00    +0.000 N 
ATOM      5  C   UNL     1       1.986   9.100  18.509  0.00  0.00    +0.000 C 
ATOM      6  C   UNL     1       1.963   7.587  18.206  0.00  0.00    +0.000 C 
ENDROOT
BRANCH   4   7
ATOM      7  C   UNL     1       0.004  10.283  19.517  0.00  0.00    +0.000 A 
ATOM      8  C   UNL     1      -0.429  11.087  20.584  0.00  0.00    +0.000 A 
ATOM      9  C   UNL     1      -1.532  11.939  20.473  0.00  0.00    +0.000 A 
ATOM     10  C   UNL     1      -2.229  12.019  19.274  0.00  0.00    +0.000 A 
ATOM     11  C   UNL     1      -1.822  11.257  18.185  0.00  0.00    +0.000 A 
ATOM     12  C   UNL     1      -0.734  10.382  18.319  0.00  0.00    +0.000 A 
BRANCH  11  13
ATOM     13  O   UNL     1      -2.582  11.410  17.058  0.00  0.00    +0.000 OA
BRANCH  13  14
ATOM     14  C   UNL     1      -3.308  10.264  16.650  0.00  0.00    +0.000 C 
ATOM     15  F   UNL     1      -2.515   9.504  15.855  0.00  0.00    +0.000 F 
ATOM     16  F   UNL     1      -3.561   9.529  17.763  0.00  0.00    +0.000 F 
ENDBRANCH  13  14
ENDBRANCH  11  13
ENDBRANCH   4   7
BRANCH   1  17
ATOM     17  C   UNL     1       2.682   5.476  19.354  0.00  0.00    +0.000 C 
ATOM     18  S   UNL     1       2.647   4.393  20.634  0.00  0.00    +0.000 S 
BRANCH  17  26
ATOM     19  C   UNL     1       8.048   5.800  19.146  0.00  0.00    +0.000 C 
ATOM     20  C   UNL     1       6.958   5.338  18.230  0.00  0.00    +0.000 A 
ATOM     21  C   UNL     1       7.221   4.789  16.980  0.00  0.00    +0.000 A 
ATOM     22  C   UNL     1       6.151   4.383  16.188  0.00  0.00    +0.000 A 
ATOM     23  C   UNL     1       6.401   3.824  14.819  0.00  0.00    +0.000 C 
ATOM     24  N   UNL     1       4.857   4.473  16.595  0.00  0.00    +0.000 NA
ATOM     25  C   UNL     1       4.615   4.986  17.820  0.00  0.00    +0.000 A 
ATOM     26  N   UNL     1       3.258   5.060  18.183  0.00  0.00    +0.000 N 
ATOM     27  C   UNL     1       5.631   5.457  18.634  0.00  0.00    +0.000 A 
ATOM     28  H   UNL     1       2.645   4.981  17.382  0.00  0.00    +0.000 HD
ENDBRANCH  17  26
ENDBRANCH   1  17
TORSDOF 5
ENDMDL
MODEL 2
REMARK VINA RESULT:      -7.9      4.421      8.765
REMARK  Name = 
REMARK  7 active torsions:
REMARK  status: ('A' for Active; 'I' for Inactive)
REMARK    1  A    between atoms: C_1  and  C_2
REMARK    2  A    between atoms: C_4  and  C_5
REMARK    3  A    between atoms: N_8  and  C_9
REMARK    4  A    between atoms: C_9  and  N_11
REMARK    5  A    between atoms: N_14  and  C_15
REMARK    6  A    between atoms: C_19  and  O_20
REMARK    7  A    between atoms: O_20  and  C_21
REMARK                            x       y       z     vdW  Elec       q    Type
REMARK                         _______ _______ _______ _____ _____    ______ ____
ROOT
ATOM      1  N   UNL     1       1.203  10.077  19.112  0.00  0.00    +0.000 N 
ATOM      2  C   UNL     1       1.633   9.215  17.995  0.00  0.00    +0.000 C 
ATOM      3  C   UNL     1       2.631   8.122  18.423  0.00  0.00    +0.000 C 
ATOM      4  N   UNL     1       2.111   7.375  19.581  0.00  0.00    +0.000 N 
ATOM      5  C   UNL     1       1.706   8.228  20.717  0.00  0.00    +0.000 C 
ATOM      6  C   UNL     1       0.702   9.310  20.271  0.00  0.00    +0.000 C 
ENDROOT
BRANCH   4   7
ATOM      7  C   UNL     1       1.885   6.012  19.533  0.00  0.00    +0.000 A 
ATOM      8  C   UNL     1       1.306   5.315  20.605  0.00  0.00    +0.000 A 
ATOM      9  C   UNL     1       1.089   3.933  20.563  0.00  0.00    +0.000 A 
ATOM     10  C   UNL     1       1.438   3.210  19.430  0.00  0.00    +0.000 A 
ATOM     11  C   UNL     1       1.995   3.864  18.336  0.00  0.00    +0.000 A 
ATOM     12  C   UNL     1       2.237   5.244  18.403  0.00  0.00    +0.000 A 
BRANCH  11  13
ATOM     13  O   UNL     1       2.305   3.055  17.278  0.00  0.00    +0.000 OA
BRANCH  13  14
ATOM     14  C   UNL     1       3.638   2.577  17.243  0.00  0.00    +0.000 C 
ATOM     15  F   UNL     1       4.406   3.363  18.037  0.00  0.00    +0.000 F 
ATOM     16  F   UNL     1       3.638   1.340  17.806  0.00  0.00    +0.000 F 
ENDBRANCH  13  14
ENDBRANCH  11  13
ENDBRANCH   4   7
BRANCH   1  17
ATOM     17  C   UNL     1       0.733  11.346  18.805  0.00  0.00    +0.000 C 
ATOM     18  S   UNL     1       1.671  12.574  18.154  0.00  0.00    +0.000 S 
BRANCH  17  26
ATOM     19  C   UNL     1      -2.873  10.024  15.037  0.00  0.00    +0.000 C 
ATOM     20  C   UNL     1      -2.913  10.637  16.402  0.00  0.00    +0.000 A 
ATOM     21  C   UNL     1      -4.107  10.981  17.027  0.00  0.00    +0.000 A 
ATOM     22  C   UNL     1      -4.059  11.546  18.299  0.00  0.00    +0.000 A 
ATOM     23  C   UNL     1      -5.326  11.964  18.982  0.00  0.00    +0.000 C 
ATOM     24  N   UNL     1      -2.894  11.750  18.970  0.00  0.00    +0.000 NA
ATOM     25  C   UNL     1      -1.744  11.391  18.363  0.00  0.00    +0.000 A 
ATOM     26  N   UNL     1      -0.573  11.633  19.104  0.00  0.00    +0.000 N 
ATOM     27  C   UNL     1      -1.720  10.874  17.079  0.00  0.00    +0.000 A 
ATOM     28  H   UNL     1      -0.729  12.289  19.859  0.00  0.00    +0.000 HD
ENDBRANCH  17  26
ENDBRANCH   1  17
TORSDOF 5
ENDMDL
MODEL 3
REMARK VINA RESULT:      -7.9      4.648      8.854
REMARK  Name = 
REMARK  7 active torsions:
REMARK  status: ('A' for Active; 'I' for Inactive)
REMARK    1  A    between atoms: C_1  and  C_2
REMARK    2  A    between atoms: C_4  and  C_5
REMARK    3  A    between atoms: N_8  and  C_9
REMARK    4  A    between atoms: C_9  and  N_11
REMARK    5  A    between atoms: N_14  and  C_15
REMARK    6  A    between atoms: C_19  and  O_20
REMARK    7  A    between atoms: O_20  and  C_21
REMARK                            x       y       z     vdW  Elec       q    Type
REMARK                         _______ _______ _______ _____ _____    ______ ____
ROOT
ATOM      1  N   UNL     1       1.455   9.989  19.017  0.00  0.00    +0.000 N 
ATOM      2  C   UNL     1       1.917   9.271  17.814  0.00  0.00    +0.000 C 
ATOM      3  C   UNL     1       2.884   8.116  18.134  0.00  0.00    +0.000 C 
ATOM      4  N   UNL     1       2.311   7.234  19.166  0.00  0.00    +0.000 N 
ATOM      5  C   UNL     1       1.874   7.940  20.387  0.00  0.00    +0.000 C 
ATOM      6  C   UNL     1       0.900   9.088  20.048  0.00  0.00    +0.000 C 
ENDROOT
BRANCH   4   7
ATOM      7  C   UNL     1       2.071   5.893  18.933  0.00  0.00    +0.000 A 
ATOM      8  C   UNL     1       2.238   5.316  17.664  0.00  0.00    +0.000 A 
ATOM      9  C   UNL     1       1.983   3.962  17.424  0.00  0.00    +0.000 A 
ATOM     10  C   UNL     1       1.563   3.140  18.462  0.00  0.00    +0.000 A 
ATOM     11  C   UNL     1       1.405   3.665  19.740  0.00  0.00    +0.000 A 
ATOM     12  C   UNL     1       1.633   5.031  19.960  0.00  0.00    +0.000 A 
BRANCH  11  13
ATOM     13  O   UNL     1       0.983   2.769  20.683  0.00  0.00    +0.000 OA
BRANCH  13  14
ATOM     14  C   UNL     1       1.623   2.863  21.944  0.00  0.00    +0.000 C 
ATOM     15  F   UNL     1       1.022   2.004  22.804  0.00  0.00    +0.000 F 
ATOM     16  F   UNL     1       2.897   2.422  21.784  0.00  0.00    +0.000 F 
ENDBRANCH  13  14
ENDBRANCH  11  13
ENDBRANCH   4   7
BRANCH   1  17
ATOM     17  C   UNL     1       1.012  11.295  18.860  0.00  0.00    +0.000 C 
ATOM     18  S   UNL     1       1.958  12.555  18.286  0.00  0.00    +0.000 S 
BRANCH  17  26
ATOM     19  C   UNL     1      -2.808  10.454  15.166  0.00  0.00    +0.000 C 
ATOM     20  C   UNL     1      -2.764  10.929  16.585  0.00  0.00    +0.000 A 
ATOM     21  C   UNL     1      -3.916  11.242  17.300  0.00  0.00    +0.000 A 
ATOM     22  C   UNL     1      -3.789  11.676  18.616  0.00  0.00    +0.000 A 
ATOM     23  C   UNL     1      -5.009  12.060  19.399  0.00  0.00    +0.000 C 
ATOM     24  N   UNL     1      -2.588  11.781  19.246  0.00  0.00    +0.000 NA
ATOM     25  C   UNL     1      -1.480  11.452  18.550  0.00  0.00    +0.000 A 
ATOM     26  N   UNL     1      -0.269  11.587  19.250  0.00  0.00    +0.000 N 
ATOM     27  C   UNL     1      -1.534  11.065  17.221  0.00  0.00    +0.000 A 
ATOM     28  H   UNL     1      -0.368  12.168  20.073  0.00  0.00    +0.000 HD
ENDBRANCH  17  26
ENDBRANCH   1  17
TORSDOF 5
ENDMDL
MODEL 4
REMARK VINA RESULT:      -7.7      2.202      2.812
REMARK  Name = 
REMARK  7 active torsions:
REMARK  status: ('A' for Active; 'I' for Inactive)
REMARK    1  A    between atoms: C_1  and  C_2
REMARK    2  A    between atoms: C_4  and  C_5
REMARK    3  A    between atoms: N_8  and  C_9
REMARK    4  A    between atoms: C_9  and  N_11
REMARK    5  A    between atoms: N_14  and  C_15
REMARK    6  A    between atoms: C_19  and  O_20
REMARK    7  A    between atoms: O_20  and  C_21
REMARK                            x       y       z     vdW  Elec       q    Type
REMARK                         _______ _______ _______ _____ _____    ______ ____
ROOT
ATOM      1  N   UNL     1       2.294   6.616  19.313  0.00  0.00    +0.000 N 
ATOM      2  C   UNL     1       1.476   6.980  20.485  0.00  0.00    +0.000 C 
ATOM      3  C   UNL     1       1.523   8.484  20.813  0.00  0.00    +0.000 C 
ATOM      4  N   UNL     1       1.224   9.283  19.612  0.00  0.00    +0.000 N 
ATOM      5  C   UNL     1       2.060   8.948  18.441  0.00  0.00    +0.000 C 
ATOM      6  C   UNL     1       1.994   7.440  18.123  0.00  0.00    +0.000 C 
ENDROOT
BRANCH   4   7
ATOM      7  C   UNL     1       0.153  10.155  19.559  0.00  0.00    +0.000 A 
ATOM      8  C   UNL     1      -0.625  10.309  18.400  0.00  0.00    +0.000 A 
ATOM      9  C   UNL     1      -1.701  11.201  18.341  0.00  0.00    +0.000 A 
ATOM     10  C   UNL     1      -2.038  11.958  19.456  0.00  0.00    +0.000 A 
ATOM     11  C   UNL     1      -1.308  11.821  20.631  0.00  0.00    +0.000 A 
ATOM     12  C   UNL     1      -0.211  10.948  20.668  0.00  0.00    +0.000 A 
BRANCH  11  13
ATOM     13  O   UNL     1      -1.723  12.617  21.663  0.00  0.00    +0.000 OA
BRANCH  13  14
ATOM     14  C   UNL     1      -1.243  12.253  22.946  0.00  0.00    +0.000 C 
ATOM     15  F   UNL     1      -1.387  13.310  23.783  0.00  0.00    +0.000 F 
ATOM     16  F   UNL     1      -2.056  11.272  23.417  0.00  0.00    +0.000 F 
ENDBRANCH  13  14
ENDBRANCH  11  13
ENDBRANCH   4   7
BRANCH   1  17
ATOM     17  C   UNL     1       2.732   5.303  19.212  0.00  0.00    +0.000 C 
ATOM     18  S   UNL     1       2.687   4.190  20.465  0.00  0.00    +0.000 S 
BRANCH  17  26
ATOM     19  C   UNL     1       7.920   6.554  18.527  0.00  0.00    +0.000 C 
ATOM     20  C   UNL     1       6.868   5.836  17.739  0.00  0.00    +0.000 A 
ATOM     21  C   UNL     1       7.137   5.245  16.509  0.00  0.00    +0.000 A 
ATOM     22  C   UNL     1       6.104   4.595  15.839  0.00  0.00    +0.000 A 
ATOM     23  C   UNL     1       6.352   3.983  14.493  0.00  0.00    +0.000 C 
ATOM     24  N   UNL     1       4.848   4.486  16.349  0.00  0.00    +0.000 NA
ATOM     25  C   UNL     1       4.606   5.043  17.554  0.00  0.00    +0.000 A 
ATOM     26  N   UNL     1       3.289   4.905  18.026  0.00  0.00    +0.000 N 
ATOM     27  C   UNL     1       5.576   5.749  18.246  0.00  0.00    +0.000 A 
ATOM     28  H   UNL     1       2.644   4.656  17.286  0.00  0.00    +0.000 HD
ENDBRANCH  17  26
ENDBRANCH   1  17
TORSDOF 5
ENDMDL
MODEL 5
REMARK VINA RESULT:      -7.6      4.818      9.045
REMARK  Name = 
REMARK  7 active torsions:
REMARK  status: ('A' for Active; 'I' for Inactive)
REMARK    1  A    between atoms: C_1  and  C_2
REMARK    2  A    between atoms: C_4  and  C_5
REMARK    3  A    between atoms: N_8  and  C_9
REMARK    4  A    between atoms: C_9  and  N_11
REMARK    5  A    between atoms: N_14  and  C_15
REMARK    6  A    between atoms: C_19  and  O_20
REMARK    7  A    between atoms: O_20  and  C_21
REMARK                            x       y       z     vdW  Elec       q    Type
REMARK                         _______ _______ _______ _____ _____    ______ ____
ROOT
ATOM      1  N   UNL     1       1.091  10.138  19.037  0.00  0.00    +0.000 N 
ATOM      2  C   UNL     1       1.602   9.465  17.828  0.00  0.00    +0.000 C 
ATOM      3  C   UNL     1       2.702   8.430  18.130  0.00  0.00    +0.000 C 
ATOM      4  N   UNL     1       2.259   7.500  19.183  0.00  0.00    +0.000 N 
ATOM      5  C   UNL     1       1.775   8.164  20.410  0.00  0.00    +0.000 C 
ATOM      6  C   UNL     1       0.669   9.190  20.089  0.00  0.00    +0.000 C 
ENDROOT
BRANCH   4   7
ATOM      7  C   UNL     1       2.168   6.138  18.966  0.00  0.00    +0.000 A 
ATOM      8  C   UNL     1       1.562   5.606  17.817  0.00  0.00    +0.000 A 
ATOM      9  C   UNL     1       1.456   4.228  17.602  0.00  0.00    +0.000 A 
ATOM     10  C   UNL     1       1.972   3.338  18.536  0.00  0.00    +0.000 A 
ATOM     11  C   UNL     1       2.600   3.822  19.679  0.00  0.00    +0.000 A 
ATOM     12  C   UNL     1       2.671   5.205  19.898  0.00  0.00    +0.000 A 
BRANCH  11  13
ATOM     13  O   UNL     1       3.066   2.859  20.531  0.00  0.00    +0.000 OA
BRANCH  13  14
ATOM     14  C   UNL     1       4.239   2.185  20.109  0.00  0.00    +0.000 C 
ATOM     15  F   UNL     1       5.078   3.083  19.537  0.00  0.00    +0.000 F 
ATOM     16  F   UNL     1       4.864   1.726  21.224  0.00  0.00    +0.000 F 
ENDBRANCH  13  14
ENDBRANCH  11  13
ENDBRANCH   4   7
BRANCH   1  17
ATOM     17  C   UNL     1       0.499  11.384  18.882  0.00  0.00    +0.000 C 
ATOM     18  S   UNL     1       1.320  12.776  18.438  0.00  0.00    +0.000 S 
BRANCH  17  26
ATOM     19  C   UNL     1      -2.847  10.263  14.820  0.00  0.00    +0.000 C 
ATOM     20  C   UNL     1      -2.987  10.669  16.255  0.00  0.00    +0.000 A 
ATOM     21  C   UNL     1      -4.227  10.800  16.871  0.00  0.00    +0.000 A 
ATOM     22  C   UNL     1      -4.272  11.180  18.209  0.00  0.00    +0.000 A 
ATOM     23  C   UNL     1      -5.594  11.370  18.891  0.00  0.00    +0.000 C 
ATOM     24  N   UNL     1      -3.154  11.401  18.951  0.00  0.00    +0.000 NA
ATOM     25  C   UNL     1      -1.956  11.247  18.349  0.00  0.00    +0.000 A 
ATOM     26  N   UNL     1      -0.837  11.495  19.163  0.00  0.00    +0.000 N 
ATOM     27  C   UNL     1      -1.844  10.923  17.007  0.00  0.00    +0.000 A 
ATOM     28  H   UNL     1      -1.081  12.018  19.995  0.00  0.00    +0.000 HD
ENDBRANCH  17  26
ENDBRANCH   1  17
TORSDOF 5
ENDMDL
MODEL 6
REMARK VINA RESULT:      -7.5      4.254      8.861
REMARK  Name = 
REMARK  7 active torsions:
REMARK  status: ('A' for Active; 'I' for Inactive)
REMARK    1  A    between atoms: C_1  and  C_2
REMARK    2  A    between atoms: C_4  and  C_5
REMARK    3  A    between atoms: N_8  and  C_9
REMARK    4  A    between atoms: C_9  and  N_11
REMARK    5  A    between atoms: N_14  and  C_15
REMARK    6  A    between atoms: C_19  and  O_20
REMARK    7  A    between atoms: O_20  and  C_21
REMARK                            x       y       z     vdW  Elec       q    Type
REMARK                         _______ _______ _______ _____ _____    ______ ____
ROOT
ATOM      1  N   UNL     1       3.735   5.891  17.837  0.00  0.00    +0.000 N 
ATOM      2  C   UNL     1       4.532   6.828  17.024  0.00  0.00    +0.000 C 
ATOM      3  C   UNL     1       5.898   6.253  16.602  0.00  0.00    +0.000 C 
ATOM      4  N   UNL     1       5.730   4.927  15.984  0.00  0.00    +0.000 N 
ATOM      5  C   UNL     1       4.959   3.971  16.805  0.00  0.00    +0.000 C 
ATOM      6  C   UNL     1       3.592   4.560  17.210  0.00  0.00    +0.000 C 
ENDROOT
BRANCH   4   7
ATOM      7  C   UNL     1       6.131   4.667  14.686  0.00  0.00    +0.000 A 
ATOM      8  C   UNL     1       7.342   5.155  14.170  0.00  0.00    +0.000 A 
ATOM      9  C   UNL     1       7.744   4.904  12.854  0.00  0.00    +0.000 A 
ATOM     10  C   UNL     1       6.941   4.140  12.017  0.00  0.00    +0.000 A 
ATOM     11  C   UNL     1       5.743   3.619  12.493  0.00  0.00    +0.000 A 
ATOM     12  C   UNL     1       5.336   3.904  13.805  0.00  0.00    +0.000 A 
BRANCH  11  13
ATOM     13  O   UNL     1       5.031   2.887  11.584  0.00  0.00    +0.000 OA
BRANCH  13  14
ATOM     14  C   UNL     1       3.749   3.396  11.259  0.00  0.00    +0.000 C 
ATOM     15  F   UNL     1       3.865   4.233  10.199  0.00  0.00    +0.000 F 
ATOM     16  F   UNL     1       2.992   2.347  10.844  0.00  0.00    +0.000 F 
ENDBRANCH  13  14
ENDBRANCH  11  13
ENDBRANCH   4   7
BRANCH   1  17
ATOM     17  C   UNL     1       2.760   6.424  18.669  0.00  0.00    +0.000 C 
ATOM     18  S   UNL     1       2.112   5.634  19.999  0.00  0.00    +0.000 S 
BRANCH  17  26
ATOM     19  C   UNL     1       0.648   9.206  22.761  0.00  0.00    +0.000 C 
ATOM     20  C   UNL     1       0.860   9.432  21.296  0.00  0.00    +0.000 A 
ATOM     21  C   UNL     1       0.516  10.627  20.672  0.00  0.00    +0.000 A 
ATOM     22  C   UNL     1       0.746  10.759  19.306  0.00  0.00    +0.000 A 
ATOM     23  C   UNL     1       0.349  12.019  18.596  0.00  0.00    +0.000 C 
ATOM     24  N   UNL     1       1.321   9.780  18.557  0.00  0.00    +0.000 NA
ATOM     25  C   UNL     1       1.672   8.634  19.178  0.00  0.00    +0.000 A 
ATOM     26  N   UNL     1       2.255   7.657  18.352  0.00  0.00    +0.000 N 
ATOM     27  C   UNL     1       1.421   8.420  20.523  0.00  0.00    +0.000 A 
ATOM     28  H   UNL     1       2.078   7.834  17.372  0.00  0.00    +0.000 HD
ENDBRANCH  17  26
ENDBRANCH   1  17
TORSDOF 5
ENDMDL
MODEL 7
REMARK VINA RESULT:      -7.5      1.061      1.870
REMARK  Name = 
REMARK  7 active torsions:
REMARK  status: ('A' for Active; 'I' for Inactive)
REMARK    1  A    between atoms: C_1  and  C_2
REMARK    2  A    between atoms: C_4  and  C_5
REMARK    3  A    between atoms: N_8  and  C_9
REMARK    4  A    between atoms: C_9  and  N_11
REMARK    5  A    between atoms: N_14  and  C_15
REMARK    6  A    between atoms: C_19  and  O_20
REMARK    7  A    between atoms: O_20  and  C_21
REMARK                            x       y       z     vdW  Elec       q    Type
REMARK                         _______ _______ _______ _____ _____    ______ ____
ROOT
ATOM      1  N   UNL     1       2.082   6.973  19.709  0.00  0.00    +0.000 N 
ATOM      2  C   UNL     1       1.195   7.421  20.798  0.00  0.00    +0.000 C 
ATOM      3  C   UNL     1       1.174   8.952  20.970  0.00  0.00    +0.000 C 
ATOM      4  N   UNL     1       0.910   9.612  19.680  0.00  0.00    +0.000 N 
ATOM      5  C   UNL     1       1.814   9.192  18.591  0.00  0.00    +0.000 C 
ATOM      6  C   UNL     1       1.815   7.659  18.428  0.00  0.00    +0.000 C 
ENDROOT
BRANCH   4   7
ATOM      7  C   UNL     1      -0.187  10.432  19.488  0.00  0.00    +0.000 A 
ATOM      8  C   UNL     1      -0.709  11.231  20.518  0.00  0.00    +0.000 A 
ATOM      9  C   UNL     1      -1.827  12.051  20.328  0.00  0.00    +0.000 A 
ATOM     10  C   UNL     1      -2.448  12.102  19.087  0.00  0.00    +0.000 A 
ATOM     11  C   UNL     1      -1.951  11.343  18.033  0.00  0.00    +0.000 A 
ATOM     12  C   UNL     1      -0.850  10.501  18.244  0.00  0.00    +0.000 A 
BRANCH  11  13
ATOM     13  O   UNL     1      -2.641  11.466  16.859  0.00  0.00    +0.000 OA
BRANCH  13  14
ATOM     14  C   UNL     1      -2.538  10.367  15.971  0.00  0.00    +0.000 C 
ATOM     15  F   UNL     1      -3.369   9.383  16.393  0.00  0.00    +0.000 F 
ATOM     16  F   UNL     1      -3.006  10.778  14.764  0.00  0.00    +0.000 F 
ENDBRANCH  13  14
ENDBRANCH  11  13
ENDBRANCH   4   7
BRANCH   1  17
ATOM     17  C   UNL     1       2.569   5.674  19.765  0.00  0.00    +0.000 C 
ATOM     18  S   UNL     1       1.613   4.299  19.686  0.00  0.00    +0.000 S 
BRANCH  17  26
ATOM     19  C   UNL     1       5.558   5.585  15.293  0.00  0.00    +0.000 C 
ATOM     20  C   UNL     1       5.814   5.486  16.765  0.00  0.00    +0.000 A 
ATOM     21  C   UNL     1       7.097   5.377  17.291  0.00  0.00    +0.000 A 
ATOM     22  C   UNL     1       7.250   5.291  18.671  0.00  0.00    +0.000 A 
ATOM     23  C   UNL     1       8.617   5.132  19.266  0.00  0.00    +0.000 C 
ATOM     24  N   UNL     1       6.200   5.338  19.534  0.00  0.00    +0.000 NA
ATOM     25  C   UNL     1       4.961   5.468  19.013  0.00  0.00    +0.000 A 
ATOM     26  N   UNL     1       3.915   5.504  19.953  0.00  0.00    +0.000 N 
ATOM     27  C   UNL     1       4.738   5.505  17.647  0.00  0.00    +0.000 A 
ATOM     28  H   UNL     1       4.204   5.152  20.857  0.00  0.00    +0.000 HD
ENDBRANCH  17  26
ENDBRANCH   1  17
TORSDOF 5
ENDMDL
MODEL 8
REMARK VINA RESULT:      -7.4      4.518      9.039
REMARK  Name = 
REMARK  7 active torsions:
REMARK  status: ('A' for Active; 'I' for Inactive)
REMARK    1  A    between atoms: C_1  and  C_2
REMARK    2  A    between atoms: C_4  and  C_5
REMARK    3  A    between atoms: N_8  and  C_9
REMARK    4  A    between atoms: C_9  and  N_11
REMARK    5  A    between atoms: N_14  and  C_15
REMARK    6  A    between atoms: C_19  and  O_20
REMARK    7  A    between atoms: O_20  and  C_21
REMARK                            x       y       z     vdW  Elec       q    Type
REMARK                         _______ _______ _______ _____ _____    ______ ____
ROOT
ATOM      1  N   UNL     1       1.200   9.935  19.121  0.00  0.00    +0.000 N 
ATOM      2  C   UNL     1       1.547   9.056  17.989  0.00  0.00    +0.000 C 
ATOM      3  C   UNL     1       2.569   7.965  18.360  0.00  0.00    +0.000 C 
ATOM      4  N   UNL     1       2.130   7.236  19.562  0.00  0.00    +0.000 N 
ATOM      5  C   UNL     1       1.810   8.105  20.713  0.00  0.00    +0.000 C 
ATOM      6  C   UNL     1       0.780   9.186  20.324  0.00  0.00    +0.000 C 
ENDROOT
BRANCH   4   7
ATOM      7  C   UNL     1       1.897   5.873  19.549  0.00  0.00    +0.000 A 
ATOM      8  C   UNL     1       1.349   5.201  20.653  0.00  0.00    +0.000 A 
ATOM      9  C   UNL     1       1.125   3.820  20.645  0.00  0.00    +0.000 A 
ATOM     10  C   UNL     1       1.435   3.072  19.516  0.00  0.00    +0.000 A 
ATOM     11  C   UNL     1       1.960   3.701  18.393  0.00  0.00    +0.000 A 
ATOM     12  C   UNL     1       2.209   5.081  18.424  0.00  0.00    +0.000 A 
BRANCH  11  13
ATOM     13  O   UNL     1       2.231   2.870  17.342  0.00  0.00    +0.000 OA
BRANCH  13  14
ATOM     14  C   UNL     1       3.513   2.265  17.356  0.00  0.00    +0.000 C 
ATOM     15  F   UNL     1       4.386   3.103  17.967  0.00  0.00    +0.000 F 
ATOM     16  F   UNL     1       3.427   1.157  18.137  0.00  0.00    +0.000 F 
ENDBRANCH  13  14
ENDBRANCH  11  13
ENDBRANCH   4   7
BRANCH   1  17
ATOM     17  C   UNL     1       0.713  11.202  18.831  0.00  0.00    +0.000 C 
ATOM     18  S   UNL     1       1.662  12.580  18.723  0.00  0.00    +0.000 S 
BRANCH  17  26
ATOM     19  C   UNL     1      -1.927  13.190  23.076  0.00  0.00    +0.000 C 
ATOM     20  C   UNL     1      -2.286  12.744  21.693  0.00  0.00    +0.000 A 
ATOM     21  C   UNL     1      -3.583  12.831  21.198  0.00  0.00    +0.000 A 
ATOM     22  C   UNL     1      -3.834  12.396  19.900  0.00  0.00    +0.000 A 
ATOM     23  C   UNL     1      -5.230  12.439  19.352  0.00  0.00    +0.000 C 
ATOM     24  N   UNL     1      -2.861  11.915  19.082  0.00  0.00    +0.000 NA
ATOM     25  C   UNL     1      -1.602  11.858  19.565  0.00  0.00    +0.000 A 
ATOM     26  N   UNL     1      -0.640  11.346  18.676  0.00  0.00    +0.000 N 
ATOM     27  C   UNL     1      -1.296  12.225  20.865  0.00  0.00    +0.000 A 
ATOM     28  H   UNL     1      -1.063  10.839  17.910  0.00  0.00    +0.000 HD
ENDBRANCH  17  26
ENDBRANCH   1  17
TORSDOF 5
ENDMDL
MODEL 9
REMARK VINA RESULT:      -7.4      3.436      3.876
REMARK  Name = 
REMARK  7 active torsions:
REMARK  status: ('A' for Active; 'I' for Inactive)
REMARK    1  A    between atoms: C_1  and  C_2
REMARK    2  A    between atoms: C_4  and  C_5
REMARK    3  A    between atoms: N_8  and  C_9
REMARK    4  A    between atoms: C_9  and  N_11
REMARK    5  A    between atoms: N_14  and  C_15
REMARK    6  A    between atoms: C_19  and  O_20
REMARK    7  A    between atoms: O_20  and  C_21
REMARK                            x       y       z     vdW  Elec       q    Type
REMARK                         _______ _______ _______ _____ _____    ______ ____
ROOT
ATOM      1  N   UNL     1       2.038   7.218  19.172  0.00  0.00    +0.000 N 
ATOM      2  C   UNL     1       2.369   8.104  18.040  0.00  0.00    +0.000 C 
ATOM      3  C   UNL     1       1.366   9.259  17.862  0.00  0.00    +0.000 C 
ATOM      4  N   UNL     1       1.170   9.973  19.136  0.00  0.00    +0.000 N 
ATOM      5  C   UNL     1       0.807   9.097  20.269  0.00  0.00    +0.000 C 
ATOM      6  C   UNL     1       1.827   7.952  20.436  0.00  0.00    +0.000 C 
ENDROOT
BRANCH   4   7
ATOM      7  C   UNL     1       1.456  11.319  19.273  0.00  0.00    +0.000 A 
ATOM      8  C   UNL     1       1.109  12.039  20.427  0.00  0.00    +0.000 A 
ATOM      9  C   UNL     1       1.385  13.404  20.562  0.00  0.00    +0.000 A 
ATOM     10  C   UNL     1       2.034  14.085  19.541  0.00  0.00    +0.000 A 
ATOM     11  C   UNL     1       2.415  13.406  18.389  0.00  0.00    +0.000 A 
ATOM     12  C   UNL     1       2.104  12.045  18.252  0.00  0.00    +0.000 A 
BRANCH  11  13
ATOM     13  O   UNL     1       3.042  14.174  17.448  0.00  0.00    +0.000 OA
BRANCH  13  14
ATOM     14  C   UNL     1       3.828  15.239  17.953  0.00  0.00    +0.000 C 
ATOM     15  F   UNL     1       5.084  15.131  17.454  0.00  0.00    +0.000 F 
ATOM     16  F   UNL     1       3.312  16.393  17.457  0.00  0.00    +0.000 F 
ENDBRANCH  13  14
ENDBRANCH  11  13
ENDBRANCH   4   7
BRANCH   1  17
ATOM     17  C   UNL     1       2.530   5.920  19.143  0.00  0.00    +0.000 C 
ATOM     18  S   UNL     1       2.498   4.864  20.445  0.00  0.00    +0.000 S 
BRANCH  17  26
ATOM     19  C   UNL     1       7.894   5.535  19.308  0.00  0.00    +0.000 C 
ATOM     20  C   UNL     1       6.823   5.270  18.296  0.00  0.00    +0.000 A 
ATOM     21  C   UNL     1       7.103   4.754  17.035  0.00  0.00    +0.000 A 
ATOM     22  C   UNL     1       6.050   4.536  16.152  0.00  0.00    +0.000 A 
ATOM     23  C   UNL     1       6.325   4.020  14.771  0.00  0.00    +0.000 C 
ATOM     24  N   UNL     1       4.752   4.777  16.478  0.00  0.00    +0.000 NA
ATOM     25  C   UNL     1       4.490   5.255  17.713  0.00  0.00    +0.000 A 
ATOM     26  N   UNL     1       3.132   5.491  17.990  0.00  0.00    +0.000 N 
ATOM     27  C   UNL     1       5.497   5.544  18.618  0.00  0.00    +0.000 A 
ATOM     28  H   UNL     1       2.574   5.536  17.146  0.00  0.00    +0.000 HD
ENDBRANCH  17  26
ENDBRANCH   1  17
TORSDOF 5
ENDMDL
