MODEL 1
REMARK VINA RESULT:      -6.8      0.000      0.000
REMARK  Name = 
REMARK  12 active torsions:
REMARK  status: ('A' for Active; 'I' for Inactive)
REMARK    1  A    between atoms: C_2  and  C_3
REMARK    2  A    between atoms: C_3  and  N_4
REMARK    3  A    between atoms: N_4  and  C_5
REMARK    4  A    between atoms: C_5  and  N_7
REMARK    5  A    between atoms: N_7  and  C_8
REMARK    6  A    between atoms: C_11  and  C_12
REMARK    7  A    between atoms: N_17  and  C_18
REMARK    8  A    between atoms: C_18  and  C_19
REMARK    9  A    between atoms: C_19  and  C_20
REMARK   10  A    between atoms: C_20  and  C_21
REMARK   11  A    between atoms: C_21  and  C_22
REMARK   12  A    between atoms: C_22  and  C_23
REMARK                            x       y       z     vdW  Elec       q    Type
REMARK                         _______ _______ _______ _____ _____    ______ ____
ROOT
ATOM      1  C   UNL     1       1.273   9.602  18.867  0.00  0.00    +0.000 A 
ATOM      2  C   UNL     1       1.132   9.137  20.174  0.00  0.00    +0.000 A 
ATOM      3  C   UNL     1       1.539   7.837  20.504  0.00  0.00    +0.000 A 
ATOM      4  C   UNL     1       2.102   6.991  19.536  0.00  0.00    +0.000 A 
ATOM      5  C   UNL     1       2.242   7.462  18.231  0.00  0.00    +0.000 A 
ATOM      6  C   UNL     1       1.837   8.762  17.903  0.00  0.00    +0.000 A 
ENDROOT
BRANCH   4   7
ATOM      7  C   UNL     1       2.371   5.585  19.922  0.00  0.00    +0.000 A 
ATOM      8  N   UNL     1       1.436   4.869  20.485  0.00  0.00    +0.000 NA
ATOM      9  N   UNL     1       1.995   3.645  20.662  0.00  0.00    +0.000 N 
ATOM     10  C   UNL     1       3.289   3.628  20.180  0.00  0.00    +0.000 A 
ATOM     11  S   UNL     1       4.230   2.262  20.183  0.00  0.00    +0.000 S 
ATOM     12  N   UNL     1       3.551   4.908  19.730  0.00  0.00    +0.000 N 
ATOM     13  H   UNL     1       1.476   2.861  21.041  0.00  0.00    +0.000 HD
BRANCH  12  14
ATOM     14  C   UNL     1       4.826   5.335  19.150  0.00  0.00    +0.000 C 
BRANCH  14  15
ATOM     15  C   UNL     1       4.984   5.087  17.652  0.00  0.00    +0.000 C 
BRANCH  15  16
ATOM     16  C   UNL     1       5.352   6.327  16.833  0.00  0.00    +0.000 C 
BRANCH  16  17
ATOM     17  C   UNL     1       6.868   6.355  16.632  0.00  0.00    +0.000 C 
BRANCH  17  18
ATOM     18  C   UNL     1       7.561   7.446  17.441  0.00  0.00    +0.000 C 
ATOM     19  C   UNL     1       8.145   6.862  18.720  0.00  0.00    +0.000 C 
ENDBRANCH  17  18
ENDBRANCH  16  17
ENDBRANCH  15  16
ENDBRANCH  14  15
ENDBRANCH  12  14
ENDBRANCH   4   7
BRANCH   1  20
ATOM     20  N   UNL     1       0.728  10.824  18.428  0.00  0.00    +0.000 N 
ATOM     21  H   UNL     1       1.390  11.560  18.217  0.00  0.00    +0.000 HD
BRANCH  20  22
ATOM     22  C   UNL     1      -0.578  11.233  18.377  0.00  0.00    +0.000 C 
ATOM     23  S   UNL     1      -1.312  12.374  19.346  0.00  0.00    +0.000 S 
BRANCH  22  24
ATOM     24  N   UNL     1      -1.307  10.666  17.361  0.00  0.00    +0.000 N 
ATOM     25  H   UNL     1      -1.137  11.077  16.449  0.00  0.00    +0.000 HD
BRANCH  24  26
ATOM     26  C   UNL     1      -2.590  10.026  17.574  0.00  0.00    +0.000 C 
BRANCH  26  28
ATOM     27  C   UNL     1      -2.970  10.602  15.162  0.00  0.00    +0.000 C 
ATOM     28  C   UNL     1      -3.294   9.908  16.260  0.00  0.00    +0.000 C 
ENDBRANCH  26  28
ENDBRANCH  24  26
ENDBRANCH  22  24
ENDBRANCH  20  22
ENDBRANCH   1  20
TORSDOF 11
ENDMDL
MODEL 2
REMARK VINA RESULT:      -6.8      1.076      1.597
REMARK  Name = 
REMARK  12 active torsions:
REMARK  status: ('A' for Active; 'I' for Inactive)
REMARK    1  A    between atoms: C_2  and  C_3
REMARK    2  A    between atoms: C_3  and  N_4
REMARK    3  A    between atoms: N_4  and  C_5
REMARK    4  A    between atoms: C_5  and  N_7
REMARK    5  A    between atoms: N_7  and  C_8
REMARK    6  A    between atoms: C_11  and  C_12
REMARK    7  A    between atoms: N_17  and  C_18
REMARK    8  A    between atoms: C_18  and  C_19
REMARK    9  A    between atoms: C_19  and  C_20
REMARK   10  A    between atoms: C_20  and  C_21
REMARK   11  A    between atoms: C_21  and  C_22
REMARK   12  A    between atoms: C_22  and  C_23
REMARK                            x       y       z     vdW  Elec       q    Type
REMARK                         _______ _______ _______ _____ _____    ______ ____
ROOT
ATOM      1  C   UNL     1       1.063   9.669  19.357  0.00  0.00    +0.000 A 
ATOM      2  C   UNL     1       0.884   9.079  20.607  0.00  0.00    +0.000 A 
ATOM      3  C   UNL     1       1.359   7.781  20.845  0.00  0.00    +0.000 A 
ATOM      4  C   UNL     1       2.028   7.064  19.842  0.00  0.00    +0.000 A 
ATOM      5  C   UNL     1       2.207   7.660  18.594  0.00  0.00    +0.000 A 
ATOM      6  C   UNL     1       1.733   8.958  18.358  0.00  0.00    +0.000 A 
ENDROOT
BRANCH   4   7
ATOM      7  C   UNL     1       2.370   5.648  20.118  0.00  0.00    +0.000 A 
ATOM      8  N   UNL     1       1.550   4.897  20.802  0.00  0.00    +0.000 NA
ATOM      9  N   UNL     1       2.140   3.675  20.831  0.00  0.00    +0.000 N 
ATOM     10  C   UNL     1       3.333   3.696  20.135  0.00  0.00    +0.000 A 
ATOM     11  S   UNL     1       4.271   2.345  19.920  0.00  0.00    +0.000 S 
ATOM     12  N   UNL     1       3.504   4.996  19.700  0.00  0.00    +0.000 N 
ATOM     13  H   UNL     1       1.700   2.869  21.259  0.00  0.00    +0.000 HD
BRANCH  12  14
ATOM     14  C   UNL     1       4.659   5.464  18.929  0.00  0.00    +0.000 C 
BRANCH  14  15
ATOM     15  C   UNL     1       4.574   5.248  17.420  0.00  0.00    +0.000 C 
BRANCH  15  16
ATOM     16  C   UNL     1       5.230   6.346  16.579  0.00  0.00    +0.000 C 
BRANCH  16  17
ATOM     17  C   UNL     1       5.447   5.818  15.159  0.00  0.00    +0.000 C 
BRANCH  17  18
ATOM     18  C   UNL     1       6.182   4.483  15.122  0.00  0.00    +0.000 C 
ATOM     19  C   UNL     1       6.113   3.884  13.724  0.00  0.00    +0.000 C 
ENDBRANCH  17  18
ENDBRANCH  16  17
ENDBRANCH  15  16
ENDBRANCH  14  15
ENDBRANCH  12  14
ENDBRANCH   4   7
BRANCH   1  20
ATOM     20  N   UNL     1       0.463  10.890  18.995  0.00  0.00    +0.000 N 
ATOM     21  H   UNL     1       0.976  11.729  19.231  0.00  0.00    +0.000 HD
BRANCH  20  22
ATOM     22  C   UNL     1      -0.790  11.137  18.499  0.00  0.00    +0.000 C 
ATOM     23  S   UNL     1      -1.959  12.123  19.165  0.00  0.00    +0.000 S 
BRANCH  22  24
ATOM     24  N   UNL     1      -1.045  10.541  17.288  0.00  0.00    +0.000 N 
ATOM     25  H   UNL     1      -0.454  10.870  16.533  0.00  0.00    +0.000 HD
BRANCH  24  26
ATOM     26  C   UNL     1      -2.341  10.001  16.933  0.00  0.00    +0.000 C 
BRANCH  26  28
ATOM     27  C   UNL     1      -3.250  10.139  14.599  0.00  0.00    +0.000 C 
ATOM     28  C   UNL     1      -2.857  10.730  15.734  0.00  0.00    +0.000 C 
ENDBRANCH  26  28
ENDBRANCH  24  26
ENDBRANCH  22  24
ENDBRANCH  20  22
ENDBRANCH   1  20
TORSDOF 11
ENDMDL
MODEL 3
REMARK VINA RESULT:      -6.5      3.811      7.631
REMARK  Name = 
REMARK  12 active torsions:
REMARK  status: ('A' for Active; 'I' for Inactive)
REMARK    1  A    between atoms: C_2  and  C_3
REMARK    2  A    between atoms: C_3  and  N_4
REMARK    3  A    between atoms: N_4  and  C_5
REMARK    4  A    between atoms: C_5  and  N_7
REMARK    5  A    between atoms: N_7  and  C_8
REMARK    6  A    between atoms: C_11  and  C_12
REMARK    7  A    between atoms: N_17  and  C_18
REMARK    8  A    between atoms: C_18  and  C_19
REMARK    9  A    between atoms: C_19  and  C_20
REMARK   10  A    between atoms: C_20  and  C_21
REMARK   11  A    between atoms: C_21  and  C_22
REMARK   12  A    between atoms: C_22  and  C_23
REMARK                            x       y       z     vdW  Elec       q    Type
REMARK                         _______ _______ _______ _____ _____    ______ ____
ROOT
ATOM      1  C   UNL     1       5.520   4.750  16.049  0.00  0.00    +0.000 A 
ATOM      2  C   UNL     1       5.849   6.094  16.218  0.00  0.00    +0.000 A 
ATOM      3  C   UNL     1       5.002   6.938  16.949  0.00  0.00    +0.000 A 
ATOM      4  C   UNL     1       3.821   6.447  17.529  0.00  0.00    +0.000 A 
ATOM      5  C   UNL     1       3.497   5.102  17.358  0.00  0.00    +0.000 A 
ATOM      6  C   UNL     1       4.346   4.259  16.629  0.00  0.00    +0.000 A 
ENDROOT
BRANCH   4   7
ATOM      7  C   UNL     1       2.904   7.426  18.159  0.00  0.00    +0.000 A 
ATOM      8  N   UNL     1       2.484   8.462  17.483  0.00  0.00    +0.000 NA
ATOM      9  N   UNL     1       1.645   9.111  18.328  0.00  0.00    +0.000 N 
ATOM     10  C   UNL     1       1.552   8.440  19.531  0.00  0.00    +0.000 A 
ATOM     11  S   UNL     1       0.555   8.935  20.762  0.00  0.00    +0.000 S 
ATOM     12  N   UNL     1       2.406   7.357  19.437  0.00  0.00    +0.000 N 
ATOM     13  H   UNL     1       1.127   9.937  18.051  0.00  0.00    +0.000 HD
BRANCH  12  14
ATOM     14  C   UNL     1       2.625   6.382  20.508  0.00  0.00    +0.000 C 
BRANCH  14  15
ATOM     15  C   UNL     1       1.683   5.182  20.509  0.00  0.00    +0.000 C 
BRANCH  15  16
ATOM     16  C   UNL     1       2.109   4.034  21.427  0.00  0.00    +0.000 C 
BRANCH  16  17
ATOM     17  C   UNL     1       1.722   2.707  20.773  0.00  0.00    +0.000 C 
BRANCH  17  18
ATOM     18  C   UNL     1       0.838   2.879  19.543  0.00  0.00    +0.000 C 
ATOM     19  C   UNL     1       1.452   2.162  18.349  0.00  0.00    +0.000 C 
ENDBRANCH  17  18
ENDBRANCH  16  17
ENDBRANCH  15  16
ENDBRANCH  14  15
ENDBRANCH  12  14
ENDBRANCH   4   7
BRANCH   1  20
ATOM     20  N   UNL     1       6.228   3.893  15.186  0.00  0.00    +0.000 N 
ATOM     21  H   UNL     1       6.624   3.061  15.606  0.00  0.00    +0.000 HD
BRANCH  20  22
ATOM     22  C   UNL     1       6.599   4.075  13.880  0.00  0.00    +0.000 C 
ATOM     23  S   UNL     1       7.805   5.076  13.308  0.00  0.00    +0.000 S 
BRANCH  22  24
ATOM     24  N   UNL     1       5.926   3.279  12.986  0.00  0.00    +0.000 N 
ATOM     25  H   UNL     1       6.526   2.805  12.320  0.00  0.00    +0.000 HD
BRANCH  24  26
ATOM     26  C   UNL     1       4.555   3.525  12.589  0.00  0.00    +0.000 C 
BRANCH  26  28
ATOM     27  C   UNL     1       3.333   3.397  10.402  0.00  0.00    +0.000 C 
ATOM     28  C   UNL     1       4.368   3.058  11.181  0.00  0.00    +0.000 C 
ENDBRANCH  26  28
ENDBRANCH  24  26
ENDBRANCH  22  24
ENDBRANCH  20  22
ENDBRANCH   1  20
TORSDOF 11
ENDMDL
MODEL 4
REMARK VINA RESULT:      -6.5      3.749      7.470
REMARK  Name = 
REMARK  12 active torsions:
REMARK  status: ('A' for Active; 'I' for Inactive)
REMARK    1  A    between atoms: C_2  and  C_3
REMARK    2  A    between atoms: C_3  and  N_4
REMARK    3  A    between atoms: N_4  and  C_5
REMARK    4  A    between atoms: C_5  and  N_7
REMARK    5  A    between atoms: N_7  and  C_8
REMARK    6  A    between atoms: C_11  and  C_12
REMARK    7  A    between atoms: N_17  and  C_18
REMARK    8  A    between atoms: C_18  and  C_19
REMARK    9  A    between atoms: C_19  and  C_20
REMARK   10  A    between atoms: C_20  and  C_21
REMARK   11  A    between atoms: C_21  and  C_22
REMARK   12  A    between atoms: C_22  and  C_23
REMARK                            x       y       z     vdW  Elec       q    Type
REMARK                         _______ _______ _______ _____ _____    ______ ____
ROOT
ATOM      1  C   UNL     1       5.344   4.868  16.004  0.00  0.00    +0.000 A 
ATOM      2  C   UNL     1       4.448   4.317  16.918  0.00  0.00    +0.000 A 
ATOM      3  C   UNL     1       3.600   5.151  17.660  0.00  0.00    +0.000 A 
ATOM      4  C   UNL     1       3.630   6.543  17.489  0.00  0.00    +0.000 A 
ATOM      5  C   UNL     1       4.527   7.090  16.572  0.00  0.00    +0.000 A 
ATOM      6  C   UNL     1       5.372   6.255  15.829  0.00  0.00    +0.000 A 
ENDROOT
BRANCH   4   7
ATOM      7  C   UNL     1       2.812   7.368  18.411  0.00  0.00    +0.000 A 
ATOM      8  N   UNL     1       2.442   8.571  18.062  0.00  0.00    +0.000 NA
ATOM      9  N   UNL     1       1.687   9.017  19.097  0.00  0.00    +0.000 N 
ATOM     10  C   UNL     1       1.593   8.051  20.080  0.00  0.00    +0.000 A 
ATOM     11  S   UNL     1       0.685   8.253  21.453  0.00  0.00    +0.000 S 
ATOM     12  N   UNL     1       2.361   6.985  19.650  0.00  0.00    +0.000 N 
ATOM     13  H   UNL     1       1.221   9.916  19.081  0.00  0.00    +0.000 HD
BRANCH  12  14
ATOM     14  C   UNL     1       2.551   5.745  20.407  0.00  0.00    +0.000 C 
BRANCH  14  15
ATOM     15  C   UNL     1       1.355   4.797  20.427  0.00  0.00    +0.000 C 
BRANCH  15  16
ATOM     16  C   UNL     1       1.696   3.345  20.770  0.00  0.00    +0.000 C 
BRANCH  16  17
ATOM     17  C   UNL     1       1.577   2.496  19.503  0.00  0.00    +0.000 C 
BRANCH  17  18
ATOM     18  C   UNL     1       2.909   1.908  19.049  0.00  0.00    +0.000 C 
ATOM     19  C   UNL     1       4.004   2.252  20.048  0.00  0.00    +0.000 C 
ENDBRANCH  17  18
ENDBRANCH  16  17
ENDBRANCH  15  16
ENDBRANCH  14  15
ENDBRANCH  12  14
ENDBRANCH   4   7
BRANCH   1  20
ATOM     20  N   UNL     1       6.340   4.111  15.358  0.00  0.00    +0.000 N 
ATOM     21  H   UNL     1       6.988   3.618  15.958  0.00  0.00    +0.000 HD
BRANCH  20  22
ATOM     22  C   UNL     1       6.669   4.049  14.029  0.00  0.00    +0.000 C 
ATOM     23  S   UNL     1       7.770   5.005  13.221  0.00  0.00    +0.000 S 
BRANCH  22  24
ATOM     24  N   UNL     1       6.052   3.031  13.343  0.00  0.00    +0.000 N 
ATOM     25  H   UNL     1       6.207   2.111  13.740  0.00  0.00    +0.000 HD
BRANCH  24  26
ATOM     26  C   UNL     1       5.753   3.104  11.927  0.00  0.00    +0.000 C 
BRANCH  26  28
ATOM     27  C   UNL     1       3.637   3.355  10.604  0.00  0.00    +0.000 C 
ATOM     28  C   UNL     1       4.312   3.463  11.756  0.00  0.00    +0.000 C 
ENDBRANCH  26  28
ENDBRANCH  24  26
ENDBRANCH  22  24
ENDBRANCH  20  22
ENDBRANCH   1  20
TORSDOF 11
ENDMDL
MODEL 5
REMARK VINA RESULT:      -6.5      2.500      4.146
REMARK  Name = 
REMARK  12 active torsions:
REMARK  status: ('A' for Active; 'I' for Inactive)
REMARK    1  A    between atoms: C_2  and  C_3
REMARK    2  A    between atoms: C_3  and  N_4
REMARK    3  A    between atoms: N_4  and  C_5
REMARK    4  A    between atoms: C_5  and  N_7
REMARK    5  A    between atoms: N_7  and  C_8
REMARK    6  A    between atoms: C_11  and  C_12
REMARK    7  A    between atoms: N_17  and  C_18
REMARK    8  A    between atoms: C_18  and  C_19
REMARK    9  A    between atoms: C_19  and  C_20
REMARK   10  A    between atoms: C_20  and  C_21
REMARK   11  A    between atoms: C_21  and  C_22
REMARK   12  A    between atoms: C_22  and  C_23
REMARK                            x       y       z     vdW  Elec       q    Type
REMARK                         _______ _______ _______ _____ _____    ______ ____
ROOT
ATOM      1  C   UNL     1       1.486   8.450  19.907  0.00  0.00    +0.000 A 
ATOM      2  C   UNL     1       1.722   8.968  18.635  0.00  0.00    +0.000 A 
ATOM      3  C   UNL     1       2.544   8.275  17.735  0.00  0.00    +0.000 A 
ATOM      4  C   UNL     1       3.130   7.051  18.092  0.00  0.00    +0.000 A 
ATOM      5  C   UNL     1       2.889   6.535  19.365  0.00  0.00    +0.000 A 
ATOM      6  C   UNL     1       2.066   7.228  20.262  0.00  0.00    +0.000 A 
ENDROOT
BRANCH   4   7
ATOM      7  C   UNL     1       4.102   6.450  17.147  0.00  0.00    +0.000 A 
ATOM      8  N   UNL     1       4.835   7.217  16.385  0.00  0.00    +0.000 NA
ATOM      9  N   UNL     1       5.627   6.361  15.692  0.00  0.00    +0.000 N 
ATOM     10  C   UNL     1       5.369   5.055  16.059  0.00  0.00    +0.000 A 
ATOM     11  S   UNL     1       6.215   3.766  15.446  0.00  0.00    +0.000 S 
ATOM     12  N   UNL     1       4.344   5.108  16.984  0.00  0.00    +0.000 N 
ATOM     13  H   UNL     1       6.342   6.682  15.049  0.00  0.00    +0.000 HD
BRANCH  12  14
ATOM     14  C   UNL     1       3.747   3.934  17.624  0.00  0.00    +0.000 C 
BRANCH  14  15
ATOM     15  C   UNL     1       2.376   3.520  17.095  0.00  0.00    +0.000 C 
BRANCH  15  16
ATOM     16  C   UNL     1       1.253   3.553  18.134  0.00  0.00    +0.000 C 
BRANCH  16  17
ATOM     17  C   UNL     1       1.736   2.857  19.407  0.00  0.00    +0.000 C 
BRANCH  17  18
ATOM     18  C   UNL     1       1.173   3.477  20.681  0.00  0.00    +0.000 C 
ATOM     19  C   UNL     1       2.207   3.419  21.797  0.00  0.00    +0.000 C 
ENDBRANCH  17  18
ENDBRANCH  16  17
ENDBRANCH  15  16
ENDBRANCH  14  15
ENDBRANCH  12  14
ENDBRANCH   4   7
BRANCH   1  20
ATOM     20  N   UNL     1       0.820   9.172  20.915  0.00  0.00    +0.000 N 
ATOM     21  H   UNL     1       1.054   8.930  21.869  0.00  0.00    +0.000 HD
BRANCH  20  22
ATOM     22  C   UNL     1      -0.217  10.062  20.816  0.00  0.00    +0.000 C 
ATOM     23  S   UNL     1      -0.524  11.363  21.813  0.00  0.00    +0.000 S 
BRANCH  22  24
ATOM     24  N   UNL     1      -1.027   9.863  19.725  0.00  0.00    +0.000 N 
ATOM     25  H   UNL     1      -0.987   8.924  19.344  0.00  0.00    +0.000 HD
BRANCH  24  26
ATOM     26  C   UNL     1      -1.410  10.931  18.824  0.00  0.00    +0.000 C 
BRANCH  26  28
ATOM     27  C   UNL     1      -2.476  11.040  16.556  0.00  0.00    +0.000 C 
ATOM     28  C   UNL     1      -2.036  10.333  17.604  0.00  0.00    +0.000 C 
ENDBRANCH  26  28
ENDBRANCH  24  26
ENDBRANCH  22  24
ENDBRANCH  20  22
ENDBRANCH   1  20
TORSDOF 11
ENDMDL
MODEL 6
REMARK VINA RESULT:      -6.4      2.147      2.917
REMARK  Name = 
REMARK  12 active torsions:
REMARK  status: ('A' for Active; 'I' for Inactive)
REMARK    1  A    between atoms: C_2  and  C_3
REMARK    2  A    between atoms: C_3  and  N_4
REMARK    3  A    between atoms: N_4  and  C_5
REMARK    4  A    between atoms: C_5  and  N_7
REMARK    5  A    between atoms: N_7  and  C_8
REMARK    6  A    between atoms: C_11  and  C_12
REMARK    7  A    between atoms: N_17  and  C_18
REMARK    8  A    between atoms: C_18  and  C_19
REMARK    9  A    between atoms: C_19  and  C_20
REMARK   10  A    between atoms: C_20  and  C_21
REMARK   11  A    between atoms: C_21  and  C_22
REMARK   12  A    between atoms: C_22  and  C_23
REMARK                            x       y       z     vdW  Elec       q    Type
REMARK                         _______ _______ _______ _____ _____    ______ ____
ROOT
ATOM      1  C   UNL     1       1.404   9.516  18.780  0.00  0.00    +0.000 A 
ATOM      2  C   UNL     1       1.233   9.035  20.078  0.00  0.00    +0.000 A 
ATOM      3  C   UNL     1       1.640   7.734  20.403  0.00  0.00    +0.000 A 
ATOM      4  C   UNL     1       2.231   6.902  19.440  0.00  0.00    +0.000 A 
ATOM      5  C   UNL     1       2.401   7.388  18.144  0.00  0.00    +0.000 A 
ATOM      6  C   UNL     1       1.996   8.689  17.821  0.00  0.00    +0.000 A 
ENDROOT
BRANCH   4   7
ATOM      7  C   UNL     1       2.499   5.494  19.817  0.00  0.00    +0.000 A 
ATOM      8  N   UNL     1       1.545   4.756  20.319  0.00  0.00    +0.000 NA
ATOM      9  N   UNL     1       2.111   3.536  20.506  0.00  0.00    +0.000 N 
ATOM     10  C   UNL     1       3.428   3.544  20.092  0.00  0.00    +0.000 A 
ATOM     11  S   UNL     1       4.387   2.191  20.122  0.00  0.00    +0.000 S 
ATOM     12  N   UNL     1       3.696   4.835  19.677  0.00  0.00    +0.000 N 
ATOM     13  H   UNL     1       1.584   2.740  20.844  0.00  0.00    +0.000 HD
BRANCH  12  14
ATOM     14  C   UNL     1       4.994   5.287  19.171  0.00  0.00    +0.000 C 
BRANCH  14  15
ATOM     15  C   UNL     1       5.276   4.973  17.704  0.00  0.00    +0.000 C 
BRANCH  15  16
ATOM     16  C   UNL     1       5.717   6.174  16.865  0.00  0.00    +0.000 C 
BRANCH  16  17
ATOM     17  C   UNL     1       5.380   5.904  15.398  0.00  0.00    +0.000 C 
BRANCH  17  18
ATOM     18  C   UNL     1       5.508   4.434  15.014  0.00  0.00    +0.000 C 
ATOM     19  C   UNL     1       6.507   4.273  13.877  0.00  0.00    +0.000 C 
ENDBRANCH  17  18
ENDBRANCH  16  17
ENDBRANCH  15  16
ENDBRANCH  14  15
ENDBRANCH  12  14
ENDBRANCH   4   7
BRANCH   1  20
ATOM     20  N   UNL     1       0.863  10.739  18.341  0.00  0.00    +0.000 N 
ATOM     21  H   UNL     1       0.498  10.755  17.397  0.00  0.00    +0.000 HD
BRANCH  20  22
ATOM     22  C   UNL     1       0.884  11.971  18.940  0.00  0.00    +0.000 C 
ATOM     23  S   UNL     1       1.996  13.189  18.693  0.00  0.00    +0.000 S 
BRANCH  22  24
ATOM     24  N   UNL     1      -0.181  12.211  19.773  0.00  0.00    +0.000 N 
ATOM     25  H   UNL     1      -1.036  12.465  19.291  0.00  0.00    +0.000 HD
BRANCH  24  26
ATOM     26  C   UNL     1      -0.025  12.671  21.138  0.00  0.00    +0.000 C 
BRANCH  26  28
ATOM     27  C   UNL     1      -0.628  10.817  22.716  0.00  0.00    +0.000 C 
ATOM     28  C   UNL     1      -0.964  11.908  22.016  0.00  0.00    +0.000 C 
ENDBRANCH  26  28
ENDBRANCH  24  26
ENDBRANCH  22  24
ENDBRANCH  20  22
ENDBRANCH   1  20
TORSDOF 11
ENDMDL
MODEL 7
REMARK VINA RESULT:      -6.3      1.858      2.986
REMARK  Name = 
REMARK  12 active torsions:
REMARK  status: ('A' for Active; 'I' for Inactive)
REMARK    1  A    between atoms: C_2  and  C_3
REMARK    2  A    between atoms: C_3  and  N_4
REMARK    3  A    between atoms: N_4  and  C_5
REMARK    4  A    between atoms: C_5  and  N_7
REMARK    5  A    between atoms: N_7  and  C_8
REMARK    6  A    between atoms: C_11  and  C_12
REMARK    7  A    between atoms: N_17  and  C_18
REMARK    8  A    between atoms: C_18  and  C_19
REMARK    9  A    between atoms: C_19  and  C_20
REMARK   10  A    between atoms: C_20  and  C_21
REMARK   11  A    between atoms: C_21  and  C_22
REMARK   12  A    between atoms: C_22  and  C_23
REMARK                            x       y       z     vdW  Elec       q    Type
REMARK                         _______ _______ _______ _____ _____    ______ ____
ROOT
ATOM      1  C   UNL     1       1.343   9.664  18.941  0.00  0.00    +0.000 A 
ATOM      2  C   UNL     1       1.197   9.136  20.223  0.00  0.00    +0.000 A 
ATOM      3  C   UNL     1       1.611   7.825  20.494  0.00  0.00    +0.000 A 
ATOM      4  C   UNL     1       2.186   7.029  19.491  0.00  0.00    +0.000 A 
ATOM      5  C   UNL     1       2.332   7.562  18.210  0.00  0.00    +0.000 A 
ATOM      6  C   UNL     1       1.920   8.874  17.942  0.00  0.00    +0.000 A 
ENDROOT
BRANCH   4   7
ATOM      7  C   UNL     1       2.463   5.609  19.811  0.00  0.00    +0.000 A 
ATOM      8  N   UNL     1       1.532   4.862  20.342  0.00  0.00    +0.000 NA
ATOM      9  N   UNL     1       2.096   3.634  20.462  0.00  0.00    +0.000 N 
ATOM     10  C   UNL     1       3.390   3.646  19.978  0.00  0.00    +0.000 A 
ATOM     11  S   UNL     1       4.338   2.286  19.917  0.00  0.00    +0.000 S 
ATOM     12  N   UNL     1       3.645   4.947  19.587  0.00  0.00    +0.000 N 
ATOM     13  H   UNL     1       1.582   2.831  20.804  0.00  0.00    +0.000 HD
BRANCH  12  14
ATOM     14  C   UNL     1       4.918   5.406  19.026  0.00  0.00    +0.000 C 
BRANCH  14  15
ATOM     15  C   UNL     1       4.953   5.553  17.507  0.00  0.00    +0.000 C 
BRANCH  15  16
ATOM     16  C   UNL     1       5.480   4.327  16.758  0.00  0.00    +0.000 C 
BRANCH  16  17
ATOM     17  C   UNL     1       5.234   4.518  15.260  0.00  0.00    +0.000 C 
BRANCH  17  18
ATOM     18  C   UNL     1       6.499   4.381  14.421  0.00  0.00    +0.000 C 
ATOM     19  C   UNL     1       6.194   3.643  13.125  0.00  0.00    +0.000 C 
ENDBRANCH  17  18
ENDBRANCH  16  17
ENDBRANCH  15  16
ENDBRANCH  14  15
ENDBRANCH  12  14
ENDBRANCH   4   7
BRANCH   1  20
ATOM     20  N   UNL     1       0.793  10.901  18.556  0.00  0.00    +0.000 N 
ATOM     21  H   UNL     1       1.414  11.537  18.073  0.00  0.00    +0.000 HD
BRANCH  20  22
ATOM     22  C   UNL     1      -0.422  11.453  18.864  0.00  0.00    +0.000 C 
ATOM     23  S   UNL     1      -1.926  10.867  18.444  0.00  0.00    +0.000 S 
BRANCH  22  24
ATOM     24  N   UNL     1      -0.350  12.569  19.660  0.00  0.00    +0.000 N 
ATOM     25  H   UNL     1      -0.379  13.445  19.149  0.00  0.00    +0.000 HD
BRANCH  24  26
ATOM     26  C   UNL     1       0.305  12.574  20.952  0.00  0.00    +0.000 C 
BRANCH  26  28
ATOM     27  C   UNL     1      -0.889  11.103  22.596  0.00  0.00    +0.000 C 
ATOM     28  C   UNL     1      -0.713  12.295  22.011  0.00  0.00    +0.000 C 
ENDBRANCH  26  28
ENDBRANCH  24  26
ENDBRANCH  22  24
ENDBRANCH  20  22
ENDBRANCH   1  20
TORSDOF 11
ENDMDL
MODEL 8
REMARK VINA RESULT:      -6.2      1.589      2.503
REMARK  Name = 
REMARK  12 active torsions:
REMARK  status: ('A' for Active; 'I' for Inactive)
REMARK    1  A    between atoms: C_2  and  C_3
REMARK    2  A    between atoms: C_3  and  N_4
REMARK    3  A    between atoms: N_4  and  C_5
REMARK    4  A    between atoms: C_5  and  N_7
REMARK    5  A    between atoms: N_7  and  C_8
REMARK    6  A    between atoms: C_11  and  C_12
REMARK    7  A    between atoms: N_17  and  C_18
REMARK    8  A    between atoms: C_18  and  C_19
REMARK    9  A    between atoms: C_19  and  C_20
REMARK   10  A    between atoms: C_20  and  C_21
REMARK   11  A    between atoms: C_21  and  C_22
REMARK   12  A    between atoms: C_22  and  C_23
REMARK                            x       y       z     vdW  Elec       q    Type
REMARK                         _______ _______ _______ _____ _____    ______ ____
ROOT
ATOM      1  C   UNL     1       1.306   9.716  18.826  0.00  0.00    +0.000 A 
ATOM      2  C   UNL     1       1.140   9.218  20.118  0.00  0.00    +0.000 A 
ATOM      3  C   UNL     1       1.549   7.913  20.425  0.00  0.00    +0.000 A 
ATOM      4  C   UNL     1       2.138   7.094  19.450  0.00  0.00    +0.000 A 
ATOM      5  C   UNL     1       2.304   7.597  18.160  0.00  0.00    +0.000 A 
ATOM      6  C   UNL     1       1.897   8.903  17.855  0.00  0.00    +0.000 A 
ENDROOT
BRANCH   4   7
ATOM      7  C   UNL     1       2.409   5.681  19.807  0.00  0.00    +0.000 A 
ATOM      8  N   UNL     1       1.477   4.956  20.365  0.00  0.00    +0.000 NA
ATOM      9  N   UNL     1       2.035   3.728  20.515  0.00  0.00    +0.000 N 
ATOM     10  C   UNL     1       3.325   3.718  20.021  0.00  0.00    +0.000 A 
ATOM     11  S   UNL     1       4.265   2.351  19.990  0.00  0.00    +0.000 S 
ATOM     12  N   UNL     1       3.585   5.006  19.592  0.00  0.00    +0.000 N 
ATOM     13  H   UNL     1       1.519   2.938  20.883  0.00  0.00    +0.000 HD
BRANCH  12  14
ATOM     14  C   UNL     1       4.857   5.442  19.009  0.00  0.00    +0.000 C 
BRANCH  14  15
ATOM     15  C   UNL     1       4.931   5.397  17.485  0.00  0.00    +0.000 C 
BRANCH  15  16
ATOM     16  C   UNL     1       5.948   6.359  16.866  0.00  0.00    +0.000 C 
BRANCH  16  17
ATOM     17  C   UNL     1       7.344   6.001  17.380  0.00  0.00    +0.000 C 
BRANCH  17  18
ATOM     18  C   UNL     1       7.953   7.084  18.264  0.00  0.00    +0.000 C 
ATOM     19  C   UNL     1       7.717   8.457  17.651  0.00  0.00    +0.000 C 
ENDBRANCH  17  18
ENDBRANCH  16  17
ENDBRANCH  15  16
ENDBRANCH  14  15
ENDBRANCH  12  14
ENDBRANCH   4   7
BRANCH   1  20
ATOM     20  N   UNL     1       0.763  10.944  18.405  0.00  0.00    +0.000 N 
ATOM     21  H   UNL     1       1.256  11.420  17.660  0.00  0.00    +0.000 HD
BRANCH  20  22
ATOM     22  C   UNL     1      -0.256  11.683  18.946  0.00  0.00    +0.000 C 
ATOM     23  S   UNL     1      -1.806  11.843  18.352  0.00  0.00    +0.000 S 
BRANCH  22  24
ATOM     24  N   UNL     1       0.057  12.286  20.140  0.00  0.00    +0.000 N 
ATOM     25  H   UNL     1       0.909  11.940  20.567  0.00  0.00    +0.000 HD
BRANCH  24  26
ATOM     26  C   UNL     1      -0.942  12.863  21.016  0.00  0.00    +0.000 C 
BRANCH  26  28
ATOM     27  C   UNL     1      -1.988  11.937  23.100  0.00  0.00    +0.000 C 
ATOM     28  C   UNL     1      -0.916  12.136  22.323  0.00  0.00    +0.000 C 
ENDBRANCH  26  28
ENDBRANCH  24  26
ENDBRANCH  22  24
ENDBRANCH  20  22
ENDBRANCH   1  20
TORSDOF 11
ENDMDL
MODEL 9
REMARK VINA RESULT:      -6.2      2.115      3.259
REMARK  Name = 
REMARK  12 active torsions:
REMARK  status: ('A' for Active; 'I' for Inactive)
REMARK    1  A    between atoms: C_2  and  C_3
REMARK    2  A    between atoms: C_3  and  N_4
REMARK    3  A    between atoms: N_4  and  C_5
REMARK    4  A    between atoms: C_5  and  N_7
REMARK    5  A    between atoms: N_7  and  C_8
REMARK    6  A    between atoms: C_11  and  C_12
REMARK    7  A    between atoms: N_17  and  C_18
REMARK    8  A    between atoms: C_18  and  C_19
REMARK    9  A    between atoms: C_19  and  C_20
REMARK   10  A    between atoms: C_20  and  C_21
REMARK   11  A    between atoms: C_21  and  C_22
REMARK   12  A    between atoms: C_22  and  C_23
REMARK                            x       y       z     vdW  Elec       q    Type
REMARK                         _______ _______ _______ _____ _____    ______ ____
ROOT
ATOM      1  C   UNL     1       1.252   9.779  18.742  0.00  0.00    +0.000 A 
ATOM      2  C   UNL     1       1.105   9.322  20.051  0.00  0.00    +0.000 A 
ATOM      3  C   UNL     1       1.567   8.047  20.406  0.00  0.00    +0.000 A 
ATOM      4  C   UNL     1       2.189   7.217  19.460  0.00  0.00    +0.000 A 
ATOM      5  C   UNL     1       2.336   7.680  18.153  0.00  0.00    +0.000 A 
ATOM      6  C   UNL     1       1.876   8.956  17.800  0.00  0.00    +0.000 A 
ENDROOT
BRANCH   4   7
ATOM      7  C   UNL     1       2.517   5.831  19.869  0.00  0.00    +0.000 A 
ATOM      8  N   UNL     1       1.767   5.208  20.738  0.00  0.00    +0.000 NA
ATOM      9  N   UNL     1       2.314   3.972  20.848  0.00  0.00    +0.000 N 
ATOM     10  C   UNL     1       3.409   3.850  20.014  0.00  0.00    +0.000 A 
ATOM     11  S   UNL     1       4.267   2.439  19.859  0.00  0.00    +0.000 S 
ATOM     12  N   UNL     1       3.567   5.079  19.401  0.00  0.00    +0.000 N 
ATOM     13  H   UNL     1       1.906   3.247  21.426  0.00  0.00    +0.000 HD
BRANCH  12  14
ATOM     14  C   UNL     1       4.628   5.393  18.442  0.00  0.00    +0.000 C 
BRANCH  14  15
ATOM     15  C   UNL     1       4.333   5.024  16.990  0.00  0.00    +0.000 C 
BRANCH  15  16
ATOM     16  C   UNL     1       5.211   3.906  16.423  0.00  0.00    +0.000 C 
BRANCH  16  17
ATOM     17  C   UNL     1       6.628   4.445  16.217  0.00  0.00    +0.000 C 
BRANCH  17  18
ATOM     18  C   UNL     1       6.933   4.789  14.763  0.00  0.00    +0.000 C 
ATOM     19  C   UNL     1       6.090   3.929  13.831  0.00  0.00    +0.000 C 
ENDBRANCH  17  18
ENDBRANCH  16  17
ENDBRANCH  15  16
ENDBRANCH  14  15
ENDBRANCH  12  14
ENDBRANCH   4   7
BRANCH   1  20
ATOM     20  N   UNL     1       0.660  10.968  18.277  0.00  0.00    +0.000 N 
ATOM     21  H   UNL     1       0.477  11.018  17.283  0.00  0.00    +0.000 HD
BRANCH  20  22
ATOM     22  C   UNL     1       0.422  12.144  18.937  0.00  0.00    +0.000 C 
ATOM     23  S   UNL     1      -1.030  12.665  19.570  0.00  0.00    +0.000 S 
BRANCH  22  24
ATOM     24  N   UNL     1       1.540  12.916  19.135  0.00  0.00    +0.000 N 
ATOM     25  H   UNL     1       1.385  13.726  19.726  0.00  0.00    +0.000 HD
BRANCH  24  26
ATOM     26  C   UNL     1       2.628  12.987  18.181  0.00  0.00    +0.000 C 
BRANCH  26  28
ATOM     27  C   UNL     1       4.454  14.708  18.193  0.00  0.00    +0.000 C 
ATOM     28  C   UNL     1       3.154  14.386  18.150  0.00  0.00    +0.000 C 
ENDBRANCH  26  28
ENDBRANCH  24  26
ENDBRANCH  22  24
ENDBRANCH  20  22
ENDBRANCH   1  20
TORSDOF 11
ENDMDL
