MODEL 1
REMARK VINA RESULT:      -7.6      0.000      0.000
REMARK  Name = 
REMARK  8 active torsions:
REMARK  status: ('A' for Active; 'I' for Inactive)
REMARK    1  A    between atoms: C_1  and  O_2
REMARK    2  A    between atoms: O_2  and  C_3
REMARK    3  A    between atoms: C_5  and  N_6
REMARK    4  A    between atoms: C_10  and  C_11
REMARK    5  A    between atoms: N_13  and  C_14
REMARK    6  A    between atoms: C_14  and  C_15
REMARK    7  A    between atoms: N_17  and  C_18
REMARK    8  A    between atoms: C_18  and  C_19
REMARK                            x       y       z     vdW  Elec       q    Type
REMARK                         _______ _______ _______ _____ _____    ______ ____
ROOT
ATOM      1  C   UNL     1       2.103   8.980  18.262  0.00  0.00    +0.000 C 
ATOM      2  O   UNL     1       1.937   9.823  17.385  0.00  0.00    +0.000 OA
ATOM      3  N   UNL     1       2.988   7.937  18.114  0.00  0.00    +0.000 N 
ATOM      4  H   UNL     1       3.060   7.264  18.871  0.00  0.00    +0.000 HD
ENDROOT
BRANCH   1  11
ATOM      5  C   UNL     1       1.408   8.146  20.609  0.00  0.00    +0.000 A 
ATOM      6  C   UNL     1       0.670   8.377  21.785  0.00  0.00    +0.000 A 
ATOM      7  C   UNL     1      -0.200   9.466  21.906  0.00  0.00    +0.000 A 
ATOM      8  C   UNL     1      -0.252  10.388  20.852  0.00  0.00    +0.000 A 
ATOM      9 CL   UNL     1      -1.268  11.787  20.961  0.00  0.00    +0.000 Cl
ATOM     10  C   UNL     1       0.490  10.193  19.687  0.00  0.00    +0.000 A 
ATOM     11  C   UNL     1       1.335   9.076  19.552  0.00  0.00    +0.000 A 
BRANCH   7  12
ATOM     12  N   UNL     1      -0.806   9.717  23.150  0.00  0.00    +0.000 N 
ATOM     13  H   UNL     1      -1.436  10.512  23.177  0.00  0.00    +0.000 HD
ATOM     14  H   UNL     1      -0.146   9.708  23.926  0.00  0.00    +0.000 HD
ENDBRANCH   7  12
BRANCH   5  16
ATOM     15  C   UNL     1       1.684   5.789  20.765  0.00  0.00    +0.000 C 
ATOM     16  O   UNL     1       2.249   7.068  20.477  0.00  0.00    +0.000 OA
ENDBRANCH   5  16
ENDBRANCH   1  11
BRANCH   3  17
ATOM     17  C   UNL     1       3.768   7.722  16.904  0.00  0.00    +0.000 C 
BRANCH  17  18
ATOM     18  C   UNL     1       4.597   6.425  16.914  0.00  0.00    +0.000 C 
ATOM     19  C   UNL     1       4.753   5.865  18.346  0.00  0.00    +0.000 C 
ATOM     20  N   UNL     1       5.533   4.603  18.411  0.00  0.00    +0.000 NA
ATOM     21  C   UNL     1       6.834   4.857  17.742  0.00  0.00    +0.000 C 
ATOM     22  C   UNL     1       6.720   5.524  16.355  0.00  0.00    +0.000 C 
ATOM     23  O   UNL     1       5.912   6.710  16.386  0.00  0.00    +0.000 OA
BRANCH  20  24
ATOM     24  C   UNL     1       4.842   3.463  17.772  0.00  0.00    +0.000 C 
BRANCH  24  25
ATOM     25  C   UNL     1       3.473   3.166  18.336  0.00  0.00    +0.000 A 
ATOM     26  C   UNL     1       2.305   3.503  17.638  0.00  0.00    +0.000 A 
ATOM     27  C   UNL     1       1.049   3.199  18.172  0.00  0.00    +0.000 A 
ATOM     28  C   UNL     1       0.947   2.555  19.407  0.00  0.00    +0.000 A 
ATOM     29  C   UNL     1       2.100   2.226  20.115  0.00  0.00    +0.000 A 
ATOM     30  C   UNL     1       3.347   2.540  19.581  0.00  0.00    +0.000 A 
ATOM     31  F   UNL     1       4.442   2.229  20.288  0.00  0.00    +0.000 F 
ENDBRANCH  24  25
ENDBRANCH  20  24
ENDBRANCH  17  18
ENDBRANCH   3  17
TORSDOF 7
ENDMDL
MODEL 2
REMARK VINA RESULT:      -7.6      2.533      4.301
REMARK  Name = 
REMARK  8 active torsions:
REMARK  status: ('A' for Active; 'I' for Inactive)
REMARK    1  A    between atoms: C_1  and  O_2
REMARK    2  A    between atoms: O_2  and  C_3
REMARK    3  A    between atoms: C_5  and  N_6
REMARK    4  A    between atoms: C_10  and  C_11
REMARK    5  A    between atoms: N_13  and  C_14
REMARK    6  A    between atoms: C_14  and  C_15
REMARK    7  A    between atoms: N_17  and  C_18
REMARK    8  A    between atoms: C_18  and  C_19
REMARK                            x       y       z     vdW  Elec       q    Type
REMARK                         _______ _______ _______ _____ _____    ______ ____
ROOT
ATOM      1  C   UNL     1       1.222   9.444  18.395  0.00  0.00    +0.000 C 
ATOM      2  O   UNL     1       2.011   9.739  17.501  0.00  0.00    +0.000 OA
ATOM      3  N   UNL     1       1.537   8.531  19.375  0.00  0.00    +0.000 N 
ATOM      4  H   UNL     1       0.829   8.318  20.071  0.00  0.00    +0.000 HD
ENDROOT
BRANCH   1  11
ATOM      5  C   UNL     1      -0.583  10.949  19.472  0.00  0.00    +0.000 A 
ATOM      6  C   UNL     1      -1.862  11.531  19.377  0.00  0.00    +0.000 A 
ATOM      7  C   UNL     1      -2.734  11.222  18.329  0.00  0.00    +0.000 A 
ATOM      8  C   UNL     1      -2.269  10.380  17.309  0.00  0.00    +0.000 A 
ATOM      9 CL   UNL     1      -3.281  10.001  15.955  0.00  0.00    +0.000 Cl
ATOM     10  C   UNL     1      -0.996   9.813  17.370  0.00  0.00    +0.000 A 
ATOM     11  C   UNL     1      -0.133  10.094  18.446  0.00  0.00    +0.000 A 
BRANCH   7  12
ATOM     12  N   UNL     1      -3.942  11.934  18.216  0.00  0.00    +0.000 N 
ATOM     13  H   UNL     1      -4.278  12.080  17.270  0.00  0.00    +0.000 HD
ATOM     14  H   UNL     1      -3.959  12.784  18.778  0.00  0.00    +0.000 HD
ENDBRANCH   7  12
BRANCH   5  16
ATOM     15  C   UNL     1      -0.196  10.904  21.819  0.00  0.00    +0.000 C 
ATOM     16  O   UNL     1       0.270  11.234  20.510  0.00  0.00    +0.000 OA
ENDBRANCH   5  16
ENDBRANCH   1  11
BRANCH   3  17
ATOM     17  C   UNL     1       2.804   7.816  19.418  0.00  0.00    +0.000 C 
BRANCH  17  18
ATOM     18  C   UNL     1       2.659   6.288  19.527  0.00  0.00    +0.000 C 
ATOM     19  C   UNL     1       2.418   5.643  18.143  0.00  0.00    +0.000 C 
ATOM     20  N   UNL     1       2.285   4.165  18.189  0.00  0.00    +0.000 NA
ATOM     21  C   UNL     1       1.218   3.850  19.170  0.00  0.00    +0.000 C 
ATOM     22  C   UNL     1       1.365   4.569  20.528  0.00  0.00    +0.000 C 
ATOM     23  O   UNL     1       1.529   5.987  20.377  0.00  0.00    +0.000 OA
BRANCH  20  24
ATOM     24  C   UNL     1       3.543   3.484  18.564  0.00  0.00    +0.000 C 
BRANCH  24  25
ATOM     25  C   UNL     1       4.738   3.869  17.724  0.00  0.00    +0.000 A 
ATOM     26  C   UNL     1       4.782   3.601  16.349  0.00  0.00    +0.000 A 
ATOM     27  C   UNL     1       5.891   3.986  15.589  0.00  0.00    +0.000 A 
ATOM     28  C   UNL     1       6.965   4.642  16.193  0.00  0.00    +0.000 A 
ATOM     29  C   UNL     1       6.937   4.902  17.561  0.00  0.00    +0.000 A 
ATOM     30  C   UNL     1       5.834   4.509  18.313  0.00  0.00    +0.000 A 
ATOM     31  F   UNL     1       5.838   4.754  19.630  0.00  0.00    +0.000 F 
ENDBRANCH  24  25
ENDBRANCH  20  24
ENDBRANCH  17  18
ENDBRANCH   3  17
TORSDOF 7
ENDMDL
MODEL 3
REMARK VINA RESULT:      -7.5      0.942      1.295
REMARK  Name = 
REMARK  8 active torsions:
REMARK  status: ('A' for Active; 'I' for Inactive)
REMARK    1  A    between atoms: C_1  and  O_2
REMARK    2  A    between atoms: O_2  and  C_3
REMARK    3  A    between atoms: C_5  and  N_6
REMARK    4  A    between atoms: C_10  and  C_11
REMARK    5  A    between atoms: N_13  and  C_14
REMARK    6  A    between atoms: C_14  and  C_15
REMARK    7  A    between atoms: N_17  and  C_18
REMARK    8  A    between atoms: C_18  and  C_19
REMARK                            x       y       z     vdW  Elec       q    Type
REMARK                         _______ _______ _______ _____ _____    ______ ____
ROOT
ATOM      1  C   UNL     1       1.982   9.061  18.297  0.00  0.00    +0.000 C 
ATOM      2  O   UNL     1       1.951   9.876  17.378  0.00  0.00    +0.000 OA
ATOM      3  N   UNL     1       2.726   7.906  18.224  0.00  0.00    +0.000 N 
ATOM      4  H   UNL     1       2.688   7.267  19.012  0.00  0.00    +0.000 HD
ENDROOT
BRANCH   1  11
ATOM      5  C   UNL     1       1.227   8.506  20.707  0.00  0.00    +0.000 A 
ATOM      6  C   UNL     1       0.479   8.883  21.838  0.00  0.00    +0.000 A 
ATOM      7  C   UNL     1      -0.359  10.003  21.826  0.00  0.00    +0.000 A 
ATOM      8  C   UNL     1      -0.368  10.807  20.678  0.00  0.00    +0.000 A 
ATOM      9 CL   UNL     1      -1.343  12.238  20.618  0.00  0.00    +0.000 Cl
ATOM     10  C   UNL     1       0.385  10.467  19.555  0.00  0.00    +0.000 A 
ATOM     11  C   UNL     1       1.198   9.317  19.555  0.00  0.00    +0.000 A 
BRANCH   7  12
ATOM     12  N   UNL     1      -0.975  10.404  23.025  0.00  0.00    +0.000 N 
ATOM     13  H   UNL     1      -0.352  10.545  23.812  0.00  0.00    +0.000 HD
ATOM     14  H   UNL     1      -1.793   9.843  23.261  0.00  0.00    +0.000 HD
ENDBRANCH   7  12
BRANCH   5  16
ATOM     15  C   UNL     1       1.381   6.137  20.858  0.00  0.00    +0.000 C 
ATOM     16  O   UNL     1       2.037   7.396  20.706  0.00  0.00    +0.000 OA
ENDBRANCH   5  16
ENDBRANCH   1  11
BRANCH   3  17
ATOM     17  C   UNL     1       3.503   7.534  17.051  0.00  0.00    +0.000 C 
BRANCH  17  18
ATOM     18  C   UNL     1       4.419   6.316  17.266  0.00  0.00    +0.000 C 
ATOM     19  C   UNL     1       4.513   5.936  18.761  0.00  0.00    +0.000 C 
ATOM     20  N   UNL     1       5.374   4.756  19.023  0.00  0.00    +0.000 NA
ATOM     21  C   UNL     1       6.697   5.032  18.411  0.00  0.00    +0.000 C 
ATOM     22  C   UNL     1       6.635   5.527  16.950  0.00  0.00    +0.000 C 
ATOM     23  O   UNL     1       5.745   6.642  16.790  0.00  0.00    +0.000 OA
BRANCH  20  24
ATOM     24  C   UNL     1       4.812   3.499  18.483  0.00  0.00    +0.000 C 
BRANCH  24  25
ATOM     25  C   UNL     1       3.436   3.155  19.002  0.00  0.00    +0.000 A 
ATOM     26  C   UNL     1       3.220   2.842  20.351  0.00  0.00    +0.000 A 
ATOM     27  C   UNL     1       1.934   2.546  20.811  0.00  0.00    +0.000 A 
ATOM     28  C   UNL     1       0.850   2.562  19.930  0.00  0.00    +0.000 A 
ATOM     29  C   UNL     1       1.055   2.860  18.585  0.00  0.00    +0.000 A 
ATOM     30  C   UNL     1       2.340   3.145  18.132  0.00  0.00    +0.000 A 
ATOM     31  F   UNL     1       2.514   3.410  16.831  0.00  0.00    +0.000 F 
ENDBRANCH  24  25
ENDBRANCH  20  24
ENDBRANCH  17  18
ENDBRANCH   3  17
TORSDOF 7
ENDMDL
MODEL 4
REMARK VINA RESULT:      -7.5      4.249      8.039
REMARK  Name = 
REMARK  8 active torsions:
REMARK  status: ('A' for Active; 'I' for Inactive)
REMARK    1  A    between atoms: C_1  and  O_2
REMARK    2  A    between atoms: O_2  and  C_3
REMARK    3  A    between atoms: C_5  and  N_6
REMARK    4  A    between atoms: C_10  and  C_11
REMARK    5  A    between atoms: N_13  and  C_14
REMARK    6  A    between atoms: C_14  and  C_15
REMARK    7  A    between atoms: N_17  and  C_18
REMARK    8  A    between atoms: C_18  and  C_19
REMARK                            x       y       z     vdW  Elec       q    Type
REMARK                         _______ _______ _______ _____ _____    ______ ____
ROOT
ATOM      1  C   UNL     1       1.975   6.253  20.167  0.00  0.00    +0.000 C 
ATOM      2  O   UNL     1       1.292   5.540  20.897  0.00  0.00    +0.000 OA
ATOM      3  N   UNL     1       2.057   7.615  20.345  0.00  0.00    +0.000 N 
ATOM      4  H   UNL     1       2.624   8.146  19.691  0.00  0.00    +0.000 HD
ENDROOT
BRANCH   1  11
ATOM      5  C   UNL     1       2.529   4.365  18.489  0.00  0.00    +0.000 A 
ATOM      6  C   UNL     1       3.312   3.927  17.404  0.00  0.00    +0.000 A 
ATOM      7  C   UNL     1       4.372   4.691  16.906  0.00  0.00    +0.000 A 
ATOM      8  C   UNL     1       4.585   5.962  17.457  0.00  0.00    +0.000 A 
ATOM      9 CL   UNL     1       5.847   6.981  16.849  0.00  0.00    +0.000 Cl
ATOM     10  C   UNL     1       3.805   6.428  18.515  0.00  0.00    +0.000 A 
ATOM     11  C   UNL     1       2.763   5.641  19.041  0.00  0.00    +0.000 A 
BRANCH   7  12
ATOM     12  N   UNL     1       5.031   4.263  15.739  0.00  0.00    +0.000 N 
ATOM     13  H   UNL     1       5.938   3.832  15.881  0.00  0.00    +0.000 HD
ATOM     14  H   UNL     1       5.038   4.968  15.003  0.00  0.00    +0.000 HD
ENDBRANCH   7  12
BRANCH   5  16
ATOM     15  C   UNL     1       1.393   2.275  18.500  0.00  0.00    +0.000 C 
ATOM     16  O   UNL     1       1.499   3.610  18.995  0.00  0.00    +0.000 OA
ENDBRANCH   5  16
ENDBRANCH   1  11
BRANCH   3  17
ATOM     17  C   UNL     1       1.322   8.327  21.380  0.00  0.00    +0.000 C 
BRANCH  17  18
ATOM     18  C   UNL     1       0.611   9.598  20.884  0.00  0.00    +0.000 C 
ATOM     19  C   UNL     1       0.617   9.682  19.340  0.00  0.00    +0.000 C 
ATOM     20  N   UNL     1      -0.071  10.885  18.806  0.00  0.00    +0.000 NA
ATOM     21  C   UNL     1       0.547  12.068  19.454  0.00  0.00    +0.000 C 
ATOM     22  C   UNL     1       0.664  11.968  20.990  0.00  0.00    +0.000 C 
ATOM     23  O   UNL     1       1.303  10.754  21.410  0.00  0.00    +0.000 OA
BRANCH  20  24
ATOM     24  C   UNL     1      -1.529  10.872  19.049  0.00  0.00    +0.000 C 
BRANCH  24  25
ATOM     25  C   UNL     1      -2.370  10.761  17.799  0.00  0.00    +0.000 A 
ATOM     26  C   UNL     1      -1.949  10.004  16.698  0.00  0.00    +0.000 A 
ATOM     27  C   UNL     1      -2.754   9.901  15.560  0.00  0.00    +0.000 A 
ATOM     28  C   UNL     1      -3.988  10.551  15.510  0.00  0.00    +0.000 A 
ATOM     29  C   UNL     1      -4.412  11.317  16.593  0.00  0.00    +0.000 A 
ATOM     30  C   UNL     1      -3.601  11.422  17.720  0.00  0.00    +0.000 A 
ATOM     31  F   UNL     1      -4.022  12.179  18.742  0.00  0.00    +0.000 F 
ENDBRANCH  24  25
ENDBRANCH  20  24
ENDBRANCH  17  18
ENDBRANCH   3  17
TORSDOF 7
ENDMDL
MODEL 5
REMARK VINA RESULT:      -7.4      2.479      4.233
REMARK  Name = 
REMARK  8 active torsions:
REMARK  status: ('A' for Active; 'I' for Inactive)
REMARK    1  A    between atoms: C_1  and  O_2
REMARK    2  A    between atoms: O_2  and  C_3
REMARK    3  A    between atoms: C_5  and  N_6
REMARK    4  A    between atoms: C_10  and  C_11
REMARK    5  A    between atoms: N_13  and  C_14
REMARK    6  A    between atoms: C_14  and  C_15
REMARK    7  A    between atoms: N_17  and  C_18
REMARK    8  A    between atoms: C_18  and  C_19
REMARK                            x       y       z     vdW  Elec       q    Type
REMARK                         _______ _______ _______ _____ _____    ______ ____
ROOT
ATOM      1  C   UNL     1       1.423   9.989  18.251  0.00  0.00    +0.000 C 
ATOM      2  O   UNL     1       2.256  10.598  17.585  0.00  0.00    +0.000 OA
ATOM      3  N   UNL     1       1.610   8.682  18.636  0.00  0.00    +0.000 N 
ATOM      4  H   UNL     1       0.871   8.233  19.169  0.00  0.00    +0.000 HD
ENDROOT
BRANCH   1  11
ATOM      5  C   UNL     1       0.062  11.632  19.713  0.00  0.00    +0.000 A 
ATOM      6  C   UNL     1      -1.180  12.235  19.987  0.00  0.00    +0.000 A 
ATOM      7  C   UNL     1      -2.346  11.856  19.314  0.00  0.00    +0.000 A 
ATOM      8  C   UNL     1      -2.235  10.914  18.282  0.00  0.00    +0.000 A 
ATOM      9 CL   UNL     1      -3.632  10.441  17.373  0.00  0.00    +0.000 Cl
ATOM     10  C   UNL     1      -1.010  10.322  17.977  0.00  0.00    +0.000 A 
ATOM     11  C   UNL     1       0.156  10.677  18.681  0.00  0.00    +0.000 A 
BRANCH   7  12
ATOM     12  N   UNL     1      -3.527  12.587  19.535  0.00  0.00    +0.000 N 
ATOM     13  H   UNL     1      -3.837  13.164  18.761  0.00  0.00    +0.000 HD
ATOM     14  H   UNL     1      -3.530  13.082  20.425  0.00  0.00    +0.000 HD
ENDBRANCH   7  12
BRANCH   5  16
ATOM     15  C   UNL     1       1.637  13.339  20.228  0.00  0.00    +0.000 C 
ATOM     16  O   UNL     1       1.207  11.986  20.385  0.00  0.00    +0.000 OA
ENDBRANCH   5  16
ENDBRANCH   1  11
BRANCH   3  17
ATOM     17  C   UNL     1       2.780   7.902  18.261  0.00  0.00    +0.000 C 
BRANCH  17  18
ATOM     18  C   UNL     1       2.874   6.534  18.960  0.00  0.00    +0.000 C 
ATOM     19  C   UNL     1       2.556   5.379  17.983  0.00  0.00    +0.000 C 
ATOM     20  N   UNL     1       2.646   4.032  18.603  0.00  0.00    +0.000 NA
ATOM     21  C   UNL     1       1.768   4.040  19.799  0.00  0.00    +0.000 C 
ATOM     22  C   UNL     1       1.979   5.245  20.740  0.00  0.00    +0.000 C 
ATOM     23  O   UNL     1       1.916   6.498  20.042  0.00  0.00    +0.000 OA
BRANCH  20  24
ATOM     24  C   UNL     1       4.027   3.663  18.984  0.00  0.00    +0.000 C 
BRANCH  24  25
ATOM     25  C   UNL     1       5.072   3.992  17.944  0.00  0.00    +0.000 A 
ATOM     26  C   UNL     1       4.936   3.574  16.613  0.00  0.00    +0.000 A 
ATOM     27  C   UNL     1       5.907   3.908  15.664  0.00  0.00    +0.000 A 
ATOM     28  C   UNL     1       7.021   4.664  16.034  0.00  0.00    +0.000 A 
ATOM     29  C   UNL     1       7.173   5.075  17.356  0.00  0.00    +0.000 A 
ATOM     30  C   UNL     1       6.206   4.731  18.297  0.00  0.00    +0.000 A 
ATOM     31  F   UNL     1       6.382   5.123  19.566  0.00  0.00    +0.000 F 
ENDBRANCH  24  25
ENDBRANCH  20  24
ENDBRANCH  17  18
ENDBRANCH   3  17
TORSDOF 7
ENDMDL
MODEL 6
REMARK VINA RESULT:      -7.3      1.976      4.324
REMARK  Name = 
REMARK  8 active torsions:
REMARK  status: ('A' for Active; 'I' for Inactive)
REMARK    1  A    between atoms: C_1  and  O_2
REMARK    2  A    between atoms: O_2  and  C_3
REMARK    3  A    between atoms: C_5  and  N_6
REMARK    4  A    between atoms: C_10  and  C_11
REMARK    5  A    between atoms: N_13  and  C_14
REMARK    6  A    between atoms: C_14  and  C_15
REMARK    7  A    between atoms: N_17  and  C_18
REMARK    8  A    between atoms: C_18  and  C_19
REMARK                            x       y       z     vdW  Elec       q    Type
REMARK                         _______ _______ _______ _____ _____    ______ ____
ROOT
ATOM      1  C   UNL     1       1.086   7.824  20.694  0.00  0.00    +0.000 C 
ATOM      2  O   UNL     1       0.168   7.707  21.501  0.00  0.00    +0.000 OA
ATOM      3  N   UNL     1       1.973   6.802  20.444  0.00  0.00    +0.000 N 
ATOM      4  H   UNL     1       2.721   6.975  19.779  0.00  0.00    +0.000 HD
ENDROOT
BRANCH   1  11
ATOM      5  C   UNL     1       1.713   9.212  18.605  0.00  0.00    +0.000 A 
ATOM      6  C   UNL     1       1.790  10.478  17.994  0.00  0.00    +0.000 A 
ATOM      7  C   UNL     1       1.503  11.653  18.697  0.00  0.00    +0.000 A 
ATOM      8  C   UNL     1       1.042  11.536  20.016  0.00  0.00    +0.000 A 
ATOM      9 CL   UNL     1       0.619  12.949  20.925  0.00  0.00    +0.000 Cl
ATOM     10  C   UNL     1       0.935  10.290  20.633  0.00  0.00    +0.000 A 
ATOM     11  C   UNL     1       1.261   9.111  19.936  0.00  0.00    +0.000 A 
BRANCH   7  12
ATOM     12  N   UNL     1       1.467  12.873  17.999  0.00  0.00    +0.000 N 
ATOM     13  H   UNL     1       2.136  12.964  17.242  0.00  0.00    +0.000 HD
ATOM     14  H   UNL     1       1.451  13.685  18.614  0.00  0.00    +0.000 HD
ENDBRANCH   7  12
BRANCH   5  16
ATOM     15  C   UNL     1       3.374   7.894  17.526  0.00  0.00    +0.000 C 
ATOM     16  O   UNL     1       2.013   8.057  17.925  0.00  0.00    +0.000 OA
ENDBRANCH   5  16
ENDBRANCH   1  11
BRANCH   3  17
ATOM     17  C   UNL     1       1.924   5.521  21.132  0.00  0.00    +0.000 C 
BRANCH  17  18
ATOM     18  C   UNL     1       2.275   4.316  20.242  0.00  0.00    +0.000 C 
ATOM     19  C   UNL     1       2.202   4.682  18.742  0.00  0.00    +0.000 C 
ATOM     20  N   UNL     1       2.546   3.556  17.837  0.00  0.00    +0.000 NA
ATOM     21  C   UNL     1       1.669   2.416  18.199  0.00  0.00    +0.000 C 
ATOM     22  C   UNL     1       1.628   2.096  19.709  0.00  0.00    +0.000 C 
ATOM     23  O   UNL     1       1.330   3.254  20.503  0.00  0.00    +0.000 OA
BRANCH  20  24
ATOM     24  C   UNL     1       3.967   3.158  17.925  0.00  0.00    +0.000 C 
BRANCH  24  25
ATOM     25  C   UNL     1       4.942   4.203  17.433  0.00  0.00    +0.000 A 
ATOM     26  C   UNL     1       5.064   4.504  16.070  0.00  0.00    +0.000 A 
ATOM     27  C   UNL     1       5.959   5.489  15.641  0.00  0.00    +0.000 A 
ATOM     28  C   UNL     1       6.739   6.183  16.568  0.00  0.00    +0.000 A 
ATOM     29  C   UNL     1       6.634   5.884  17.924  0.00  0.00    +0.000 A 
ATOM     30  C   UNL     1       5.747   4.895  18.343  0.00  0.00    +0.000 A 
ATOM     31  F   UNL     1       5.678   4.613  19.651  0.00  0.00    +0.000 F 
ENDBRANCH  24  25
ENDBRANCH  20  24
ENDBRANCH  17  18
ENDBRANCH   3  17
TORSDOF 7
ENDMDL
MODEL 7
REMARK VINA RESULT:      -7.3      4.116      8.840
REMARK  Name = 
REMARK  8 active torsions:
REMARK  status: ('A' for Active; 'I' for Inactive)
REMARK    1  A    between atoms: C_1  and  O_2
REMARK    2  A    between atoms: O_2  and  C_3
REMARK    3  A    between atoms: C_5  and  N_6
REMARK    4  A    between atoms: C_10  and  C_11
REMARK    5  A    between atoms: N_13  and  C_14
REMARK    6  A    between atoms: C_14  and  C_15
REMARK    7  A    between atoms: N_17  and  C_18
REMARK    8  A    between atoms: C_18  and  C_19
REMARK                            x       y       z     vdW  Elec       q    Type
REMARK                         _______ _______ _______ _____ _____    ______ ____
ROOT
ATOM      1  C   UNL     1       2.565   5.601  20.219  0.00  0.00    +0.000 C 
ATOM      2  O   UNL     1       2.215   4.913  21.173  0.00  0.00    +0.000 OA
ATOM      3  N   UNL     1       2.233   6.933  20.117  0.00  0.00    +0.000 N 
ATOM      4  H   UNL     1       2.538   7.437  19.290  0.00  0.00    +0.000 HD
ENDROOT
BRANCH   1  11
ATOM      5  C   UNL     1       2.887   4.206  18.066  0.00  0.00    +0.000 A 
ATOM      6  C   UNL     1       3.765   3.735  17.071  0.00  0.00    +0.000 A 
ATOM      7  C   UNL     1       5.143   3.964  17.138  0.00  0.00    +0.000 A 
ATOM      8  C   UNL     1       5.629   4.762  18.183  0.00  0.00    +0.000 A 
ATOM      9 CL   UNL     1       7.319   5.128  18.293  0.00  0.00    +0.000 Cl
ATOM     10  C   UNL     1       4.774   5.259  19.166  0.00  0.00    +0.000 A 
ATOM     11  C   UNL     1       3.392   4.996  19.118  0.00  0.00    +0.000 A 
BRANCH   7  12
ATOM     12  N   UNL     1       5.950   3.586  16.049  0.00  0.00    +0.000 N 
ATOM     13  H   UNL     1       5.528   3.697  15.133  0.00  0.00    +0.000 HD
ATOM     14  H   UNL     1       6.391   2.677  16.176  0.00  0.00    +0.000 HD
ENDBRANCH   7  12
BRANCH   5  16
ATOM     15  C   UNL     1       1.092   2.727  18.567  0.00  0.00    +0.000 C 
ATOM     16  O   UNL     1       1.535   3.967  18.016  0.00  0.00    +0.000 OA
ENDBRANCH   5  16
ENDBRANCH   1  11
BRANCH   3  17
ATOM     17  C   UNL     1       1.415   7.625  21.103  0.00  0.00    +0.000 C 
BRANCH  17  18
ATOM     18  C   UNL     1       1.090   9.084  20.736  0.00  0.00    +0.000 C 
ATOM     19  C   UNL     1      -0.400   9.411  20.985  0.00  0.00    +0.000 C 
ATOM     20  N   UNL     1      -0.765  10.813  20.661  0.00  0.00    +0.000 NA
ATOM     21  C   UNL     1      -0.343  11.064  19.260  0.00  0.00    +0.000 C 
ATOM     22  C   UNL     1       1.108  10.641  18.945  0.00  0.00    +0.000 C 
ATOM     23  O   UNL     1       1.376   9.285  19.333  0.00  0.00    +0.000 OA
BRANCH  20  24
ATOM     24  C   UNL     1      -0.140  11.798  21.569  0.00  0.00    +0.000 C 
BRANCH  24  25
ATOM     25  C   UNL     1      -1.113  12.535  22.458  0.00  0.00    +0.000 A 
ATOM     26  C   UNL     1      -2.332  11.961  22.842  0.00  0.00    +0.000 A 
ATOM     27  C   UNL     1      -3.208  12.656  23.682  0.00  0.00    +0.000 A 
ATOM     28  C   UNL     1      -2.874  13.928  24.149  0.00  0.00    +0.000 A 
ATOM     29  C   UNL     1      -1.670  14.514  23.764  0.00  0.00    +0.000 A 
ATOM     30  C   UNL     1      -0.807  13.820  22.920  0.00  0.00    +0.000 A 
ATOM     31  F   UNL     1       0.337  14.411  22.550  0.00  0.00    +0.000 F 
ENDBRANCH  24  25
ENDBRANCH  20  24
ENDBRANCH  17  18
ENDBRANCH   3  17
TORSDOF 7
ENDMDL
MODEL 8
REMARK VINA RESULT:      -7.3      2.138      4.486
REMARK  Name = 
REMARK  8 active torsions:
REMARK  status: ('A' for Active; 'I' for Inactive)
REMARK    1  A    between atoms: C_1  and  O_2
REMARK    2  A    between atoms: O_2  and  C_3
REMARK    3  A    between atoms: C_5  and  N_6
REMARK    4  A    between atoms: C_10  and  C_11
REMARK    5  A    between atoms: N_13  and  C_14
REMARK    6  A    between atoms: C_14  and  C_15
REMARK    7  A    between atoms: N_17  and  C_18
REMARK    8  A    between atoms: C_18  and  C_19
REMARK                            x       y       z     vdW  Elec       q    Type
REMARK                         _______ _______ _______ _____ _____    ______ ____
ROOT
ATOM      1  C   UNL     1       1.034   7.866  20.700  0.00  0.00    +0.000 C 
ATOM      2  O   UNL     1       0.127   7.762  21.520  0.00  0.00    +0.000 OA
ATOM      3  N   UNL     1       1.890   6.826  20.422  0.00  0.00    +0.000 N 
ATOM      4  H   UNL     1       2.632   6.989  19.747  0.00  0.00    +0.000 HD
ENDROOT
BRANCH   1  11
ATOM      5  C   UNL     1       1.692   9.267  18.628  0.00  0.00    +0.000 A 
ATOM      6  C   UNL     1       1.787  10.538  18.031  0.00  0.00    +0.000 A 
ATOM      7  C   UNL     1       1.509  11.709  18.744  0.00  0.00    +0.000 A 
ATOM      8  C   UNL     1       1.039  11.585  20.058  0.00  0.00    +0.000 A 
ATOM      9 CL   UNL     1       0.626  12.993  20.978  0.00  0.00    +0.000 Cl
ATOM     10  C   UNL     1       0.912  10.334  20.662  0.00  0.00    +0.000 A 
ATOM     11  C   UNL     1       1.229   9.159  19.955  0.00  0.00    +0.000 A 
BRANCH   7  12
ATOM     12  N   UNL     1       1.493  12.936  18.057  0.00  0.00    +0.000 N 
ATOM     13  H   UNL     1       1.111  12.907  17.117  0.00  0.00    +0.000 HD
ATOM     14  H   UNL     1       2.379  13.436  18.110  0.00  0.00    +0.000 HD
ENDBRANCH   7  12
BRANCH   5  16
ATOM     15  C   UNL     1       3.341   7.947  17.535  0.00  0.00    +0.000 C 
ATOM     16  O   UNL     1       1.982   8.115  17.939  0.00  0.00    +0.000 OA
ENDBRANCH   5  16
ENDBRANCH   1  11
BRANCH   3  17
ATOM     17  C   UNL     1       1.820   5.537  21.094  0.00  0.00    +0.000 C 
BRANCH  17  18
ATOM     18  C   UNL     1       2.288   4.352  20.231  0.00  0.00    +0.000 C 
ATOM     19  C   UNL     1       2.386   4.744  18.739  0.00  0.00    +0.000 C 
ATOM     20  N   UNL     1       2.848   3.639  17.861  0.00  0.00    +0.000 NA
ATOM     21  C   UNL     1       1.949   2.483  18.100  0.00  0.00    +0.000 C 
ATOM     22  C   UNL     1       1.737   2.135  19.589  0.00  0.00    +0.000 C 
ATOM     23  O   UNL     1       1.333   3.275  20.362  0.00  0.00    +0.000 OA
BRANCH  20  24
ATOM     24  C   UNL     1       4.254   3.255  18.109  0.00  0.00    +0.000 C 
BRANCH  24  25
ATOM     25  C   UNL     1       5.263   4.332  17.788  0.00  0.00    +0.000 A 
ATOM     26  C   UNL     1       6.004   4.964  18.795  0.00  0.00    +0.000 A 
ATOM     27  C   UNL     1       6.946   5.944  18.471  0.00  0.00    +0.000 A 
ATOM     28  C   UNL     1       7.160   6.302  17.138  0.00  0.00    +0.000 A 
ATOM     29  C   UNL     1       6.420   5.689  16.129  0.00  0.00    +0.000 A 
ATOM     30  C   UNL     1       5.477   4.720  16.461  0.00  0.00    +0.000 A 
ATOM     31  F   UNL     1       4.766   4.157  15.475  0.00  0.00    +0.000 F 
ENDBRANCH  24  25
ENDBRANCH  20  24
ENDBRANCH  17  18
ENDBRANCH   3  17
TORSDOF 7
ENDMDL
MODEL 9
REMARK VINA RESULT:      -7.3      3.823      8.497
REMARK  Name = 
REMARK  8 active torsions:
REMARK  status: ('A' for Active; 'I' for Inactive)
REMARK    1  A    between atoms: C_1  and  O_2
REMARK    2  A    between atoms: O_2  and  C_3
REMARK    3  A    between atoms: C_5  and  N_6
REMARK    4  A    between atoms: C_10  and  C_11
REMARK    5  A    between atoms: N_13  and  C_14
REMARK    6  A    between atoms: C_14  and  C_15
REMARK    7  A    between atoms: N_17  and  C_18
REMARK    8  A    between atoms: C_18  and  C_19
REMARK                            x       y       z     vdW  Elec       q    Type
REMARK                         _______ _______ _______ _____ _____    ______ ____
ROOT
ATOM      1  C   UNL     1       2.212   5.821  20.116  0.00  0.00    +0.000 C 
ATOM      2  O   UNL     1       1.528   5.153  20.886  0.00  0.00    +0.000 OA
ATOM      3  N   UNL     1       2.199   7.197  20.135  0.00  0.00    +0.000 N 
ATOM      4  H   UNL     1       2.774   7.686  19.455  0.00  0.00    +0.000 HD
ENDROOT
BRANCH   1  11
ATOM      5  C   UNL     1       2.681   4.203  18.154  0.00  0.00    +0.000 A 
ATOM      6  C   UNL     1       3.616   3.669  17.248  0.00  0.00    +0.000 A 
ATOM      7  C   UNL     1       4.977   3.981  17.326  0.00  0.00    +0.000 A 
ATOM      8  C   UNL     1       5.385   4.920  18.283  0.00  0.00    +0.000 A 
ATOM      9 CL   UNL     1       7.048   5.390  18.397  0.00  0.00    +0.000 Cl
ATOM     10  C   UNL     1       4.471   5.481  19.175  0.00  0.00    +0.000 A 
ATOM     11  C   UNL     1       3.107   5.138  19.119  0.00  0.00    +0.000 A 
BRANCH   7  12
ATOM     12  N   UNL     1       5.840   3.523  16.313  0.00  0.00    +0.000 N 
ATOM     13  H   UNL     1       5.615   2.613  15.925  0.00  0.00    +0.000 HD
ATOM     14  H   UNL     1       6.825   3.620  16.554  0.00  0.00    +0.000 HD
ENDBRANCH   7  12
BRANCH   5  16
ATOM     15  C   UNL     1       0.976   2.608  18.613  0.00  0.00    +0.000 C 
ATOM     16  O   UNL     1       1.345   3.886  18.094  0.00  0.00    +0.000 OA
ENDBRANCH   5  16
ENDBRANCH   1  11
BRANCH   3  17
ATOM     17  C   UNL     1       1.356   7.972  21.033  0.00  0.00    +0.000 C 
BRANCH  17  18
ATOM     18  C   UNL     1       0.971   9.360  20.491  0.00  0.00    +0.000 C 
ATOM     19  C   UNL     1      -0.556   9.482  20.286  0.00  0.00    +0.000 C 
ATOM     20  N   UNL     1      -0.984  10.810  19.777  0.00  0.00    +0.000 NA
ATOM     21  C   UNL     1      -0.209  11.078  18.540  0.00  0.00    +0.000 C 
ATOM     22  C   UNL     1       1.312  10.853  18.678  0.00  0.00    +0.000 C 
ATOM     23  O   UNL     1       1.624   9.560  19.217  0.00  0.00    +0.000 OA
BRANCH  20  24
ATOM     24  C   UNL     1      -0.778  11.898  20.757  0.00  0.00    +0.000 C 
BRANCH  24  25
ATOM     25  C   UNL     1      -2.001  12.246  21.572  0.00  0.00    +0.000 A 
ATOM     26  C   UNL     1      -3.086  12.931  21.007  0.00  0.00    +0.000 A 
ATOM     27  C   UNL     1      -4.215  13.224  21.777  0.00  0.00    +0.000 A 
ATOM     28  C   UNL     1      -4.274  12.836  23.117  0.00  0.00    +0.000 A 
ATOM     29  C   UNL     1      -3.197  12.167  23.692  0.00  0.00    +0.000 A 
ATOM     30  C   UNL     1      -2.072  11.885  22.922  0.00  0.00    +0.000 A 
ATOM     31  F   UNL     1      -1.042  11.256  23.502  0.00  0.00    +0.000 F 
ENDBRANCH  24  25
ENDBRANCH  20  24
ENDBRANCH  17  18
ENDBRANCH   3  17
TORSDOF 7
ENDMDL
