MODEL 1
REMARK VINA RESULT:      -7.5      0.000      0.000
REMARK  Name = 
REMARK  9 active torsions:
REMARK  status: ('A' for Active; 'I' for Inactive)
REMARK    1  A    between atoms: C_1  and  N_2
REMARK    2  A    between atoms: C_6  and  C_7
REMARK    3  A    between atoms: C_7  and  N_8
REMARK    4  A    between atoms: N_8  and  C_9
REMARK    5  A    between atoms: C_9  and  C_10
REMARK    6  A    between atoms: N_12  and  C_13
REMARK    7  A    between atoms: C_13  and  C_14
REMARK    8  A    between atoms: C_14  and  C_15
REMARK    9  A    between atoms: C_15  and  C_16
REMARK                            x       y       z     vdW  Elec       q    Type
REMARK                         _______ _______ _______ _____ _____    ______ ____
ROOT
ATOM      1  C   UNL     1       7.212   6.138  17.237  0.00  0.00    +0.000 C 
ATOM      2  O   UNL     1       6.510   6.358  16.254  0.00  0.00    +0.000 OA
ATOM      3  N   UNL     1       7.875   7.112  17.956  0.00  0.00    +0.000 N 
ATOM      4  H   UNL     1       8.225   6.824  18.862  0.00  0.00    +0.000 HD
ENDROOT
BRANCH   1   5
ATOM      5  C   UNL     1       7.426   4.730  17.800  0.00  0.00    +0.000 C 
BRANCH   5   6
ATOM      6  N   UNL     1       6.507   4.456  18.925  0.00  0.00    +0.000 NA
ATOM      7  H   UNL     1       6.192   3.486  18.825  0.00  0.00    +0.000 HD
BRANCH   6   8
ATOM      8  C   UNL     1       5.279   5.287  18.879  0.00  0.00    +0.000 C 
BRANCH   8  14
ATOM      9  C   UNL     1       2.106   2.493  20.389  0.00  0.00    +0.000 C 
ATOM     10  N   UNL     1       3.003   2.172  19.276  0.00  0.00    +0.000 NA
ATOM     11  C   UNL     1       2.338   2.353  17.969  0.00  0.00    +0.000 C 
ATOM     12  C   UNL     1       2.129   3.825  17.567  0.00  0.00    +0.000 C 
ATOM     13  O   UNL     1       3.356   4.564  17.603  0.00  0.00    +0.000 OA
ATOM     14  C   UNL     1       3.966   4.479  18.908  0.00  0.00    +0.000 C 
ATOM     15  C   UNL     1       4.225   3.006  19.299  0.00  0.00    +0.000 C 
ENDBRANCH   8  14
ENDBRANCH   6   8
ENDBRANCH   5   6
ENDBRANCH   1   5
BRANCH   3  16
ATOM     16  C   UNL     1       7.716   8.520  17.671  0.00  0.00    +0.000 C 
BRANCH  16  17
ATOM     17  C   UNL     1       8.625   9.387  18.538  0.00  0.00    +0.000 C 
BRANCH  17  18
ATOM     18  C   UNL     1       8.806  10.767  17.905  0.00  0.00    +0.000 C 
BRANCH  18  19
ATOM     19  C   UNL     1      10.048  11.475  18.386  0.00  0.00    +0.000 A 
ATOM     20  C   UNL     1      10.821  12.243  17.506  0.00  0.00    +0.000 A 
ATOM     21  C   UNL     1      11.953  12.919  17.962  0.00  0.00    +0.000 A 
ATOM     22  C   UNL     1      12.324  12.835  19.304  0.00  0.00    +0.000 A 
ATOM     23  C   UNL     1      11.568  12.064  20.187  0.00  0.00    +0.000 A 
ATOM     24  C   UNL     1      10.439  11.385  19.730  0.00  0.00    +0.000 A 
ENDBRANCH  18  19
ENDBRANCH  17  18
ENDBRANCH  16  17
ENDBRANCH   3  16
TORSDOF 8
ENDMDL
MODEL 2
REMARK VINA RESULT:      -7.4      1.474      1.854
REMARK  Name = 
REMARK  9 active torsions:
REMARK  status: ('A' for Active; 'I' for Inactive)
REMARK    1  A    between atoms: C_1  and  N_2
REMARK    2  A    between atoms: C_6  and  C_7
REMARK    3  A    between atoms: C_7  and  N_8
REMARK    4  A    between atoms: N_8  and  C_9
REMARK    5  A    between atoms: C_9  and  C_10
REMARK    6  A    between atoms: N_12  and  C_13
REMARK    7  A    between atoms: C_13  and  C_14
REMARK    8  A    between atoms: C_14  and  C_15
REMARK    9  A    between atoms: C_15  and  C_16
REMARK                            x       y       z     vdW  Elec       q    Type
REMARK                         _______ _______ _______ _____ _____    ______ ____
ROOT
ATOM      1  C   UNL     1       6.943   6.295  17.256  0.00  0.00    +0.000 C 
ATOM      2  O   UNL     1       7.450   5.427  17.962  0.00  0.00    +0.000 OA
ATOM      3  N   UNL     1       7.276   7.634  17.307  0.00  0.00    +0.000 N 
ATOM      4  H   UNL     1       6.954   8.193  16.525  0.00  0.00    +0.000 HD
ENDROOT
BRANCH   1   5
ATOM      5  C   UNL     1       5.873   5.983  16.207  0.00  0.00    +0.000 C 
BRANCH   5   6
ATOM      6  N   UNL     1       4.876   5.022  16.725  0.00  0.00    +0.000 NA
ATOM      7  H   UNL     1       4.389   4.628  15.914  0.00  0.00    +0.000 HD
BRANCH   6   8
ATOM      8  C   UNL     1       3.829   5.669  17.551  0.00  0.00    +0.000 C 
BRANCH   8  14
ATOM      9  C   UNL     1       1.721   2.047  19.160  0.00  0.00    +0.000 C 
ATOM     10  N   UNL     1       1.079   3.355  19.011  0.00  0.00    +0.000 NA
ATOM     11  C   UNL     1       1.002   4.075  20.299  0.00  0.00    +0.000 C 
ATOM     12  C   UNL     1       2.350   4.630  20.794  0.00  0.00    +0.000 C 
ATOM     13  O   UNL     1       2.980   5.455  19.805  0.00  0.00    +0.000 OA
ATOM     14  C   UNL     1       3.155   4.729  18.571  0.00  0.00    +0.000 C 
ATOM     15  C   UNL     1       1.799   4.211  18.041  0.00  0.00    +0.000 C 
ENDBRANCH   8  14
ENDBRANCH   6   8
ENDBRANCH   5   6
ENDBRANCH   1   5
BRANCH   3  16
ATOM     16  C   UNL     1       8.347   8.129  18.141  0.00  0.00    +0.000 C 
BRANCH  16  17
ATOM     17  C   UNL     1       8.457   9.650  18.089  0.00  0.00    +0.000 C 
BRANCH  17  18
ATOM     18  C   UNL     1       9.173  10.174  19.334  0.00  0.00    +0.000 C 
BRANCH  18  19
ATOM     19  C   UNL     1      10.288  11.137  19.008  0.00  0.00    +0.000 A 
ATOM     20  C   UNL     1      10.412  11.681  17.723  0.00  0.00    +0.000 A 
ATOM     21  C   UNL     1      11.428  12.592  17.434  0.00  0.00    +0.000 A 
ATOM     22  C   UNL     1      12.331  12.971  18.427  0.00  0.00    +0.000 A 
ATOM     23  C   UNL     1      12.224  12.426  19.707  0.00  0.00    +0.000 A 
ATOM     24  C   UNL     1      11.211  11.512  19.994  0.00  0.00    +0.000 A 
ENDBRANCH  18  19
ENDBRANCH  17  18
ENDBRANCH  16  17
ENDBRANCH   3  16
TORSDOF 8
ENDMDL
MODEL 3
REMARK VINA RESULT:      -7.1      1.409      1.974
REMARK  Name = 
REMARK  9 active torsions:
REMARK  status: ('A' for Active; 'I' for Inactive)
REMARK    1  A    between atoms: C_1  and  N_2
REMARK    2  A    between atoms: C_6  and  C_7
REMARK    3  A    between atoms: C_7  and  N_8
REMARK    4  A    between atoms: N_8  and  C_9
REMARK    5  A    between atoms: C_9  and  C_10
REMARK    6  A    between atoms: N_12  and  C_13
REMARK    7  A    between atoms: C_13  and  C_14
REMARK    8  A    between atoms: C_14  and  C_15
REMARK    9  A    between atoms: C_15  and  C_16
REMARK                            x       y       z     vdW  Elec       q    Type
REMARK                         _______ _______ _______ _____ _____    ______ ____
ROOT
ATOM      1  C   UNL     1       6.482   6.523  17.217  0.00  0.00    +0.000 C 
ATOM      2  O   UNL     1       7.000   5.577  17.801  0.00  0.00    +0.000 OA
ATOM      3  N   UNL     1       6.934   7.826  17.286  0.00  0.00    +0.000 N 
ATOM      4  H   UNL     1       6.560   8.456  16.586  0.00  0.00    +0.000 HD
ENDROOT
BRANCH   1   5
ATOM      5  C   UNL     1       5.256   6.364  16.313  0.00  0.00    +0.000 C 
BRANCH   5   6
ATOM      6  N   UNL     1       4.293   5.396  16.879  0.00  0.00    +0.000 NA
ATOM      7  H   UNL     1       3.569   5.243  16.169  0.00  0.00    +0.000 HD
BRANCH   6   8
ATOM      8  C   UNL     1       3.587   5.919  18.072  0.00  0.00    +0.000 C 
BRANCH   8  14
ATOM      9  C   UNL     1       4.234   2.269  20.604  0.00  0.00    +0.000 C 
ATOM     10  N   UNL     1       3.155   2.390  19.621  0.00  0.00    +0.000 NA
ATOM     11  C   UNL     1       1.864   2.708  20.264  0.00  0.00    +0.000 C 
ATOM     12  C   UNL     1       1.755   4.156  20.777  0.00  0.00    +0.000 C 
ATOM     13  O   UNL     1       2.039   5.108  19.744  0.00  0.00    +0.000 OA
ATOM     14  C   UNL     1       3.344   4.870  19.177  0.00  0.00    +0.000 C 
ATOM     15  C   UNL     1       3.446   3.435  18.614  0.00  0.00    +0.000 C 
ENDBRANCH   8  14
ENDBRANCH   6   8
ENDBRANCH   5   6
ENDBRANCH   1   5
BRANCH   3  16
ATOM     16  C   UNL     1       8.147   8.182  17.987  0.00  0.00    +0.000 C 
BRANCH  16  17
ATOM     17  C   UNL     1       8.310   9.694  18.120  0.00  0.00    +0.000 C 
BRANCH  17  18
ATOM     18  C   UNL     1       9.164  10.031  19.342  0.00  0.00    +0.000 C 
BRANCH  18  19
ATOM     19  C   UNL     1      10.223  11.065  19.050  0.00  0.00    +0.000 A 
ATOM     20  C   UNL     1      11.041  11.562  20.073  0.00  0.00    +0.000 A 
ATOM     21  C   UNL     1      12.038  12.497  19.793  0.00  0.00    +0.000 A 
ATOM     22  C   UNL     1      12.228  12.946  18.487  0.00  0.00    +0.000 A 
ATOM     23  C   UNL     1      11.412  12.466  17.462  0.00  0.00    +0.000 A 
ATOM     24  C   UNL     1      10.413  11.535  17.743  0.00  0.00    +0.000 A 
ENDBRANCH  18  19
ENDBRANCH  17  18
ENDBRANCH  16  17
ENDBRANCH   3  16
TORSDOF 8
ENDMDL
MODEL 4
REMARK VINA RESULT:      -7.1      1.441      1.678
REMARK  Name = 
REMARK  9 active torsions:
REMARK  status: ('A' for Active; 'I' for Inactive)
REMARK    1  A    between atoms: C_1  and  N_2
REMARK    2  A    between atoms: C_6  and  C_7
REMARK    3  A    between atoms: C_7  and  N_8
REMARK    4  A    between atoms: N_8  and  C_9
REMARK    5  A    between atoms: C_9  and  C_10
REMARK    6  A    between atoms: N_12  and  C_13
REMARK    7  A    between atoms: C_13  and  C_14
REMARK    8  A    between atoms: C_14  and  C_15
REMARK    9  A    between atoms: C_15  and  C_16
REMARK                            x       y       z     vdW  Elec       q    Type
REMARK                         _______ _______ _______ _____ _____    ______ ____
ROOT
ATOM      1  C   UNL     1       6.528   6.543  16.626  0.00  0.00    +0.000 C 
ATOM      2  O   UNL     1       7.378   5.851  16.074  0.00  0.00    +0.000 OA
ATOM      3  N   UNL     1       6.807   7.633  17.426  0.00  0.00    +0.000 N 
ATOM      4  H   UNL     1       6.021   8.240  17.627  0.00  0.00    +0.000 HD
ENDROOT
BRANCH   1   5
ATOM      5  C   UNL     1       5.027   6.280  16.477  0.00  0.00    +0.000 C 
BRANCH   5   6
ATOM      6  N   UNL     1       4.310   6.524  17.747  0.00  0.00    +0.000 NA
ATOM      7  H   UNL     1       4.862   6.086  18.492  0.00  0.00    +0.000 HD
BRANCH   6   8
ATOM      8  C   UNL     1       2.981   5.869  17.791  0.00  0.00    +0.000 C 
BRANCH   8  14
ATOM      9  C   UNL     1       4.287   2.217  20.051  0.00  0.00    +0.000 C 
ATOM     10  N   UNL     1       3.347   2.179  18.927  0.00  0.00    +0.000 NA
ATOM     11  C   UNL     1       1.948   2.067  19.389  0.00  0.00    +0.000 C 
ATOM     12  C   UNL     1       1.382   3.357  20.009  0.00  0.00    +0.000 C 
ATOM     13  O   UNL     1       1.521   4.476  19.123  0.00  0.00    +0.000 OA
ATOM     14  C   UNL     1       2.900   4.660  18.745  0.00  0.00    +0.000 C 
ATOM     15  C   UNL     1       3.462   3.385  18.076  0.00  0.00    +0.000 C 
ENDBRANCH   8  14
ENDBRANCH   6   8
ENDBRANCH   5   6
ENDBRANCH   1   5
BRANCH   3  16
ATOM     16  C   UNL     1       8.152   8.130  17.606  0.00  0.00    +0.000 C 
BRANCH  16  17
ATOM     17  C   UNL     1       8.171   9.599  18.019  0.00  0.00    +0.000 C 
BRANCH  17  18
ATOM     18  C   UNL     1       9.090   9.801  19.223  0.00  0.00    +0.000 C 
BRANCH  18  19
ATOM     19  C   UNL     1      10.027  10.972  19.056  0.00  0.00    +0.000 A 
ATOM     20  C   UNL     1      10.445  11.379  17.782  0.00  0.00    +0.000 A 
ATOM     21  C   UNL     1      11.288  12.480  17.630  0.00  0.00    +0.000 A 
ATOM     22  C   UNL     1      11.724  13.186  18.751  0.00  0.00    +0.000 A 
ATOM     23  C   UNL     1      11.324  12.782  20.025  0.00  0.00    +0.000 A 
ATOM     24  C   UNL     1      10.484  11.679  20.176  0.00  0.00    +0.000 A 
ENDBRANCH  18  19
ENDBRANCH  17  18
ENDBRANCH  16  17
ENDBRANCH   3  16
TORSDOF 8
ENDMDL
MODEL 5
REMARK VINA RESULT:      -7.1      1.444      1.831
REMARK  Name = 
REMARK  9 active torsions:
REMARK  status: ('A' for Active; 'I' for Inactive)
REMARK    1  A    between atoms: C_1  and  N_2
REMARK    2  A    between atoms: C_6  and  C_7
REMARK    3  A    between atoms: C_7  and  N_8
REMARK    4  A    between atoms: N_8  and  C_9
REMARK    5  A    between atoms: C_9  and  C_10
REMARK    6  A    between atoms: N_12  and  C_13
REMARK    7  A    between atoms: C_13  and  C_14
REMARK    8  A    between atoms: C_14  and  C_15
REMARK    9  A    between atoms: C_15  and  C_16
REMARK                            x       y       z     vdW  Elec       q    Type
REMARK                         _______ _______ _______ _____ _____    ______ ____
ROOT
ATOM      1  C   UNL     1       7.004   5.451  17.356  0.00  0.00    +0.000 C 
ATOM      2  O   UNL     1       7.123   5.054  18.511  0.00  0.00    +0.000 OA
ATOM      3  N   UNL     1       6.906   6.779  16.992  0.00  0.00    +0.000 N 
ATOM      4  H   UNL     1       7.042   6.973  16.007  0.00  0.00    +0.000 HD
ENDROOT
BRANCH   1   5
ATOM      5  C   UNL     1       6.963   4.499  16.157  0.00  0.00    +0.000 C 
BRANCH   5   6
ATOM      6  N   UNL     1       5.932   3.454  16.336  0.00  0.00    +0.000 NA
ATOM      7  H   UNL     1       6.007   2.819  15.534  0.00  0.00    +0.000 HD
BRANCH   6   8
ATOM      8  C   UNL     1       4.553   3.995  16.297  0.00  0.00    +0.000 C 
BRANCH   8  14
ATOM      9  C   UNL     1       3.529   2.490  20.401  0.00  0.00    +0.000 C 
ATOM     10  N   UNL     1       2.818   2.078  19.188  0.00  0.00    +0.000 NA
ATOM     11  C   UNL     1       1.533   2.793  19.039  0.00  0.00    +0.000 C 
ATOM     12  C   UNL     1       1.677   4.270  18.629  0.00  0.00    +0.000 C 
ATOM     13  O   UNL     1       2.463   4.416  17.440  0.00  0.00    +0.000 OA
ATOM     14  C   UNL     1       3.761   3.810  17.608  0.00  0.00    +0.000 C 
ATOM     15  C   UNL     1       3.627   2.314  17.971  0.00  0.00    +0.000 C 
ENDBRANCH   8  14
ENDBRANCH   6   8
ENDBRANCH   5   6
ENDBRANCH   1   5
BRANCH   3  16
ATOM     16  C   UNL     1       7.042   7.850  17.952  0.00  0.00    +0.000 C 
BRANCH  16  17
ATOM     17  C   UNL     1       8.386   8.563  17.830  0.00  0.00    +0.000 C 
BRANCH  17  18
ATOM     18  C   UNL     1       8.199  10.076  17.944  0.00  0.00    +0.000 C 
BRANCH  18  19
ATOM     19  C   UNL     1       9.368  10.764  18.603  0.00  0.00    +0.000 A 
ATOM     20  C   UNL     1       9.386  10.979  19.988  0.00  0.00    +0.000 A 
ATOM     21  C   UNL     1      10.482  11.589  20.597  0.00  0.00    +0.000 A 
ATOM     22  C   UNL     1      11.573  11.993  19.828  0.00  0.00    +0.000 A 
ATOM     23  C   UNL     1      11.561  11.796  18.447  0.00  0.00    +0.000 A 
ATOM     24  C   UNL     1      10.463  11.189  17.838  0.00  0.00    +0.000 A 
ENDBRANCH  18  19
ENDBRANCH  17  18
ENDBRANCH  16  17
ENDBRANCH   3  16
TORSDOF 8
ENDMDL
MODEL 6
REMARK VINA RESULT:      -7.0      1.580      2.250
REMARK  Name = 
REMARK  9 active torsions:
REMARK  status: ('A' for Active; 'I' for Inactive)
REMARK    1  A    between atoms: C_1  and  N_2
REMARK    2  A    between atoms: C_6  and  C_7
REMARK    3  A    between atoms: C_7  and  N_8
REMARK    4  A    between atoms: N_8  and  C_9
REMARK    5  A    between atoms: C_9  and  C_10
REMARK    6  A    between atoms: N_12  and  C_13
REMARK    7  A    between atoms: C_13  and  C_14
REMARK    8  A    between atoms: C_14  and  C_15
REMARK    9  A    between atoms: C_15  and  C_16
REMARK                            x       y       z     vdW  Elec       q    Type
REMARK                         _______ _______ _______ _____ _____    ______ ____
ROOT
ATOM      1  C   UNL     1       6.479   5.609  18.651  0.00  0.00    +0.000 C 
ATOM      2  O   UNL     1       7.459   4.873  18.579  0.00  0.00    +0.000 OA
ATOM      3  N   UNL     1       6.441   6.906  18.180  0.00  0.00    +0.000 N 
ATOM      4  H   UNL     1       5.517   7.314  18.097  0.00  0.00    +0.000 HD
ENDROOT
BRANCH   1   5
ATOM      5  C   UNL     1       5.153   5.159  19.271  0.00  0.00    +0.000 C 
BRANCH   5   6
ATOM      6  N   UNL     1       4.241   6.303  19.478  0.00  0.00    +0.000 NA
ATOM      7  H   UNL     1       4.254   6.520  20.480  0.00  0.00    +0.000 HD
BRANCH   6   8
ATOM      8  C   UNL     1       2.831   5.981  19.152  0.00  0.00    +0.000 C 
BRANCH   8  14
ATOM      9  C   UNL     1       3.003   1.592  18.224  0.00  0.00    +0.000 C 
ATOM     10  N   UNL     1       1.888   2.458  17.832  0.00  0.00    +0.000 NA
ATOM     11  C   UNL     1       0.733   2.306  18.739  0.00  0.00    +0.000 C 
ATOM     12  C   UNL     1       0.931   2.944  20.126  0.00  0.00    +0.000 C 
ATOM     13  O   UNL     1       1.301   4.325  20.027  0.00  0.00    +0.000 OA
ATOM     14  C   UNL     1       2.490   4.479  19.225  0.00  0.00    +0.000 C 
ATOM     15  C   UNL     1       2.283   3.885  17.814  0.00  0.00    +0.000 C 
ENDBRANCH   8  14
ENDBRANCH   6   8
ENDBRANCH   5   6
ENDBRANCH   1   5
BRANCH   3  16
ATOM     16  C   UNL     1       7.543   7.492  17.453  0.00  0.00    +0.000 C 
BRANCH  16  17
ATOM     17  C   UNL     1       8.453   8.318  18.358  0.00  0.00    +0.000 C 
BRANCH  17  18
ATOM     18  C   UNL     1       8.326   9.805  18.025  0.00  0.00    +0.000 C 
BRANCH  18  19
ATOM     19  C   UNL     1       9.398  10.645  18.672  0.00  0.00    +0.000 A 
ATOM     20  C   UNL     1       9.378  10.896  20.051  0.00  0.00    +0.000 A 
ATOM     21  C   UNL     1      10.388  11.649  20.649  0.00  0.00    +0.000 A 
ATOM     22  C   UNL     1      11.430  12.160  19.877  0.00  0.00    +0.000 A 
ATOM     23  C   UNL     1      11.455  11.927  18.501  0.00  0.00    +0.000 A 
ATOM     24  C   UNL     1      10.442  11.177  17.902  0.00  0.00    +0.000 A 
ENDBRANCH  18  19
ENDBRANCH  17  18
ENDBRANCH  16  17
ENDBRANCH   3  16
TORSDOF 8
ENDMDL
MODEL 7
REMARK VINA RESULT:      -7.0      1.043      1.142
REMARK  Name = 
REMARK  9 active torsions:
REMARK  status: ('A' for Active; 'I' for Inactive)
REMARK    1  A    between atoms: C_1  and  N_2
REMARK    2  A    between atoms: C_6  and  C_7
REMARK    3  A    between atoms: C_7  and  N_8
REMARK    4  A    between atoms: N_8  and  C_9
REMARK    5  A    between atoms: C_9  and  C_10
REMARK    6  A    between atoms: N_12  and  C_13
REMARK    7  A    between atoms: C_13  and  C_14
REMARK    8  A    between atoms: C_14  and  C_15
REMARK    9  A    between atoms: C_15  and  C_16
REMARK                            x       y       z     vdW  Elec       q    Type
REMARK                         _______ _______ _______ _____ _____    ______ ____
ROOT
ATOM      1  C   UNL     1       7.348   6.386  17.523  0.00  0.00    +0.000 C 
ATOM      2  O   UNL     1       6.798   6.651  16.459  0.00  0.00    +0.000 OA
ATOM      3  N   UNL     1       8.044   7.298  18.291  0.00  0.00    +0.000 N 
ATOM      4  H   UNL     1       8.247   7.006  19.240  0.00  0.00    +0.000 HD
ENDROOT
BRANCH   1   5
ATOM      5  C   UNL     1       7.313   4.986  18.144  0.00  0.00    +0.000 C 
BRANCH   5   6
ATOM      6  N   UNL     1       6.305   4.902  19.221  0.00  0.00    +0.000 NA
ATOM      7  H   UNL     1       6.093   3.908  19.357  0.00  0.00    +0.000 HD
BRANCH   6   8
ATOM      8  C   UNL     1       5.019   5.544  18.857  0.00  0.00    +0.000 C 
BRANCH   8  14
ATOM      9  C   UNL     1       2.004   2.530  20.265  0.00  0.00    +0.000 C 
ATOM     10  N   UNL     1       3.086   2.214  19.329  0.00  0.00    +0.000 NA
ATOM     11  C   UNL     1       2.604   2.168  17.933  0.00  0.00    +0.000 C 
ATOM     12  C   UNL     1       2.287   3.548  17.329  0.00  0.00    +0.000 C 
ATOM     13  O   UNL     1       3.401   4.443  17.436  0.00  0.00    +0.000 OA
ATOM     14  C   UNL     1       3.818   4.577  18.811  0.00  0.00    +0.000 C 
ATOM     15  C   UNL     1       4.186   3.201  19.411  0.00  0.00    +0.000 C 
ENDBRANCH   8  14
ENDBRANCH   6   8
ENDBRANCH   5   6
ENDBRANCH   1   5
BRANCH   3  16
ATOM     16  C   UNL     1       8.101   8.702  17.953  0.00  0.00    +0.000 C 
BRANCH  16  17
ATOM     17  C   UNL     1       9.016   9.481  18.894  0.00  0.00    +0.000 C 
BRANCH  17  18
ATOM     18  C   UNL     1       9.443  10.800  18.248  0.00  0.00    +0.000 C 
BRANCH  18  19
ATOM     19  C   UNL     1       9.772  11.869  19.261  0.00  0.00    +0.000 A 
ATOM     20  C   UNL     1      10.390  13.063  18.867  0.00  0.00    +0.000 A 
ATOM     21  C   UNL     1      10.665  14.061  19.802  0.00  0.00    +0.000 A 
ATOM     22  C   UNL     1      10.327  13.875  21.142  0.00  0.00    +0.000 A 
ATOM     23  C   UNL     1       9.722  12.685  21.548  0.00  0.00    +0.000 A 
ATOM     24  C   UNL     1       9.450  11.686  20.613  0.00  0.00    +0.000 A 
ENDBRANCH  18  19
ENDBRANCH  17  18
ENDBRANCH  16  17
ENDBRANCH   3  16
TORSDOF 8
ENDMDL
MODEL 8
REMARK VINA RESULT:      -7.0      1.624      1.907
REMARK  Name = 
REMARK  9 active torsions:
REMARK  status: ('A' for Active; 'I' for Inactive)
REMARK    1  A    between atoms: C_1  and  N_2
REMARK    2  A    between atoms: C_6  and  C_7
REMARK    3  A    between atoms: C_7  and  N_8
REMARK    4  A    between atoms: N_8  and  C_9
REMARK    5  A    between atoms: C_9  and  C_10
REMARK    6  A    between atoms: N_12  and  C_13
REMARK    7  A    between atoms: C_13  and  C_14
REMARK    8  A    between atoms: C_14  and  C_15
REMARK    9  A    between atoms: C_15  and  C_16
REMARK                            x       y       z     vdW  Elec       q    Type
REMARK                         _______ _______ _______ _____ _____    ______ ____
ROOT
ATOM      1  C   UNL     1       6.809   5.460  17.894  0.00  0.00    +0.000 C 
ATOM      2  O   UNL     1       7.497   4.785  18.654  0.00  0.00    +0.000 OA
ATOM      3  N   UNL     1       6.967   6.817  17.697  0.00  0.00    +0.000 N 
ATOM      4  H   UNL     1       6.493   7.199  16.887  0.00  0.00    +0.000 HD
ENDROOT
BRANCH   1   5
ATOM      5  C   UNL     1       5.682   4.860  17.049  0.00  0.00    +0.000 C 
BRANCH   5   6
ATOM      6  N   UNL     1       5.197   3.588  17.625  0.00  0.00    +0.000 NA
ATOM      7  H   UNL     1       5.782   2.841  17.236  0.00  0.00    +0.000 HD
BRANCH   6   8
ATOM      8  C   UNL     1       3.808   3.267  17.221  0.00  0.00    +0.000 C 
BRANCH   8  14
ATOM      9  C   UNL     1       1.798   5.400  20.622  0.00  0.00    +0.000 C 
ATOM     10  N   UNL     1       2.412   4.076  20.748  0.00  0.00    +0.000 NA
ATOM     11  C   UNL     1       1.400   3.000  20.716  0.00  0.00    +0.000 C 
ATOM     12  C   UNL     1       0.793   2.746  19.324  0.00  0.00    +0.000 C 
ATOM     13  O   UNL     1       1.806   2.500  18.340  0.00  0.00    +0.000 OA
ATOM     14  C   UNL     1       2.745   3.594  18.290  0.00  0.00    +0.000 C 
ATOM     15  C   UNL     1       3.396   3.823  19.672  0.00  0.00    +0.000 C 
ENDBRANCH   8  14
ENDBRANCH   6   8
ENDBRANCH   5   6
ENDBRANCH   1   5
BRANCH   3  16
ATOM     16  C   UNL     1       8.047   7.562  18.304  0.00  0.00    +0.000 C 
BRANCH  16  17
ATOM     17  C   UNL     1       8.429   8.790  17.483  0.00  0.00    +0.000 C 
BRANCH  17  18
ATOM     18  C   UNL     1       8.160  10.067  18.279  0.00  0.00    +0.000 C 
BRANCH  18  19
ATOM     19  C   UNL     1       9.425  10.747  18.741  0.00  0.00    +0.000 A 
ATOM     20  C   UNL     1      10.428  11.093  17.826  0.00  0.00    +0.000 A 
ATOM     21  C   UNL     1      11.583  11.748  18.254  0.00  0.00    +0.000 A 
ATOM     22  C   UNL     1      11.748  12.065  19.602  0.00  0.00    +0.000 A 
ATOM     23  C   UNL     1      10.760  11.716  20.524  0.00  0.00    +0.000 A 
ATOM     24  C   UNL     1       9.608  11.057  20.096  0.00  0.00    +0.000 A 
ENDBRANCH  18  19
ENDBRANCH  17  18
ENDBRANCH  16  17
ENDBRANCH   3  16
TORSDOF 8
ENDMDL
MODEL 9
REMARK VINA RESULT:      -7.0      1.442      2.156
REMARK  Name = 
REMARK  9 active torsions:
REMARK  status: ('A' for Active; 'I' for Inactive)
REMARK    1  A    between atoms: C_1  and  N_2
REMARK    2  A    between atoms: C_6  and  C_7
REMARK    3  A    between atoms: C_7  and  N_8
REMARK    4  A    between atoms: N_8  and  C_9
REMARK    5  A    between atoms: C_9  and  C_10
REMARK    6  A    between atoms: N_12  and  C_13
REMARK    7  A    between atoms: C_13  and  C_14
REMARK    8  A    between atoms: C_14  and  C_15
REMARK    9  A    between atoms: C_15  and  C_16
REMARK                            x       y       z     vdW  Elec       q    Type
REMARK                         _______ _______ _______ _____ _____    ______ ____
ROOT
ATOM      1  C   UNL     1       5.917   6.666  16.913  0.00  0.00    +0.000 C 
ATOM      2  O   UNL     1       6.332   6.223  15.846  0.00  0.00    +0.000 OA
ATOM      3  N   UNL     1       6.628   7.518  17.733  0.00  0.00    +0.000 N 
ATOM      4  H   UNL     1       6.088   7.981  18.456  0.00  0.00    +0.000 HD
ENDROOT
BRANCH   1   5
ATOM      5  C   UNL     1       4.527   6.330  17.460  0.00  0.00    +0.000 C 
BRANCH   5   6
ATOM      6  N   UNL     1       4.617   5.582  18.732  0.00  0.00    +0.000 NA
ATOM      7  H   UNL     1       5.517   5.826  19.160  0.00  0.00    +0.000 HD
BRANCH   6   8
ATOM      8  C   UNL     1       4.648   4.113  18.535  0.00  0.00    +0.000 C 
BRANCH   8  14
ATOM      9  C   UNL     1       0.580   2.238  18.819  0.00  0.00    +0.000 C 
ATOM     10  N   UNL     1       0.947   3.479  19.505  0.00  0.00    +0.000 NA
ATOM     11  C   UNL     1       1.246   3.245  20.933  0.00  0.00    +0.000 C 
ATOM     12  C   UNL     1       2.587   2.535  21.189  0.00  0.00    +0.000 C 
ATOM     13  O   UNL     1       3.679   3.221  20.563  0.00  0.00    +0.000 OA
ATOM     14  C   UNL     1       3.446   3.366  19.147  0.00  0.00    +0.000 C 
ATOM     15  C   UNL     1       2.125   4.122  18.881  0.00  0.00    +0.000 C 
ENDBRANCH   8  14
ENDBRANCH   6   8
ENDBRANCH   5   6
ENDBRANCH   1   5
BRANCH   3  16
ATOM     16  C   UNL     1       7.913   8.058  17.353  0.00  0.00    +0.000 C 
BRANCH  16  17
ATOM     17  C   UNL     1       8.521   8.922  18.454  0.00  0.00    +0.000 C 
BRANCH  17  18
ATOM     18  C   UNL     1       8.638  10.374  17.987  0.00  0.00    +0.000 C 
BRANCH  18  19
ATOM     19  C   UNL     1       9.796  11.103  18.622  0.00  0.00    +0.000 A 
ATOM     20  C   UNL     1       9.849  11.293  20.009  0.00  0.00    +0.000 A 
ATOM     21  C   UNL     1      10.936  11.943  20.594  0.00  0.00    +0.000 A 
ATOM     22  C   UNL     1      11.983  12.409  19.800  0.00  0.00    +0.000 A 
ATOM     23  C   UNL     1      11.935  12.235  18.416  0.00  0.00    +0.000 A 
ATOM     24  C   UNL     1      10.846  11.589  17.831  0.00  0.00    +0.000 A 
ENDBRANCH  18  19
ENDBRANCH  17  18
ENDBRANCH  16  17
ENDBRANCH   3  16
TORSDOF 8
ENDMDL
