MODEL 1
REMARK VINA RESULT:      -7.7      0.000      0.000
REMARK  Name = 
REMARK  1 active torsions:
REMARK  status: ('A' for Active; 'I' for Inactive)
REMARK    1  A    between atoms: C_9  and  N_10
REMARK                            x       y       z     vdW  Elec       q    Type
REMARK                         _______ _______ _______ _____ _____    ______ ____
ROOT
ATOM      1  N   UNL     1      -0.284  11.344  20.544  0.00  0.00    +0.000 N 
ATOM      2  C   UNL     1       0.420  10.171  20.312  0.00  0.00    +0.000 A 
ATOM      3  N   UNL     1       0.585   9.303  21.325  0.00  0.00    +0.000 NA
ATOM      4  C   UNL     1       1.283   8.170  21.118  0.00  0.00    +0.000 A 
ATOM      5  C   UNL     1       1.797   7.900  19.863  0.00  0.00    +0.000 A 
ATOM      6  C   UNL     1       2.544   6.882  19.208  0.00  0.00    +0.000 A 
ATOM      7  N   UNL     1       2.924   5.708  19.777  0.00  0.00    +0.000 N 
ATOM      8  C   UNL     1       4.132   5.000  19.341  0.00  0.00    +0.000 C 
ATOM      9  C   UNL     1       3.819   3.511  19.127  0.00  0.00    +0.000 C 
ATOM     10  O   UNL     1       3.216   2.920  20.293  0.00  0.00    +0.000 OA
ATOM     11  C   UNL     1       1.992   3.595  20.608  0.00  0.00    +0.000 C 
ATOM     12  C   UNL     1       2.230   5.080  20.902  0.00  0.00    +0.000 C 
ATOM     13  N   UNL     1       2.831   7.239  17.948  0.00  0.00    +0.000 NA
ATOM     14  N   UNL     1       2.209   8.425  17.788  0.00  0.00    +0.000 N 
ATOM     15  C   UNL     1       1.581   8.873  18.911  0.00  0.00    +0.000 A 
ATOM     16  N   UNL     1       0.908  10.025  19.067  0.00  0.00    +0.000 NA
ATOM     17  H   UNL     1       0.028  11.977  19.815  0.00  0.00    +0.000 HD
ATOM     18  H   UNL     1       2.258   8.888  16.892  0.00  0.00    +0.000 HD
ENDROOT
BRANCH   1  27
ATOM     19 CL   UNL     1      -5.343  17.829  24.953  0.00  0.00    +0.000 Cl
ATOM     20  C   UNL     1      -4.433  16.731  24.011  0.00  0.00    +0.000 A 
ATOM     21  C   UNL     1      -3.849  17.108  22.824  0.00  0.00    +0.000 A 
ATOM     22  C   UNL     1      -3.121  16.146  22.125  0.00  0.00    +0.000 A 
ATOM     23  C   UNL     1      -3.005  14.848  22.616  0.00  0.00    +0.000 A 
ATOM     24  N   UNL     1      -2.312  13.884  21.914  0.00  0.00    +0.000 N 
ATOM     25  C   UNL     1      -2.699  12.481  22.043  0.00  0.00    +0.000 C 
ATOM     26  C   UNL     1      -1.574  11.660  22.658  0.00  0.00    +0.000 C 
ATOM     27  C   UNL     1      -0.245  11.865  21.916  0.00  0.00    +0.000 C 
ATOM     28  C   UNL     1       0.083  13.360  21.880  0.00  0.00    +0.000 C 
ATOM     29  C   UNL     1      -1.045  14.179  21.257  0.00  0.00    +0.000 C 
ATOM     30  N   UNL     1      -3.621  14.539  23.781  0.00  0.00    +0.000 NA
ATOM     31  N   UNL     1      -4.331  15.484  24.496  0.00  0.00    +0.000 NA
ENDBRANCH   1  27
TORSDOF 1
ENDMDL
MODEL 2
REMARK VINA RESULT:      -7.6      2.482      3.490
REMARK  Name = 
REMARK  1 active torsions:
REMARK  status: ('A' for Active; 'I' for Inactive)
REMARK    1  A    between atoms: C_9  and  N_10
REMARK                            x       y       z     vdW  Elec       q    Type
REMARK                         _______ _______ _______ _____ _____    ______ ____
ROOT
ATOM      1  N   UNL     1       0.661  10.366  20.013  0.00  0.00    +0.000 N 
ATOM      2  C   UNL     1       1.383   9.302  19.492  0.00  0.00    +0.000 A 
ATOM      3  N   UNL     1       1.874   9.401  18.245  0.00  0.00    +0.000 NA
ATOM      4  C   UNL     1       2.561   8.368  17.721  0.00  0.00    +0.000 A 
ATOM      5  C   UNL     1       2.775   7.231  18.479  0.00  0.00    +0.000 A 
ATOM      6  C   UNL     1       3.419   5.968  18.357  0.00  0.00    +0.000 A 
ATOM      7  N   UNL     1       4.152   5.569  17.285  0.00  0.00    +0.000 N 
ATOM      8  C   UNL     1       4.272   4.153  16.920  0.00  0.00    +0.000 C 
ATOM      9  C   UNL     1       5.744   3.803  16.652  0.00  0.00    +0.000 C 
ATOM     10  O   UNL     1       6.331   4.683  15.674  0.00  0.00    +0.000 OA
ATOM     11  C   UNL     1       6.269   6.039  16.133  0.00  0.00    +0.000 C 
ATOM     12  C   UNL     1       4.822   6.488  16.362  0.00  0.00    +0.000 C 
ATOM     13  N   UNL     1       3.199   5.216  19.445  0.00  0.00    +0.000 NA
ATOM     14  N   UNL     1       2.497   6.019  20.269  0.00  0.00    +0.000 N 
ATOM     15  C   UNL     1       2.206   7.238  19.734  0.00  0.00    +0.000 A 
ATOM     16  N   UNL     1       1.501   8.232  20.298  0.00  0.00    +0.000 NA
ATOM     17  H   UNL     1       0.096   9.955  20.749  0.00  0.00    +0.000 HD
ATOM     18  H   UNL     1       2.234   5.677  21.181  0.00  0.00    +0.000 HD
ENDROOT
BRANCH   1  27
ATOM     19 CL   UNL     1      -3.609  18.629  20.780  0.00  0.00    +0.000 Cl
ATOM     20  C   UNL     1      -2.875  17.084  20.791  0.00  0.00    +0.000 A 
ATOM     21  C   UNL     1      -3.259  16.109  21.681  0.00  0.00    +0.000 A 
ATOM     22  C   UNL     1      -2.609  14.877  21.615  0.00  0.00    +0.000 A 
ATOM     23  C   UNL     1      -1.598  14.659  20.681  0.00  0.00    +0.000 A 
ATOM     24  N   UNL     1      -0.930  13.453  20.630  0.00  0.00    +0.000 N 
ATOM     25  C   UNL     1       0.456  13.416  20.168  0.00  0.00    +0.000 C 
ATOM     26  C   UNL     1       0.583  12.596  18.892  0.00  0.00    +0.000 C 
ATOM     27  C   UNL     1      -0.052  11.205  19.041  0.00  0.00    +0.000 C 
ATOM     28  C   UNL     1      -1.510  11.364  19.484  0.00  0.00    +0.000 C 
ATOM     29  C   UNL     1      -1.632  12.183  20.768  0.00  0.00    +0.000 C 
ATOM     30  N   UNL     1      -1.256  15.669  19.849  0.00  0.00    +0.000 NA
ATOM     31  N   UNL     1      -1.903  16.889  19.888  0.00  0.00    +0.000 NA
ENDBRANCH   1  27
TORSDOF 1
ENDMDL
MODEL 3
REMARK VINA RESULT:      -7.4      1.250      1.372
REMARK  Name = 
REMARK  1 active torsions:
REMARK  status: ('A' for Active; 'I' for Inactive)
REMARK    1  A    between atoms: C_9  and  N_10
REMARK                            x       y       z     vdW  Elec       q    Type
REMARK                         _______ _______ _______ _____ _____    ______ ____
ROOT
ATOM      1  N   UNL     1       0.249  10.989  19.682  0.00  0.00    +0.000 N 
ATOM      2  C   UNL     1       0.925   9.779  19.626  0.00  0.00    +0.000 A 
ATOM      3  N   UNL     1       0.933   8.989  20.713  0.00  0.00    +0.000 NA
ATOM      4  C   UNL     1       1.602   7.821  20.678  0.00  0.00    +0.000 A 
ATOM      5  C   UNL     1       2.249   7.435  19.518  0.00  0.00    +0.000 A 
ATOM      6  C   UNL     1       3.024   6.344  19.036  0.00  0.00    +0.000 A 
ATOM      7  N   UNL     1       3.284   5.207  19.733  0.00  0.00    +0.000 N 
ATOM      8  C   UNL     1       4.505   4.427  19.502  0.00  0.00    +0.000 C 
ATOM      9  C   UNL     1       4.156   2.937  19.363  0.00  0.00    +0.000 C 
ATOM     10  O   UNL     1       3.395   2.461  20.489  0.00  0.00    +0.000 OA
ATOM     11  C   UNL     1       2.172   3.199  20.601  0.00  0.00    +0.000 C 
ATOM     12  C   UNL     1       2.436   4.694  20.810  0.00  0.00    +0.000 C 
ATOM     13  N   UNL     1       3.473   6.591  17.797  0.00  0.00    +0.000 NA
ATOM     14  N   UNL     1       2.926   7.780  17.475  0.00  0.00    +0.000 N 
ATOM     15  C   UNL     1       2.188   8.336  18.476  0.00  0.00    +0.000 A 
ATOM     16  N   UNL     1       1.551   9.518  18.463  0.00  0.00    +0.000 NA
ATOM     17  H   UNL     1       0.672  11.552  18.951  0.00  0.00    +0.000 HD
ATOM     18  H   UNL     1       3.100   8.169  16.560  0.00  0.00    +0.000 HD
ENDROOT
BRANCH   1  27
ATOM     19 CL   UNL     1      -4.234  18.593  22.711  0.00  0.00    +0.000 Cl
ATOM     20  C   UNL     1      -3.389  17.279  22.016  0.00  0.00    +0.000 A 
ATOM     21  C   UNL     1      -2.554  17.446  20.936  0.00  0.00    +0.000 A 
ATOM     22  C   UNL     1      -1.903  16.319  20.438  0.00  0.00    +0.000 A 
ATOM     23  C   UNL     1      -2.108  15.068  21.016  0.00  0.00    +0.000 A 
ATOM     24  N   UNL     1      -1.491  13.944  20.510  0.00  0.00    +0.000 N 
ATOM     25  C   UNL     1      -2.140  12.641  20.646  0.00  0.00    +0.000 C 
ATOM     26  C   UNL     1      -1.303  11.702  21.503  0.00  0.00    +0.000 C 
ATOM     27  C   UNL     1       0.148  11.616  21.006  0.00  0.00    +0.000 C 
ATOM     28  C   UNL     1       0.742  13.026  20.945  0.00  0.00    +0.000 C 
ATOM     29  C   UNL     1      -0.098  13.964  20.079  0.00  0.00    +0.000 C 
ATOM     30  N   UNL     1      -2.959  14.971  22.064  0.00  0.00    +0.000 NA
ATOM     31  N   UNL     1      -3.598  16.080  22.582  0.00  0.00    +0.000 NA
ENDBRANCH   1  27
TORSDOF 1
ENDMDL
MODEL 4
REMARK VINA RESULT:      -7.3      1.948      2.341
REMARK  Name = 
REMARK  1 active torsions:
REMARK  status: ('A' for Active; 'I' for Inactive)
REMARK    1  A    between atoms: C_9  and  N_10
REMARK                            x       y       z     vdW  Elec       q    Type
REMARK                         _______ _______ _______ _____ _____    ______ ____
ROOT
ATOM      1  N   UNL     1       0.907  10.702  19.004  0.00  0.00    +0.000 N 
ATOM      2  C   UNL     1       1.507   9.451  19.028  0.00  0.00    +0.000 A 
ATOM      3  N   UNL     1       1.338   8.672  20.110  0.00  0.00    +0.000 NA
ATOM      4  C   UNL     1       1.930   7.463  20.153  0.00  0.00    +0.000 A 
ATOM      5  C   UNL     1       2.681   7.028  19.077  0.00  0.00    +0.000 A 
ATOM      6  C   UNL     1       3.435   5.885  18.690  0.00  0.00    +0.000 A 
ATOM      7  N   UNL     1       3.540   4.741  19.414  0.00  0.00    +0.000 N 
ATOM      8  C   UNL     1       4.727   3.882  19.326  0.00  0.00    +0.000 C 
ATOM      9  C   UNL     1       4.302   2.417  19.150  0.00  0.00    +0.000 C 
ATOM     10  O   UNL     1       3.387   1.999  20.181  0.00  0.00    +0.000 OA
ATOM     11  C   UNL     1       2.208   2.814  20.150  0.00  0.00    +0.000 C 
ATOM     12  C   UNL     1       2.542   4.292  20.386  0.00  0.00    +0.000 C 
ATOM     13  N   UNL     1       4.039   6.092  17.510  0.00  0.00    +0.000 NA
ATOM     14  N   UNL     1       3.610   7.311  17.126  0.00  0.00    +0.000 N 
ATOM     15  C   UNL     1       2.799   7.921  18.034  0.00  0.00    +0.000 A 
ATOM     16  N   UNL     1       2.244   9.141  17.946  0.00  0.00    +0.000 NA
ATOM     17  H   UNL     1       1.446  11.231  18.326  0.00  0.00    +0.000 HD
ATOM     18  H   UNL     1       3.912   7.680  16.236  0.00  0.00    +0.000 HD
ENDROOT
BRANCH   1  27
ATOM     19 CL   UNL     1      -3.350  18.630  21.477  0.00  0.00    +0.000 Cl
ATOM     20  C   UNL     1      -2.524  17.254  20.888  0.00  0.00    +0.000 A 
ATOM     21  C   UNL     1      -1.557  17.353  19.916  0.00  0.00    +0.000 A 
ATOM     22  C   UNL     1      -0.934  16.177  19.499  0.00  0.00    +0.000 A 
ATOM     23  C   UNL     1      -1.295  14.950  20.048  0.00  0.00    +0.000 A 
ATOM     24  N   UNL     1      -0.703  13.780  19.618  0.00  0.00    +0.000 N 
ATOM     25  C   UNL     1      -1.456  12.528  19.676  0.00  0.00    +0.000 C 
ATOM     26  C   UNL     1      -0.796  11.539  20.627  0.00  0.00    +0.000 C 
ATOM     27  C   UNL     1       0.694  11.346  20.307  0.00  0.00    +0.000 C 
ATOM     28  C   UNL     1       1.390  12.710  20.316  0.00  0.00    +0.000 C 
ATOM     29  C   UNL     1       0.728  13.697  19.357  0.00  0.00    +0.000 C 
ATOM     30  N   UNL     1      -2.269  14.922  20.987  0.00  0.00    +0.000 NA
ATOM     31  N   UNL     1      -2.884  16.078  21.426  0.00  0.00    +0.000 NA
ENDBRANCH   1  27
TORSDOF 1
ENDMDL
MODEL 5
REMARK VINA RESULT:      -7.3      2.494      3.843
REMARK  Name = 
REMARK  1 active torsions:
REMARK  status: ('A' for Active; 'I' for Inactive)
REMARK    1  A    between atoms: C_9  and  N_10
REMARK                            x       y       z     vdW  Elec       q    Type
REMARK                         _______ _______ _______ _____ _____    ______ ____
ROOT
ATOM      1  N   UNL     1       0.978   9.276  20.469  0.00  0.00    +0.000 N 
ATOM      2  C   UNL     1       1.721   8.354  19.746  0.00  0.00    +0.000 A 
ATOM      3  N   UNL     1       2.207   8.712  18.546  0.00  0.00    +0.000 NA
ATOM      4  C   UNL     1       2.914   7.820  17.825  0.00  0.00    +0.000 A 
ATOM      5  C   UNL     1       3.152   6.558  18.338  0.00  0.00    +0.000 A 
ATOM      6  C   UNL     1       3.821   5.360  17.965  0.00  0.00    +0.000 A 
ATOM      7  N   UNL     1       4.560   5.200  16.836  0.00  0.00    +0.000 N 
ATOM      8  C   UNL     1       4.708   3.890  16.194  0.00  0.00    +0.000 C 
ATOM      9  C   UNL     1       6.186   3.631  15.863  0.00  0.00    +0.000 C 
ATOM     10  O   UNL     1       6.753   4.701  15.084  0.00  0.00    +0.000 OA
ATOM     11  C   UNL     1       6.665   5.935  15.808  0.00  0.00    +0.000 C 
ATOM     12  C   UNL     1       5.209   6.299  16.119  0.00  0.00    +0.000 C 
ATOM     13  N   UNL     1       3.619   4.399  18.878  0.00  0.00    +0.000 NA
ATOM     14  N   UNL     1       2.902   5.005  19.846  0.00  0.00    +0.000 N 
ATOM     15  C   UNL     1       2.586   6.300  19.568  0.00  0.00    +0.000 A 
ATOM     16  N   UNL     1       1.862   7.145  20.320  0.00  0.00    +0.000 NA
ATOM     17  H   UNL     1       0.424   8.713  21.107  0.00  0.00    +0.000 HD
ATOM     18  H   UNL     1       2.648   4.480  20.670  0.00  0.00    +0.000 HD
ENDROOT
BRANCH   1  27
ATOM     19 CL   UNL     1      -1.828  17.959  22.427  0.00  0.00    +0.000 Cl
ATOM     20  C   UNL     1      -1.341  16.332  22.224  0.00  0.00    +0.000 A 
ATOM     21  C   UNL     1      -1.712  15.351  23.113  0.00  0.00    +0.000 A 
ATOM     22  C   UNL     1      -1.272  14.051  22.866  0.00  0.00    +0.000 A 
ATOM     23  C   UNL     1      -0.475  13.771  21.759  0.00  0.00    +0.000 A 
ATOM     24  N   UNL     1      -0.011  12.493  21.525  0.00  0.00    +0.000 N 
ATOM     25  C   UNL     1       1.258  12.303  20.825  0.00  0.00    +0.000 C 
ATOM     26  C   UNL     1       1.047  11.577  19.503  0.00  0.00    +0.000 C 
ATOM     27  C   UNL     1       0.246  10.279  19.685  0.00  0.00    +0.000 C 
ATOM     28  C   UNL     1      -1.077  10.601  20.386  0.00  0.00    +0.000 C 
ATOM     29  C   UNL     1      -0.862  11.324  21.714  0.00  0.00    +0.000 C 
ATOM     30  N   UNL     1      -0.130  14.787  20.935  0.00  0.00    +0.000 NA
ATOM     31  N   UNL     1      -0.572  16.077  21.154  0.00  0.00    +0.000 NA
ENDBRANCH   1  27
TORSDOF 1
ENDMDL
MODEL 6
REMARK VINA RESULT:      -7.1      2.975      4.142
REMARK  Name = 
REMARK  1 active torsions:
REMARK  status: ('A' for Active; 'I' for Inactive)
REMARK    1  A    between atoms: C_9  and  N_10
REMARK                            x       y       z     vdW  Elec       q    Type
REMARK                         _______ _______ _______ _____ _____    ______ ____
ROOT
ATOM      1  N   UNL     1       0.690   9.475  20.353  0.00  0.00    +0.000 N 
ATOM      2  C   UNL     1       1.496   8.539  19.722  0.00  0.00    +0.000 A 
ATOM      3  N   UNL     1       1.870   8.758  18.450  0.00  0.00    +0.000 NA
ATOM      4  C   UNL     1       2.637   7.847  17.820  0.00  0.00    +0.000 A 
ATOM      5  C   UNL     1       3.051   6.714  18.494  0.00  0.00    +0.000 A 
ATOM      6  C   UNL     1       3.836   5.552  18.255  0.00  0.00    +0.000 A 
ATOM      7  N   UNL     1       4.525   5.301  17.111  0.00  0.00    +0.000 N 
ATOM      8  C   UNL     1       4.792   3.931  16.660  0.00  0.00    +0.000 C 
ATOM      9  C   UNL     1       6.269   3.786  16.265  0.00  0.00    +0.000 C 
ATOM     10  O   UNL     1       6.662   4.779  15.298  0.00  0.00    +0.000 OA
ATOM     11  C   UNL     1       6.468   6.092  15.836  0.00  0.00    +0.000 C 
ATOM     12  C   UNL     1       4.999   6.340  16.195  0.00  0.00    +0.000 C 
ATOM     13  N   UNL     1       3.799   4.727  19.312  0.00  0.00    +0.000 NA
ATOM     14  N   UNL     1       3.070   5.394  20.229  0.00  0.00    +0.000 N 
ATOM     15  C   UNL     1       2.588   6.589  19.787  0.00  0.00    +0.000 A 
ATOM     16  N   UNL     1       1.811   7.456  20.456  0.00  0.00    +0.000 NA
ATOM     17  H   UNL     1       0.242   8.961  21.105  0.00  0.00    +0.000 HD
ATOM     18  H   UNL     1       2.925   4.978  21.138  0.00  0.00    +0.000 HD
ENDROOT
BRANCH   1  27
ATOM     19 CL   UNL     1      -1.119  18.616  19.831  0.00  0.00    +0.000 Cl
ATOM     20  C   UNL     1      -0.770  16.961  20.087  0.00  0.00    +0.000 A 
ATOM     21  C   UNL     1      -0.909  16.377  21.324  0.00  0.00    +0.000 A 
ATOM     22  C   UNL     1      -0.606  15.021  21.438  0.00  0.00    +0.000 A 
ATOM     23  C   UNL     1      -0.168  14.296  20.332  0.00  0.00    +0.000 A 
ATOM     24  N   UNL     1       0.163  12.962  20.445  0.00  0.00    +0.000 N 
ATOM     25  C   UNL     1       1.172  12.391  19.555  0.00  0.00    +0.000 C 
ATOM     26  C   UNL     1       0.567  11.312  18.667  0.00  0.00    +0.000 C 
ATOM     27  C   UNL     1      -0.197  10.260  19.485  0.00  0.00    +0.000 C 
ATOM     28  C   UNL     1      -1.253  10.962  20.344  0.00  0.00    +0.000 C 
ATOM     29  C   UNL     1      -0.641  12.039  21.238  0.00  0.00    +0.000 C 
ATOM     30  N   UNL     1      -0.034  14.938  19.149  0.00  0.00    +0.000 NA
ATOM     31  N   UNL     1      -0.348  16.276  19.013  0.00  0.00    +0.000 NA
ENDBRANCH   1  27
TORSDOF 1
ENDMDL
MODEL 7
REMARK VINA RESULT:      -7.0      4.932     10.619
REMARK  Name = 
REMARK  1 active torsions:
REMARK  status: ('A' for Active; 'I' for Inactive)
REMARK    1  A    between atoms: C_9  and  N_10
REMARK                            x       y       z     vdW  Elec       q    Type
REMARK                         _______ _______ _______ _____ _____    ______ ____
ROOT
ATOM      1  N   UNL     1       1.270  10.838  19.898  0.00  0.00    +0.000 N 
ATOM      2  C   UNL     1       0.605  11.873  20.540  0.00  0.00    +0.000 A 
ATOM      3  N   UNL     1      -0.535  11.601  21.197  0.00  0.00    +0.000 NA
ATOM      4  C   UNL     1      -1.201  12.600  21.809  0.00  0.00    +0.000 A 
ATOM      5  C   UNL     1      -0.691  13.885  21.776  0.00  0.00    +0.000 A 
ATOM      6  C   UNL     1      -1.019  15.180  22.265  0.00  0.00    +0.000 A 
ATOM      7  N   UNL     1      -2.074  15.462  23.074  0.00  0.00    +0.000 N 
ATOM      8  C   UNL     1      -2.723  16.777  23.058  0.00  0.00    +0.000 C 
ATOM      9  C   UNL     1      -2.913  17.285  24.496  0.00  0.00    +0.000 C 
ATOM     10  O   UNL     1      -3.613  16.327  25.312  0.00  0.00    +0.000 OA
ATOM     11  C   UNL     1      -2.878  15.097  25.364  0.00  0.00    +0.000 C 
ATOM     12  C   UNL     1      -2.703  14.489  23.968  0.00  0.00    +0.000 C 
ATOM     13  N   UNL     1      -0.148  16.094  21.812  0.00  0.00    +0.000 NA
ATOM     14  N   UNL     1       0.756  15.375  21.116  0.00  0.00    +0.000 N 
ATOM     15  C   UNL     1       0.473  14.044  21.055  0.00  0.00    +0.000 A 
ATOM     16  N   UNL     1       1.167  13.089  20.415  0.00  0.00    +0.000 NA
ATOM     17  H   UNL     1       1.840  11.298  19.195  0.00  0.00    +0.000 HD
ATOM     18  H   UNL     1       1.542  15.850  20.696  0.00  0.00    +0.000 HD
ENDROOT
BRANCH   1  27
ATOM     19 CL   UNL     1       3.266   1.980  17.745  0.00  0.00    +0.000 Cl
ATOM     20  C   UNL     1       3.047   3.642  18.081  0.00  0.00    +0.000 A 
ATOM     21  C   UNL     1       3.795   4.611  17.454  0.00  0.00    +0.000 A 
ATOM     22  C   UNL     1       3.544   5.941  17.788  0.00  0.00    +0.000 A 
ATOM     23  C   UNL     1       2.575   6.264  18.734  0.00  0.00    +0.000 A 
ATOM     24  N   UNL     1       2.343   7.577  19.091  0.00  0.00    +0.000 N 
ATOM     25  C   UNL     1       1.860   7.883  20.436  0.00  0.00    +0.000 C 
ATOM     26  C   UNL     1       0.478   8.521  20.386  0.00  0.00    +0.000 C 
ATOM     27  C   UNL     1       0.438   9.723  19.429  0.00  0.00    +0.000 C 
ATOM     28  C   UNL     1       0.920   9.279  18.045  0.00  0.00    +0.000 C 
ATOM     29  C   UNL     1       2.309   8.645  18.099  0.00  0.00    +0.000 C 
ATOM     30  N   UNL     1       1.889   5.260  19.327  0.00  0.00    +0.000 NA
ATOM     31  N   UNL     1       2.110   3.938  18.996  0.00  0.00    +0.000 NA
ENDBRANCH   1  27
TORSDOF 1
ENDMDL
MODEL 8
REMARK VINA RESULT:      -6.9      1.896      2.056
REMARK  Name = 
REMARK  1 active torsions:
REMARK  status: ('A' for Active; 'I' for Inactive)
REMARK    1  A    between atoms: C_9  and  N_10
REMARK                            x       y       z     vdW  Elec       q    Type
REMARK                         _______ _______ _______ _____ _____    ______ ____
ROOT
ATOM      1  N   UNL     1       0.778  11.043  19.035  0.00  0.00    +0.000 N 
ATOM      2  C   UNL     1       1.368   9.787  19.065  0.00  0.00    +0.000 A 
ATOM      3  N   UNL     1       1.244   9.039  20.173  0.00  0.00    +0.000 NA
ATOM      4  C   UNL     1       1.828   7.826  20.222  0.00  0.00    +0.000 A 
ATOM      5  C   UNL     1       2.526   7.356  19.124  0.00  0.00    +0.000 A 
ATOM      6  C   UNL     1       3.253   6.198  18.734  0.00  0.00    +0.000 A 
ATOM      7  N   UNL     1       3.382   5.071  19.482  0.00  0.00    +0.000 N 
ATOM      8  C   UNL     1       4.557   4.201  19.363  0.00  0.00    +0.000 C 
ATOM      9  C   UNL     1       4.114   2.735  19.246  0.00  0.00    +0.000 C 
ATOM     10  O   UNL     1       3.244   2.352  20.328  0.00  0.00    +0.000 OA
ATOM     11  C   UNL     1       2.072   3.176  20.330  0.00  0.00    +0.000 C 
ATOM     12  C   UNL     1       2.427   4.657  20.511  0.00  0.00    +0.000 C 
ATOM     13  N   UNL     1       3.804   6.368  17.523  0.00  0.00    +0.000 NA
ATOM     14  N   UNL     1       3.366   7.580  17.126  0.00  0.00    +0.000 N 
ATOM     15  C   UNL     1       2.602   8.221  18.054  0.00  0.00    +0.000 A 
ATOM     16  N   UNL     1       2.053   9.443  17.959  0.00  0.00    +0.000 NA
ATOM     17  H   UNL     1       1.289  11.549  18.319  0.00  0.00    +0.000 HD
ATOM     18  H   UNL     1       3.630   7.923  16.214  0.00  0.00    +0.000 HD
ENDROOT
BRANCH   1  27
ATOM     19 CL   UNL     1      -6.689  14.214  23.649  0.00  0.00    +0.000 Cl
ATOM     20  C   UNL     1      -5.398  13.674  22.667  0.00  0.00    +0.000 A 
ATOM     21  C   UNL     1      -5.249  14.103  21.369  0.00  0.00    +0.000 A 
ATOM     22  C   UNL     1      -4.164  13.612  20.644  0.00  0.00    +0.000 A 
ATOM     23  C   UNL     1      -3.274  12.710  21.222  0.00  0.00    +0.000 A 
ATOM     24  N   UNL     1      -2.216  12.198  20.500  0.00  0.00    +0.000 N 
ATOM     25  C   UNL     1      -1.705  10.866  20.817  0.00  0.00    +0.000 C 
ATOM     26  C   UNL     1      -0.263  10.937  21.302  0.00  0.00    +0.000 C 
ATOM     27  C   UNL     1       0.629  11.722  20.328  0.00  0.00    +0.000 C 
ATOM     28  C   UNL     1       0.025  13.111  20.104  0.00  0.00    +0.000 C 
ATOM     29  C   UNL     1      -1.419  13.035  19.612  0.00  0.00    +0.000 C 
ATOM     30  N   UNL     1      -3.491  12.314  22.497  0.00  0.00    +0.000 NA
ATOM     31  N   UNL     1      -4.550  12.804  23.236  0.00  0.00    +0.000 NA
ENDBRANCH   1  27
TORSDOF 1
ENDMDL
MODEL 9
REMARK VINA RESULT:      -6.8      4.982     10.750
REMARK  Name = 
REMARK  1 active torsions:
REMARK  status: ('A' for Active; 'I' for Inactive)
REMARK    1  A    between atoms: C_9  and  N_10
REMARK                            x       y       z     vdW  Elec       q    Type
REMARK                         _______ _______ _______ _____ _____    ______ ____
ROOT
ATOM      1  N   UNL     1       0.218  10.898  21.718  0.00  0.00    +0.000 N 
ATOM      2  C   UNL     1      -0.551  12.042  21.883  0.00  0.00    +0.000 A 
ATOM      3  N   UNL     1      -1.887  11.921  21.938  0.00  0.00    +0.000 NA
ATOM      4  C   UNL     1      -2.646  13.025  22.079  0.00  0.00    +0.000 A 
ATOM      5  C   UNL     1      -2.041  14.264  22.190  0.00  0.00    +0.000 A 
ATOM      6  C   UNL     1      -2.414  15.626  22.359  0.00  0.00    +0.000 A 
ATOM      7  N   UNL     1      -3.686  16.067  22.545  0.00  0.00    +0.000 N 
ATOM      8  C   UNL     1      -4.103  17.407  22.118  0.00  0.00    +0.000 C 
ATOM      9  C   UNL     1      -4.883  18.098  23.247  0.00  0.00    +0.000 C 
ATOM     10  O   UNL     1      -5.984  17.290  23.706  0.00  0.00    +0.000 OA
ATOM     11  C   UNL     1      -5.499  16.035  24.199  0.00  0.00    +0.000 C 
ATOM     12  C   UNL     1      -4.762  15.251  23.107  0.00  0.00    +0.000 C 
ATOM     13  N   UNL     1      -1.338  16.424  22.303  0.00  0.00    +0.000 NA
ATOM     14  N   UNL     1      -0.299  15.573  22.180  0.00  0.00    +0.000 N 
ATOM     15  C   UNL     1      -0.666  14.263  22.099  0.00  0.00    +0.000 A 
ATOM     16  N   UNL     1       0.136  13.197  21.943  0.00  0.00    +0.000 NA
ATOM     17  H   UNL     1       1.097  11.234  21.336  0.00  0.00    +0.000 HD
ATOM     18  H   UNL     1       0.639  15.945  22.147  0.00  0.00    +0.000 HD
ENDROOT
BRANCH   1  27
ATOM     19 CL   UNL     1       3.716   3.619  17.041  0.00  0.00    +0.000 Cl
ATOM     20  C   UNL     1       3.202   5.038  17.845  0.00  0.00    +0.000 A 
ATOM     21  C   UNL     1       3.658   6.282  17.476  0.00  0.00    +0.000 A 
ATOM     22  C   UNL     1       3.182   7.384  18.186  0.00  0.00    +0.000 A 
ATOM     23  C   UNL     1       2.284   7.216  19.238  0.00  0.00    +0.000 A 
ATOM     24  N   UNL     1       1.833   8.299  19.963  0.00  0.00    +0.000 N 
ATOM     25  C   UNL     1       1.458   8.122  21.365  0.00  0.00    +0.000 C 
ATOM     26  C   UNL     1      -0.021   8.417  21.575  0.00  0.00    +0.000 C 
ATOM     27  C   UNL     1      -0.418   9.786  21.001  0.00  0.00    +0.000 C 
ATOM     28  C   UNL     1      -0.020   9.844  19.523  0.00  0.00    +0.000 C 
ATOM     29  C   UNL     1       1.465   9.553  19.317  0.00  0.00    +0.000 C 
ATOM     30  N   UNL     1       1.892   5.962  19.561  0.00  0.00    +0.000 NA
ATOM     31  N   UNL     1       2.339   4.861  18.857  0.00  0.00    +0.000 NA
ENDBRANCH   1  27
TORSDOF 1
ENDMDL
