MODEL 1
REMARK VINA RESULT:      -6.6      0.000      0.000
REMARK  Name = 
REMARK  8 active torsions:
REMARK  status: ('A' for Active; 'I' for Inactive)
REMARK    1  A    between atoms: C_1  and  C_2
REMARK    2  A    between atoms: C_4  and  C_5
REMARK    3  A    between atoms: C_6  and  C_7
REMARK    4  A    between atoms: C_9  and  S_10
REMARK    5  A    between atoms: S_10  and  C_11
REMARK    6  A    between atoms: C_11  and  C_12
REMARK    7  A    between atoms: N_14  and  C_15
REMARK    8  A    between atoms: C_20  and  C_21
REMARK                            x       y       z     vdW  Elec       q    Type
REMARK                         _______ _______ _______ _____ _____    ______ ____
ROOT
ATOM      1  C   UNL     1       2.552   4.155  21.348  0.00  0.00    +0.000 C 
ENDROOT
BRANCH   1   2
ATOM      2  C   UNL     1       2.018   5.212  20.359  0.00  0.00    +0.000 C 
ATOM      3  O   UNL     1       1.164   4.969  19.506  0.00  0.00    +0.000 OA
ATOM      4  N   UNL     1       2.594   6.475  20.482  0.00  0.00    +0.000 N 
ATOM      5  H   UNL     1       3.538   6.500  20.851  0.00  0.00    +0.000 HD
BRANCH   4   6
ATOM      6  C   UNL     1       2.186   7.540  19.624  0.00  0.00    +0.000 A 
ATOM      7  C   UNL     1       2.566   7.539  18.272  0.00  0.00    +0.000 A 
ATOM      8  C   UNL     1       2.166   8.569  17.414  0.00  0.00    +0.000 A 
ATOM      9  C   UNL     1       1.388   9.617  17.896  0.00  0.00    +0.000 A 
ATOM     10  C   UNL     1       1.016   9.641  19.238  0.00  0.00    +0.000 A 
ATOM     11  C   UNL     1       1.408   8.605  20.102  0.00  0.00    +0.000 A 
BRANCH  11  12
ATOM     12  C   UNL     1       1.106   8.729  21.493  0.00  0.00    +0.000 C 
ATOM     13  N   UNL     1       0.872   8.792  22.633  0.00  0.00    +0.000 NA
ENDBRANCH  11  12
ENDBRANCH   4   6
ENDBRANCH   1   2
BRANCH   1  14
ATOM     14  S   UNL     1       3.438   2.885  20.372  0.00  0.00    +0.000 S 
BRANCH  14  21
ATOM     15  C   UNL     1       7.642   5.760  19.568  0.00  0.00    +0.000 C 
ATOM     16  C   UNL     1       6.453   5.061  18.973  0.00  0.00    +0.000 A 
ATOM     17  C   UNL     1       6.237   5.126  17.597  0.00  0.00    +0.000 A 
ATOM     18  C   UNL     1       5.128   4.484  17.045  0.00  0.00    +0.000 A 
ATOM     19  C   UNL     1       4.880   4.542  15.562  0.00  0.00    +0.000 C 
ATOM     20  C   UNL     1       4.263   3.790  17.908  0.00  0.00    +0.000 A 
ATOM     21  C   UNL     1       4.549   3.765  19.285  0.00  0.00    +0.000 A 
ATOM     22  N   UNL     1       5.625   4.388  19.823  0.00  0.00    +0.000 NA
BRANCH  20  23
ATOM     23  C   UNL     1       3.111   3.128  17.369  0.00  0.00    +0.000 C 
ATOM     24  N   UNL     1       2.184   2.549  16.976  0.00  0.00    +0.000 NA
ENDBRANCH  20  23
ENDBRANCH  14  21
ENDBRANCH   1  14
TORSDOF 6
ENDMDL
MODEL 2
REMARK VINA RESULT:      -6.4      2.923      6.386
REMARK  Name = 
REMARK  8 active torsions:
REMARK  status: ('A' for Active; 'I' for Inactive)
REMARK    1  A    between atoms: C_1  and  C_2
REMARK    2  A    between atoms: C_4  and  C_5
REMARK    3  A    between atoms: C_6  and  C_7
REMARK    4  A    between atoms: C_9  and  S_10
REMARK    5  A    between atoms: S_10  and  C_11
REMARK    6  A    between atoms: C_11  and  C_12
REMARK    7  A    between atoms: N_14  and  C_15
REMARK    8  A    between atoms: C_20  and  C_21
REMARK                            x       y       z     vdW  Elec       q    Type
REMARK                         _______ _______ _______ _____ _____    ______ ____
ROOT
ATOM      1  C   UNL     1       7.502   6.150  18.208  0.00  0.00    +0.000 C 
ENDROOT
BRANCH   1   2
ATOM      2  C   UNL     1       7.520   5.290  16.927  0.00  0.00    +0.000 C 
ATOM      3  O   UNL     1       8.026   4.169  16.873  0.00  0.00    +0.000 OA
ATOM      4  N   UNL     1       6.936   5.887  15.811  0.00  0.00    +0.000 N 
ATOM      5  H   UNL     1       6.952   6.901  15.790  0.00  0.00    +0.000 HD
BRANCH   4   6
ATOM      6  C   UNL     1       6.890   5.195  14.565  0.00  0.00    +0.000 A 
ATOM      7  C   UNL     1       7.782   5.539  13.535  0.00  0.00    +0.000 A 
ATOM      8  C   UNL     1       7.758   4.864  12.311  0.00  0.00    +0.000 A 
ATOM      9  C   UNL     1       6.840   3.842  12.095  0.00  0.00    +0.000 A 
ATOM     10  C   UNL     1       5.938   3.498  13.100  0.00  0.00    +0.000 A 
ATOM     11  C   UNL     1       5.963   4.167  14.334  0.00  0.00    +0.000 A 
BRANCH  11  12
ATOM     12  C   UNL     1       4.946   3.866  15.291  0.00  0.00    +0.000 C 
ATOM     13  N   UNL     1       4.097   3.598  16.044  0.00  0.00    +0.000 NA
ENDBRANCH  11  12
ENDBRANCH   4   6
ENDBRANCH   1   2
BRANCH   1  14
ATOM     14  S   UNL     1       6.552   5.232  19.475  0.00  0.00    +0.000 S 
BRANCH  14  21
ATOM     15  C   UNL     1       2.626   8.056  17.687  0.00  0.00    +0.000 C 
ATOM     16  C   UNL     1       3.089   6.740  18.243  0.00  0.00    +0.000 A 
ATOM     17  C   UNL     1       2.166   5.711  18.430  0.00  0.00    +0.000 A 
ATOM     18  C   UNL     1       2.595   4.491  18.954  0.00  0.00    +0.000 A 
ATOM     19  C   UNL     1       1.613   3.370  19.161  0.00  0.00    +0.000 C 
ATOM     20  C   UNL     1       3.955   4.346  19.276  0.00  0.00    +0.000 A 
ATOM     21  C   UNL     1       4.827   5.427  19.055  0.00  0.00    +0.000 A 
ATOM     22  N   UNL     1       4.413   6.613  18.547  0.00  0.00    +0.000 NA
BRANCH  20  23
ATOM     23  C   UNL     1       4.421   3.105  19.824  0.00  0.00    +0.000 C 
ATOM     24  N   UNL     1       4.852   2.109  20.237  0.00  0.00    +0.000 NA
ENDBRANCH  20  23
ENDBRANCH  14  21
ENDBRANCH   1  14
TORSDOF 6
ENDMDL
MODEL 3
REMARK VINA RESULT:      -6.3      2.765      3.981
REMARK  Name = 
REMARK  8 active torsions:
REMARK  status: ('A' for Active; 'I' for Inactive)
REMARK    1  A    between atoms: C_1  and  C_2
REMARK    2  A    between atoms: C_4  and  C_5
REMARK    3  A    between atoms: C_6  and  C_7
REMARK    4  A    between atoms: C_9  and  S_10
REMARK    5  A    between atoms: S_10  and  C_11
REMARK    6  A    between atoms: C_11  and  C_12
REMARK    7  A    between atoms: N_14  and  C_15
REMARK    8  A    between atoms: C_20  and  C_21
REMARK                            x       y       z     vdW  Elec       q    Type
REMARK                         _______ _______ _______ _____ _____    ______ ____
ROOT
ATOM      1  C   UNL     1       2.503   8.640  17.706  0.00  0.00    +0.000 C 
ENDROOT
BRANCH   1   2
ATOM      2  C   UNL     1       1.680   9.806  18.292  0.00  0.00    +0.000 C 
ATOM      3  O   UNL     1       2.035  10.983  18.229  0.00  0.00    +0.000 OA
ATOM      4  N   UNL     1       0.500   9.428  18.931  0.00  0.00    +0.000 N 
ATOM      5  H   UNL     1       0.489   8.495  19.329  0.00  0.00    +0.000 HD
BRANCH   4   6
ATOM      6  C   UNL     1      -0.350  10.414  19.516  0.00  0.00    +0.000 A 
ATOM      7  C   UNL     1      -1.237  11.145  18.709  0.00  0.00    +0.000 A 
ATOM      8  C   UNL     1      -2.085  12.107  19.268  0.00  0.00    +0.000 A 
ATOM      9  C   UNL     1      -2.052  12.359  20.635  0.00  0.00    +0.000 A 
ATOM     10  C   UNL     1      -1.166  11.653  21.447  0.00  0.00    +0.000 A 
ATOM     11  C   UNL     1      -0.319  10.680  20.893  0.00  0.00    +0.000 A 
BRANCH  11  12
ATOM     12  C   UNL     1       0.656  10.066  21.739  0.00  0.00    +0.000 C 
ATOM     13  N   UNL     1       1.420   9.553  22.453  0.00  0.00    +0.000 NA
ENDBRANCH  11  12
ENDBRANCH   4   6
ENDBRANCH   1   2
BRANCH   1  14
ATOM     14  S   UNL     1       2.426   7.255  18.900  0.00  0.00    +0.000 S 
BRANCH  14  21
ATOM     15  C   UNL     1       5.799   5.244  15.557  0.00  0.00    +0.000 C 
ATOM     16  C   UNL     1       4.728   4.995  16.580  0.00  0.00    +0.000 A 
ATOM     17  C   UNL     1       4.348   3.685  16.871  0.00  0.00    +0.000 A 
ATOM     18  C   UNL     1       3.348   3.453  17.815  0.00  0.00    +0.000 A 
ATOM     19  C   UNL     1       2.927   2.046  18.142  0.00  0.00    +0.000 C 
ATOM     20  C   UNL     1       2.755   4.562  18.442  0.00  0.00    +0.000 A 
ATOM     21  C   UNL     1       3.193   5.854  18.100  0.00  0.00    +0.000 A 
ATOM     22  N   UNL     1       4.164   6.081  17.183  0.00  0.00    +0.000 NA
BRANCH  20  23
ATOM     23  C   UNL     1       1.718   4.353  19.410  0.00  0.00    +0.000 C 
ATOM     24  N   UNL     1       0.918   4.201  20.239  0.00  0.00    +0.000 NA
ENDBRANCH  20  23
ENDBRANCH  14  21
ENDBRANCH   1  14
TORSDOF 6
ENDMDL
MODEL 4
REMARK VINA RESULT:      -6.2      3.045      4.259
REMARK  Name = 
REMARK  8 active torsions:
REMARK  status: ('A' for Active; 'I' for Inactive)
REMARK    1  A    between atoms: C_1  and  C_2
REMARK    2  A    between atoms: C_4  and  C_5
REMARK    3  A    between atoms: C_6  and  C_7
REMARK    4  A    between atoms: C_9  and  S_10
REMARK    5  A    between atoms: S_10  and  C_11
REMARK    6  A    between atoms: C_11  and  C_12
REMARK    7  A    between atoms: N_14  and  C_15
REMARK    8  A    between atoms: C_20  and  C_21
REMARK                            x       y       z     vdW  Elec       q    Type
REMARK                         _______ _______ _______ _____ _____    ______ ____
ROOT
ATOM      1  C   UNL     1       2.547   8.451  17.650  0.00  0.00    +0.000 C 
ENDROOT
BRANCH   1   2
ATOM      2  C   UNL     1       1.808   9.663  18.254  0.00  0.00    +0.000 C 
ATOM      3  O   UNL     1       2.121  10.830  18.022  0.00  0.00    +0.000 OA
ATOM      4  N   UNL     1       0.759   9.341  19.114  0.00  0.00    +0.000 N 
ATOM      5  H   UNL     1       0.834   8.451  19.594  0.00  0.00    +0.000 HD
BRANCH   4   6
ATOM      6  C   UNL     1      -0.003  10.374  19.739  0.00  0.00    +0.000 A 
ATOM      7  C   UNL     1       0.399  10.892  20.981  0.00  0.00    +0.000 A 
ATOM      8  C   UNL     1      -0.329  11.911  21.601  0.00  0.00    +0.000 A 
ATOM      9  C   UNL     1      -1.473  12.421  20.997  0.00  0.00    +0.000 A 
ATOM     10  C   UNL     1      -1.895  11.907  19.772  0.00  0.00    +0.000 A 
ATOM     11  C   UNL     1      -1.162  10.889  19.140  0.00  0.00    +0.000 A 
BRANCH  11  12
ATOM     12  C   UNL     1      -1.694  10.310  17.947  0.00  0.00    +0.000 C 
ATOM     13  N   UNL     1      -2.103   9.860  16.953  0.00  0.00    +0.000 NA
ENDBRANCH  11  12
ENDBRANCH   4   6
ENDBRANCH   1   2
BRANCH   1  14
ATOM     14  S   UNL     1       2.494   7.101  18.885  0.00  0.00    +0.000 S 
BRANCH  14  21
ATOM     15  C   UNL     1       5.837   5.006  15.564  0.00  0.00    +0.000 C 
ATOM     16  C   UNL     1       4.775   4.782  16.602  0.00  0.00    +0.000 A 
ATOM     17  C   UNL     1       4.399   3.480  16.930  0.00  0.00    +0.000 A 
ATOM     18  C   UNL     1       3.406   3.272  17.888  0.00  0.00    +0.000 A 
ATOM     19  C   UNL     1       2.989   1.874  18.254  0.00  0.00    +0.000 C 
ATOM     20  C   UNL     1       2.819   4.397  18.493  0.00  0.00    +0.000 A 
ATOM     21  C   UNL     1       3.254   5.680  18.114  0.00  0.00    +0.000 A 
ATOM     22  N   UNL     1       4.217   5.883  17.183  0.00  0.00    +0.000 NA
BRANCH  20  23
ATOM     23  C   UNL     1       1.791   4.213  19.475  0.00  0.00    +0.000 C 
ATOM     24  N   UNL     1       0.917   4.081  20.228  0.00  0.00    +0.000 NA
ENDBRANCH  20  23
ENDBRANCH  14  21
ENDBRANCH   1  14
TORSDOF 6
ENDMDL
MODEL 5
REMARK VINA RESULT:      -6.2      6.046      8.677
REMARK  Name = 
REMARK  8 active torsions:
REMARK  status: ('A' for Active; 'I' for Inactive)
REMARK    1  A    between atoms: C_1  and  C_2
REMARK    2  A    between atoms: C_4  and  C_5
REMARK    3  A    between atoms: C_6  and  C_7
REMARK    4  A    between atoms: C_9  and  S_10
REMARK    5  A    between atoms: S_10  and  C_11
REMARK    6  A    between atoms: C_11  and  C_12
REMARK    7  A    between atoms: N_14  and  C_15
REMARK    8  A    between atoms: C_20  and  C_21
REMARK                            x       y       z     vdW  Elec       q    Type
REMARK                         _______ _______ _______ _____ _____    ______ ____
ROOT
ATOM      1  C   UNL     1       8.284   9.108  17.578  0.00  0.00    +0.000 C 
ENDROOT
BRANCH   1   2
ATOM      2  C   UNL     1       7.576   7.746  17.732  0.00  0.00    +0.000 C 
ATOM      3  O   UNL     1       7.962   6.867  18.503  0.00  0.00    +0.000 OA
ATOM      4  N   UNL     1       6.466   7.565  16.909  0.00  0.00    +0.000 N 
ATOM      5  H   UNL     1       6.469   8.085  16.038  0.00  0.00    +0.000 HD
BRANCH   4   6
ATOM      6  C   UNL     1       5.725   6.347  16.956  0.00  0.00    +0.000 A 
ATOM      7  C   UNL     1       4.766   6.146  17.962  0.00  0.00    +0.000 A 
ATOM      8  C   UNL     1       4.023   4.962  18.017  0.00  0.00    +0.000 A 
ATOM      9  C   UNL     1       4.233   3.961  17.075  0.00  0.00    +0.000 A 
ATOM     10  C   UNL     1       5.192   4.138  16.080  0.00  0.00    +0.000 A 
ATOM     11  C   UNL     1       5.935   5.328  16.015  0.00  0.00    +0.000 A 
BRANCH  11  12
ATOM     12  C   UNL     1       6.989   5.419  15.054  0.00  0.00    +0.000 C 
ATOM     13  N   UNL     1       7.833   5.461  14.252  0.00  0.00    +0.000 NA
ENDBRANCH  11  12
ENDBRANCH   4   6
ENDBRANCH   1   2
BRANCH   1  14
ATOM     14  S   UNL     1       8.961   9.566  19.215  0.00  0.00    +0.000 S 
BRANCH  14  21
ATOM     15  C   UNL     1      11.416  13.170  16.463  0.00  0.00    +0.000 C 
ATOM     16  C   UNL     1      10.756  12.799  17.760  0.00  0.00    +0.000 A 
ATOM     17  C   UNL     1      10.704  13.731  18.796  0.00  0.00    +0.000 A 
ATOM     18  C   UNL     1      10.098  13.383  20.003  0.00  0.00    +0.000 A 
ATOM     19  C   UNL     1      10.032  14.377  21.131  0.00  0.00    +0.000 C 
ATOM     20  C   UNL     1       9.559  12.092  20.129  0.00  0.00    +0.000 A 
ATOM     21  C   UNL     1       9.645  11.207  19.039  0.00  0.00    +0.000 A 
ATOM     22  N   UNL     1      10.233  11.543  17.866  0.00  0.00    +0.000 NA
BRANCH  20  23
ATOM     23  C   UNL     1       8.938  11.704  21.363  0.00  0.00    +0.000 C 
ATOM     24  N   UNL     1       8.435  11.450  22.378  0.00  0.00    +0.000 NA
ENDBRANCH  20  23
ENDBRANCH  14  21
ENDBRANCH   1  14
TORSDOF 6
ENDMDL
MODEL 6
REMARK VINA RESULT:      -6.2      5.681      7.261
REMARK  Name = 
REMARK  8 active torsions:
REMARK  status: ('A' for Active; 'I' for Inactive)
REMARK    1  A    between atoms: C_1  and  C_2
REMARK    2  A    between atoms: C_4  and  C_5
REMARK    3  A    between atoms: C_6  and  C_7
REMARK    4  A    between atoms: C_9  and  S_10
REMARK    5  A    between atoms: S_10  and  C_11
REMARK    6  A    between atoms: C_11  and  C_12
REMARK    7  A    between atoms: N_14  and  C_15
REMARK    8  A    between atoms: C_20  and  C_21
REMARK                            x       y       z     vdW  Elec       q    Type
REMARK                         _______ _______ _______ _____ _____    ______ ____
ROOT
ATOM      1  C   UNL     1       7.629   8.649  17.525  0.00  0.00    +0.000 C 
ENDROOT
BRANCH   1   2
ATOM      2  C   UNL     1       8.580   9.540  18.351  0.00  0.00    +0.000 C 
ATOM      3  O   UNL     1       9.051   9.201  19.437  0.00  0.00    +0.000 OA
ATOM      4  N   UNL     1       8.855  10.785  17.788  0.00  0.00    +0.000 N 
ATOM      5  H   UNL     1       8.138  11.166  17.180  0.00  0.00    +0.000 HD
BRANCH   4   6
ATOM      6  C   UNL     1       9.720  11.702  18.456  0.00  0.00    +0.000 A 
ATOM      7  C   UNL     1      10.891  11.239  19.078  0.00  0.00    +0.000 A 
ATOM      8  C   UNL     1      11.756  12.125  19.727  0.00  0.00    +0.000 A 
ATOM      9  C   UNL     1      11.461  13.483  19.772  0.00  0.00    +0.000 A 
ATOM     10  C   UNL     1      10.295  13.957  19.173  0.00  0.00    +0.000 A 
ATOM     11  C   UNL     1       9.427  13.073  18.512  0.00  0.00    +0.000 A 
BRANCH  11  12
ATOM     12  C   UNL     1       8.187  13.581  18.017  0.00  0.00    +0.000 C 
ATOM     13  N   UNL     1       7.166  13.958  17.602  0.00  0.00    +0.000 NA
ENDBRANCH  11  12
ENDBRANCH   4   6
ENDBRANCH   1   2
BRANCH   1  14
ATOM     14  S   UNL     1       7.791   6.938  18.154  0.00  0.00    +0.000 S 
BRANCH  14  21
ATOM     15  C   UNL     1       7.368   4.876  13.446  0.00  0.00    +0.000 C 
ATOM     16  C   UNL     1       6.812   4.981  14.838  0.00  0.00    +0.000 A 
ATOM     17  C   UNL     1       5.659   4.270  15.172  0.00  0.00    +0.000 A 
ATOM     18  C   UNL     1       5.137   4.374  16.461  0.00  0.00    +0.000 A 
ATOM     19  C   UNL     1       3.896   3.613  16.838  0.00  0.00    +0.000 C 
ATOM     20  C   UNL     1       5.801   5.201  17.383  0.00  0.00    +0.000 A 
ATOM     21  C   UNL     1       6.961   5.884  16.974  0.00  0.00    +0.000 A 
ATOM     22  N   UNL     1       7.469   5.784  15.722  0.00  0.00    +0.000 NA
BRANCH  20  23
ATOM     23  C   UNL     1       5.282   5.333  18.713  0.00  0.00    +0.000 C 
ATOM     24  N   UNL     1       4.812   5.408  19.772  0.00  0.00    +0.000 NA
ENDBRANCH  20  23
ENDBRANCH  14  21
ENDBRANCH   1  14
TORSDOF 6
ENDMDL
MODEL 7
REMARK VINA RESULT:      -6.1      3.342      7.041
REMARK  Name = 
REMARK  8 active torsions:
REMARK  status: ('A' for Active; 'I' for Inactive)
REMARK    1  A    between atoms: C_1  and  C_2
REMARK    2  A    between atoms: C_4  and  C_5
REMARK    3  A    between atoms: C_6  and  C_7
REMARK    4  A    between atoms: C_9  and  S_10
REMARK    5  A    between atoms: S_10  and  C_11
REMARK    6  A    between atoms: C_11  and  C_12
REMARK    7  A    between atoms: N_14  and  C_15
REMARK    8  A    between atoms: C_20  and  C_21
REMARK                            x       y       z     vdW  Elec       q    Type
REMARK                         _______ _______ _______ _____ _____    ______ ____
ROOT
ATOM      1  C   UNL     1       6.781   6.353  17.393  0.00  0.00    +0.000 C 
ENDROOT
BRANCH   1   2
ATOM      2  C   UNL     1       6.318   5.956  15.976  0.00  0.00    +0.000 C 
ATOM      3  O   UNL     1       5.396   6.517  15.384  0.00  0.00    +0.000 OA
ATOM      4  N   UNL     1       7.009   4.885  15.411  0.00  0.00    +0.000 N 
ATOM      5  H   UNL     1       7.407   4.218  16.064  0.00  0.00    +0.000 HD
BRANCH   4   6
ATOM      6  C   UNL     1       6.675   4.421  14.104  0.00  0.00    +0.000 A 
ATOM      7  C   UNL     1       5.610   3.522  13.928  0.00  0.00    +0.000 A 
ATOM      8  C   UNL     1       5.262   3.065  12.653  0.00  0.00    +0.000 A 
ATOM      9  C   UNL     1       5.976   3.492  11.538  0.00  0.00    +0.000 A 
ATOM     10  C   UNL     1       7.045   4.371  11.697  0.00  0.00    +0.000 A 
ATOM     11  C   UNL     1       7.394   4.840  12.975  0.00  0.00    +0.000 A 
BRANCH  11  12
ATOM     12  C   UNL     1       8.568   5.644  13.106  0.00  0.00    +0.000 C 
ATOM     13  N   UNL     1       9.503   6.331  13.203  0.00  0.00    +0.000 NA
ENDBRANCH  11  12
ENDBRANCH   4   6
ENDBRANCH   1   2
BRANCH   1  14
ATOM     14  S   UNL     1       6.248   5.028  18.538  0.00  0.00    +0.000 S 
BRANCH  14  21
ATOM     15  C   UNL     1       2.108   8.103  18.515  0.00  0.00    +0.000 C 
ATOM     16  C   UNL     1       2.694   6.770  18.885  0.00  0.00    +0.000 A 
ATOM     17  C   UNL     1       1.895   5.824  19.526  0.00  0.00    +0.000 A 
ATOM     18  C   UNL     1       2.441   4.589  19.879  0.00  0.00    +0.000 A 
ATOM     19  C   UNL     1       1.593   3.556  20.569  0.00  0.00    +0.000 C 
ATOM     20  C   UNL     1       3.790   4.346  19.570  0.00  0.00    +0.000 A 
ATOM     21  C   UNL     1       4.532   5.348  18.918  0.00  0.00    +0.000 A 
ATOM     22  N   UNL     1       4.004   6.547  18.576  0.00  0.00    +0.000 NA
BRANCH  20  23
ATOM     23  C   UNL     1       4.380   3.089  19.928  0.00  0.00    +0.000 C 
ATOM     24  N   UNL     1       4.810   2.042  20.190  0.00  0.00    +0.000 NA
ENDBRANCH  20  23
ENDBRANCH  14  21
ENDBRANCH   1  14
TORSDOF 6
ENDMDL
MODEL 8
REMARK VINA RESULT:      -6.0      3.272      4.455
REMARK  Name = 
REMARK  8 active torsions:
REMARK  status: ('A' for Active; 'I' for Inactive)
REMARK    1  A    between atoms: C_1  and  C_2
REMARK    2  A    between atoms: C_4  and  C_5
REMARK    3  A    between atoms: C_6  and  C_7
REMARK    4  A    between atoms: C_9  and  S_10
REMARK    5  A    between atoms: S_10  and  C_11
REMARK    6  A    between atoms: C_11  and  C_12
REMARK    7  A    between atoms: N_14  and  C_15
REMARK    8  A    between atoms: C_20  and  C_21
REMARK                            x       y       z     vdW  Elec       q    Type
REMARK                         _______ _______ _______ _____ _____    ______ ____
ROOT
ATOM      1  C   UNL     1       1.858   8.477  18.075  0.00  0.00    +0.000 C 
ENDROOT
BRANCH   1   2
ATOM      2  C   UNL     1       1.130   9.561  18.897  0.00  0.00    +0.000 C 
ATOM      3  O   UNL     1       1.037   9.530  20.124  0.00  0.00    +0.000 OA
ATOM      4  N   UNL     1       0.554  10.582  18.142  0.00  0.00    +0.000 N 
ATOM      5  H   UNL     1       0.281  10.337  17.197  0.00  0.00    +0.000 HD
BRANCH   4   6
ATOM      6  C   UNL     1      -0.148  11.644  18.785  0.00  0.00    +0.000 A 
ATOM      7  C   UNL     1      -1.505  11.492  19.116  0.00  0.00    +0.000 A 
ATOM      8  C   UNL     1      -2.206  12.519  19.756  0.00  0.00    +0.000 A 
ATOM      9  C   UNL     1      -1.566  13.714  20.067  0.00  0.00    +0.000 A 
ATOM     10  C   UNL     1      -0.224  13.887  19.731  0.00  0.00    +0.000 A 
ATOM     11  C   UNL     1       0.487  12.856  19.096  0.00  0.00    +0.000 A 
BRANCH  11  12
ATOM     12  C   UNL     1       1.823  13.119  18.664  0.00  0.00    +0.000 C 
ATOM     13  N   UNL     1       2.903  13.319  18.275  0.00  0.00    +0.000 NA
ENDBRANCH  11  12
ENDBRANCH   4   6
ENDBRANCH   1   2
BRANCH   1  14
ATOM     14  S   UNL     1       2.454   7.204  19.247  0.00  0.00    +0.000 S 
BRANCH  14  21
ATOM     15  C   UNL     1       5.726   5.548  15.622  0.00  0.00    +0.000 C 
ATOM     16  C   UNL     1       4.656   5.199  16.616  0.00  0.00    +0.000 A 
ATOM     17  C   UNL     1       4.233   3.875  16.734  0.00  0.00    +0.000 A 
ATOM     18  C   UNL     1       3.233   3.553  17.651  0.00  0.00    +0.000 A 
ATOM     19  C   UNL     1       2.766   2.129  17.793  0.00  0.00    +0.000 C 
ATOM     20  C   UNL     1       2.684   4.587  18.429  0.00  0.00    +0.000 A 
ATOM     21  C   UNL     1       3.164   5.898  18.257  0.00  0.00    +0.000 A 
ATOM     22  N   UNL     1       4.136   6.213  17.366  0.00  0.00    +0.000 NA
BRANCH  20  23
ATOM     23  C   UNL     1       1.649   4.285  19.374  0.00  0.00    +0.000 C 
ATOM     24  N   UNL     1       0.854   4.029  20.181  0.00  0.00    +0.000 NA
ENDBRANCH  20  23
ENDBRANCH  14  21
ENDBRANCH   1  14
TORSDOF 6
ENDMDL
MODEL 9
REMARK VINA RESULT:      -6.0      5.252      9.162
REMARK  Name = 
REMARK  8 active torsions:
REMARK  status: ('A' for Active; 'I' for Inactive)
REMARK    1  A    between atoms: C_1  and  C_2
REMARK    2  A    between atoms: C_4  and  C_5
REMARK    3  A    between atoms: C_6  and  C_7
REMARK    4  A    between atoms: C_9  and  S_10
REMARK    5  A    between atoms: S_10  and  C_11
REMARK    6  A    between atoms: C_11  and  C_12
REMARK    7  A    between atoms: N_14  and  C_15
REMARK    8  A    between atoms: C_20  and  C_21
REMARK                            x       y       z     vdW  Elec       q    Type
REMARK                         _______ _______ _______ _____ _____    ______ ____
ROOT
ATOM      1  C   UNL     1      -0.477  13.122  19.244  0.00  0.00    +0.000 C 
ENDROOT
BRANCH   1   2
ATOM      2  C   UNL     1       0.549  11.972  19.315  0.00  0.00    +0.000 C 
ATOM      3  O   UNL     1       1.745  12.146  19.548  0.00  0.00    +0.000 OA
ATOM      4  N   UNL     1       0.026  10.703  19.068  0.00  0.00    +0.000 N 
ATOM      5  H   UNL     1      -0.795  10.668  18.474  0.00  0.00    +0.000 HD
BRANCH   4   6
ATOM      6  C   UNL     1       0.873   9.556  19.104  0.00  0.00    +0.000 A 
ATOM      7  C   UNL     1       1.561   9.153  17.947  0.00  0.00    +0.000 A 
ATOM      8  C   UNL     1       2.403   8.037  17.967  0.00  0.00    +0.000 A 
ATOM      9  C   UNL     1       2.565   7.304  19.137  0.00  0.00    +0.000 A 
ATOM     10  C   UNL     1       1.877   7.680  20.289  0.00  0.00    +0.000 A 
ATOM     11  C   UNL     1       1.036   8.805  20.277  0.00  0.00    +0.000 A 
BRANCH  11  12
ATOM     12  C   UNL     1       0.260   9.085  21.444  0.00  0.00    +0.000 C 
ATOM     13  N   UNL     1      -0.365   9.276  22.409  0.00  0.00    +0.000 NA
ENDBRANCH  11  12
ENDBRANCH   4   6
ENDBRANCH   1   2
BRANCH   1  14
ATOM     14  S   UNL     1      -1.998  12.558  20.091  0.00  0.00    +0.000 S 
BRANCH  14  21
ATOM     15  C   UNL     1      -2.910  10.735  15.354  0.00  0.00    +0.000 C 
ATOM     16  C   UNL     1      -3.480  11.194  16.666  0.00  0.00    +0.000 A 
ATOM     17  C   UNL     1      -4.862  11.199  16.849  0.00  0.00    +0.000 A 
ATOM     18  C   UNL     1      -5.392  11.634  18.064  0.00  0.00    +0.000 A 
ATOM     19  C   UNL     1      -6.881  11.645  18.279  0.00  0.00    +0.000 C 
ATOM     20  C   UNL     1      -4.501  12.053  19.067  0.00  0.00    +0.000 A 
ATOM     21  C   UNL     1      -3.119  12.015  18.810  0.00  0.00    +0.000 A 
ATOM     22  N   UNL     1      -2.602  11.594  17.630  0.00  0.00    +0.000 NA
BRANCH  20  23
ATOM     23  C   UNL     1      -5.019  12.512  20.323  0.00  0.00    +0.000 C 
ATOM     24  N   UNL     1      -5.383  12.876  21.364  0.00  0.00    +0.000 NA
ENDBRANCH  20  23
ENDBRANCH  14  21
ENDBRANCH   1  14
TORSDOF 6
ENDMDL
