MODEL 1
REMARK VINA RESULT:      -7.4      0.000      0.000
REMARK  Name = 
REMARK  7 active torsions:
REMARK  status: ('A' for Active; 'I' for Inactive)
REMARK    1  A    between atoms: C_1  and  C_2
REMARK    2  A    between atoms: C_4  and  C_5
REMARK    3  A    between atoms: C_5  and  C_7
REMARK    4  A    between atoms: C_7  and  S_8
REMARK    5  A    between atoms: S_8  and  C_9
REMARK    6  A    between atoms: C_17  and  C_18
REMARK    7  A    between atoms: C_19  and  O_20
REMARK                            x       y       z     vdW  Elec       q    Type
REMARK                         _______ _______ _______ _____ _____    ______ ____
ROOT
ATOM      1  C   UNL     1       3.977   3.283  19.114  0.00  0.00    +0.000 C 
ATOM      2  O   UNL     1       4.389   2.280  19.694  0.00  0.00    +0.000 OA
ENDROOT
BRANCH   1   6
ATOM      3  C   UNL     1       7.814   6.530  18.520  0.00  0.00    +0.000 C 
ATOM      4  C   UNL     1       6.788   5.590  17.948  0.00  0.00    +0.000 A 
ATOM      5  C   UNL     1       5.916   4.891  18.799  0.00  0.00    +0.000 A 
ATOM      6  C   UNL     1       4.950   4.033  18.264  0.00  0.00    +0.000 A 
ATOM      7  C   UNL     1       4.856   3.881  16.871  0.00  0.00    +0.000 A 
ATOM      8  C   UNL     1       5.724   4.560  16.002  0.00  0.00    +0.000 A 
ATOM      9  C   UNL     1       5.582   4.358  14.520  0.00  0.00    +0.000 C 
ATOM     10  C   UNL     1       6.687   5.412  16.560  0.00  0.00    +0.000 A 
BRANCH  10  11
ATOM     11  O   UNL     1       7.566   6.112  15.779  0.00  0.00    +0.000 OA
ATOM     12  H   UNL     1       8.014   5.510  15.166  0.00  0.00    +0.000 HD
ENDBRANCH  10  11
ENDBRANCH   1   6
BRANCH   1  13
ATOM     13  C   UNL     1       2.558   3.832  19.242  0.00  0.00    +0.000 C 
BRANCH  13  14
ATOM     14  S   UNL     1       2.475   5.124  20.537  0.00  0.00    +0.000 S 
BRANCH  14  15
ATOM     15  C   UNL     1       2.288   6.660  19.645  0.00  0.00    +0.000 A 
ATOM     16  C   UNL     1       2.756   6.908  18.351  0.00  0.00    +0.000 A 
ATOM     17  C   UNL     1       2.556   8.160  17.755  0.00  0.00    +0.000 A 
ATOM     18  C   UNL     1       1.891   9.163  18.450  0.00  0.00    +0.000 A 
ATOM     19  F   UNL     1       1.707  10.357  17.874  0.00  0.00    +0.000 F 
ATOM     20  C   UNL     1       1.418   8.939  19.733  0.00  0.00    +0.000 A 
ATOM     21  C   UNL     1       1.617   7.691  20.327  0.00  0.00    +0.000 A 
ENDBRANCH  14  15
ENDBRANCH  13  14
ENDBRANCH   1  13
TORSDOF 5
ENDMDL
MODEL 2
REMARK VINA RESULT:      -7.4      0.212      1.096
REMARK  Name = 
REMARK  7 active torsions:
REMARK  status: ('A' for Active; 'I' for Inactive)
REMARK    1  A    between atoms: C_1  and  C_2
REMARK    2  A    between atoms: C_4  and  C_5
REMARK    3  A    between atoms: C_5  and  C_7
REMARK    4  A    between atoms: C_7  and  S_8
REMARK    5  A    between atoms: S_8  and  C_9
REMARK    6  A    between atoms: C_17  and  C_18
REMARK    7  A    between atoms: C_19  and  O_20
REMARK                            x       y       z     vdW  Elec       q    Type
REMARK                         _______ _______ _______ _____ _____    ______ ____
ROOT
ATOM      1  C   UNL     1       3.770   3.175  18.898  0.00  0.00    +0.000 C 
ATOM      2  O   UNL     1       4.103   2.093  19.378  0.00  0.00    +0.000 OA
ENDROOT
BRANCH   1   6
ATOM      3  C   UNL     1       7.716   6.328  18.576  0.00  0.00    +0.000 C 
ATOM      4  C   UNL     1       6.689   5.439  17.930  0.00  0.00    +0.000 A 
ATOM      5  C   UNL     1       5.764   4.736  18.719  0.00  0.00    +0.000 A 
ATOM      6  C   UNL     1       4.798   3.925  18.115  0.00  0.00    +0.000 A 
ATOM      7  C   UNL     1       4.757   3.824  16.715  0.00  0.00    +0.000 A 
ATOM      8  C   UNL     1       5.679   4.508  15.907  0.00  0.00    +0.000 A 
ATOM      9  C   UNL     1       5.593   4.361  14.414  0.00  0.00    +0.000 C 
ATOM     10  C   UNL     1       6.641   5.311  16.533  0.00  0.00    +0.000 A 
BRANCH  10  11
ATOM     11  O   UNL     1       7.570   6.012  15.814  0.00  0.00    +0.000 OA
ATOM     12  H   UNL     1       7.202   6.867  15.544  0.00  0.00    +0.000 HD
ENDBRANCH  10  11
ENDBRANCH   1   6
BRANCH   1  13
ATOM     13  C   UNL     1       2.397   3.816  19.088  0.00  0.00    +0.000 C 
BRANCH  13  14
ATOM     14  S   UNL     1       2.416   4.989  20.494  0.00  0.00    +0.000 S 
BRANCH  14  15
ATOM     15  C   UNL     1       2.190   6.599  19.755  0.00  0.00    +0.000 A 
ATOM     16  C   UNL     1       1.627   7.711  20.389  0.00  0.00    +0.000 A 
ATOM     17  C   UNL     1       1.494   8.925  19.703  0.00  0.00    +0.000 A 
ATOM     18  C   UNL     1       1.920   9.028  18.385  0.00  0.00    +0.000 A 
ATOM     19  F   UNL     1       1.787  10.191  17.736  0.00  0.00    +0.000 F 
ATOM     20  C   UNL     1       2.482   7.940  17.736  0.00  0.00    +0.000 A 
ATOM     21  C   UNL     1       2.616   6.731  18.421  0.00  0.00    +0.000 A 
ENDBRANCH  14  15
ENDBRANCH  13  14
ENDBRANCH   1  13
TORSDOF 5
ENDMDL
MODEL 3
REMARK VINA RESULT:      -7.4      1.356      1.765
REMARK  Name = 
REMARK  7 active torsions:
REMARK  status: ('A' for Active; 'I' for Inactive)
REMARK    1  A    between atoms: C_1  and  C_2
REMARK    2  A    between atoms: C_4  and  C_5
REMARK    3  A    between atoms: C_5  and  C_7
REMARK    4  A    between atoms: C_7  and  S_8
REMARK    5  A    between atoms: S_8  and  C_9
REMARK    6  A    between atoms: C_17  and  C_18
REMARK    7  A    between atoms: C_19  and  O_20
REMARK                            x       y       z     vdW  Elec       q    Type
REMARK                         _______ _______ _______ _____ _____    ______ ____
ROOT
ATOM      1  C   UNL     1       4.340   2.671  18.960  0.00  0.00    +0.000 C 
ATOM      2  O   UNL     1       4.552   2.571  20.168  0.00  0.00    +0.000 OA
ENDROOT
BRANCH   1   6
ATOM      3  C   UNL     1       7.795   6.359  18.685  0.00  0.00    +0.000 C 
ATOM      4  C   UNL     1       6.854   5.389  18.025  0.00  0.00    +0.000 A 
ATOM      5  C   UNL     1       6.089   4.504  18.802  0.00  0.00    +0.000 A 
ATOM      6  C   UNL     1       5.200   3.617  18.188  0.00  0.00    +0.000 A 
ATOM      7  C   UNL     1       5.075   3.622  16.789  0.00  0.00    +0.000 A 
ATOM      8  C   UNL     1       5.837   4.490  15.991  0.00  0.00    +0.000 A 
ATOM      9  C   UNL     1       5.667   4.451  14.499  0.00  0.00    +0.000 C 
ATOM     10  C   UNL     1       6.724   5.367  16.628  0.00  0.00    +0.000 A 
BRANCH  10  11
ATOM     11  O   UNL     1       7.498   6.246  15.919  0.00  0.00    +0.000 OA
ATOM     12  H   UNL     1       7.033   7.090  15.822  0.00  0.00    +0.000 HD
ENDBRANCH  10  11
ENDBRANCH   1   6
BRANCH   1  13
ATOM     13  C   UNL     1       3.232   1.930  18.216  0.00  0.00    +0.000 C 
BRANCH  13  14
ATOM     14  S   UNL     1       1.584   2.550  18.717  0.00  0.00    +0.000 S 
BRANCH  14  15
ATOM     15  C   UNL     1       1.809   4.303  18.974  0.00  0.00    +0.000 A 
ATOM     16  C   UNL     1       2.111   5.237  17.978  0.00  0.00    +0.000 A 
ATOM     17  C   UNL     1       2.273   6.590  18.302  0.00  0.00    +0.000 A 
ATOM     18  C   UNL     1       2.134   7.010  19.618  0.00  0.00    +0.000 A 
ATOM     19  F   UNL     1       2.292   8.305  19.920  0.00  0.00    +0.000 F 
ATOM     20  C   UNL     1       1.834   6.103  20.622  0.00  0.00    +0.000 A 
ATOM     21  C   UNL     1       1.672   4.755  20.299  0.00  0.00    +0.000 A 
ENDBRANCH  14  15
ENDBRANCH  13  14
ENDBRANCH   1  13
TORSDOF 5
ENDMDL
MODEL 4
REMARK VINA RESULT:      -7.3      1.418      2.651
REMARK  Name = 
REMARK  7 active torsions:
REMARK  status: ('A' for Active; 'I' for Inactive)
REMARK    1  A    between atoms: C_1  and  C_2
REMARK    2  A    between atoms: C_4  and  C_5
REMARK    3  A    between atoms: C_5  and  C_7
REMARK    4  A    between atoms: C_7  and  S_8
REMARK    5  A    between atoms: S_8  and  C_9
REMARK    6  A    between atoms: C_17  and  C_18
REMARK    7  A    between atoms: C_19  and  O_20
REMARK                            x       y       z     vdW  Elec       q    Type
REMARK                         _______ _______ _______ _____ _____    ______ ____
ROOT
ATOM      1  C   UNL     1       4.113   2.590  18.641  0.00  0.00    +0.000 C 
ATOM      2  O   UNL     1       4.384   2.400  19.826  0.00  0.00    +0.000 OA
ENDROOT
BRANCH   1   6
ATOM      3  C   UNL     1       5.897   4.498  14.307  0.00  0.00    +0.000 C 
ATOM      4  C   UNL     1       5.875   4.449  15.809  0.00  0.00    +0.000 A 
ATOM      5  C   UNL     1       5.002   3.575  16.478  0.00  0.00    +0.000 A 
ATOM      6  C   UNL     1       4.997   3.518  17.875  0.00  0.00    +0.000 A 
ATOM      7  C   UNL     1       5.875   4.337  18.603  0.00  0.00    +0.000 A 
ATOM      8  C   UNL     1       6.747   5.227  17.957  0.00  0.00    +0.000 A 
ATOM      9  C   UNL     1       7.663   6.084  18.786  0.00  0.00    +0.000 C 
ATOM     10  C   UNL     1       6.733   5.271  16.557  0.00  0.00    +0.000 A 
BRANCH  10  11
ATOM     11  O   UNL     1       7.557   6.109  15.856  0.00  0.00    +0.000 OA
ATOM     12  H   UNL     1       7.788   5.707  15.005  0.00  0.00    +0.000 HD
ENDBRANCH  10  11
ENDBRANCH   1   6
BRANCH   1  13
ATOM     13  C   UNL     1       2.912   1.978  17.923  0.00  0.00    +0.000 C 
BRANCH  13  14
ATOM     14  S   UNL     1       1.343   2.589  18.643  0.00  0.00    +0.000 S 
BRANCH  14  15
ATOM     15  C   UNL     1       1.636   4.316  18.991  0.00  0.00    +0.000 A 
ATOM     16  C   UNL     1       2.031   5.276  18.054  0.00  0.00    +0.000 A 
ATOM     17  C   UNL     1       2.239   6.604  18.448  0.00  0.00    +0.000 A 
ATOM     18  C   UNL     1       2.053   6.973  19.774  0.00  0.00    +0.000 A 
ATOM     19  F   UNL     1       2.256   8.244  20.142  0.00  0.00    +0.000 F 
ATOM     20  C   UNL     1       1.661   6.039  20.720  0.00  0.00    +0.000 A 
ATOM     21  C   UNL     1       1.453   4.715  20.327  0.00  0.00    +0.000 A 
ENDBRANCH  14  15
ENDBRANCH  13  14
ENDBRANCH   1  13
TORSDOF 5
ENDMDL
MODEL 5
REMARK VINA RESULT:      -7.3      1.404      2.831
REMARK  Name = 
REMARK  7 active torsions:
REMARK  status: ('A' for Active; 'I' for Inactive)
REMARK    1  A    between atoms: C_1  and  C_2
REMARK    2  A    between atoms: C_4  and  C_5
REMARK    3  A    between atoms: C_5  and  C_7
REMARK    4  A    between atoms: C_7  and  S_8
REMARK    5  A    between atoms: S_8  and  C_9
REMARK    6  A    between atoms: C_17  and  C_18
REMARK    7  A    between atoms: C_19  and  O_20
REMARK                            x       y       z     vdW  Elec       q    Type
REMARK                         _______ _______ _______ _____ _____    ______ ____
ROOT
ATOM      1  C   UNL     1       4.350   2.639  18.919  0.00  0.00    +0.000 C 
ATOM      2  O   UNL     1       4.589   2.575  20.124  0.00  0.00    +0.000 OA
ENDROOT
BRANCH   1   6
ATOM      3  C   UNL     1       5.776   4.663  14.505  0.00  0.00    +0.000 C 
ATOM      4  C   UNL     1       5.862   4.590  16.004  0.00  0.00    +0.000 A 
ATOM      5  C   UNL     1       5.060   3.683  16.716  0.00  0.00    +0.000 A 
ATOM      6  C   UNL     1       5.155   3.602  18.109  0.00  0.00    +0.000 A 
ATOM      7  C   UNL     1       6.062   4.431  18.788  0.00  0.00    +0.000 A 
ATOM      8  C   UNL     1       6.865   5.354  18.099  0.00  0.00    +0.000 A 
ATOM      9  C   UNL     1       7.815   6.220  18.877  0.00  0.00    +0.000 C 
ATOM     10  C   UNL     1       6.750   5.421  16.705  0.00  0.00    +0.000 A 
BRANCH  10  11
ATOM     11  O   UNL     1       7.502   6.290  15.963  0.00  0.00    +0.000 OA
ATOM     12  H   UNL     1       7.559   7.145  16.415  0.00  0.00    +0.000 HD
ENDBRANCH  10  11
ENDBRANCH   1   6
BRANCH   1  13
ATOM     13  C   UNL     1       3.260   1.836  18.213  0.00  0.00    +0.000 C 
BRANCH  13  14
ATOM     14  S   UNL     1       1.597   2.403  18.729  0.00  0.00    +0.000 S 
BRANCH  14  15
ATOM     15  C   UNL     1       1.801   4.132  19.125  0.00  0.00    +0.000 A 
ATOM     16  C   UNL     1       1.730   4.684  20.407  0.00  0.00    +0.000 A 
ATOM     17  C   UNL     1       1.901   6.062  20.595  0.00  0.00    +0.000 A 
ATOM     18  C   UNL     1       2.140   6.888  19.503  0.00  0.00    +0.000 A 
ATOM     19  F   UNL     1       2.299   8.203  19.691  0.00  0.00    +0.000 F 
ATOM     20  C   UNL     1       2.215   6.363  18.223  0.00  0.00    +0.000 A 
ATOM     21  C   UNL     1       2.046   4.989  18.036  0.00  0.00    +0.000 A 
ENDBRANCH  14  15
ENDBRANCH  13  14
ENDBRANCH   1  13
TORSDOF 5
ENDMDL
MODEL 6
REMARK VINA RESULT:      -7.3      0.321      2.235
REMARK  Name = 
REMARK  7 active torsions:
REMARK  status: ('A' for Active; 'I' for Inactive)
REMARK    1  A    between atoms: C_1  and  C_2
REMARK    2  A    between atoms: C_4  and  C_5
REMARK    3  A    between atoms: C_5  and  C_7
REMARK    4  A    between atoms: C_7  and  S_8
REMARK    5  A    between atoms: S_8  and  C_9
REMARK    6  A    between atoms: C_17  and  C_18
REMARK    7  A    between atoms: C_19  and  O_20
REMARK                            x       y       z     vdW  Elec       q    Type
REMARK                         _______ _______ _______ _____ _____    ______ ____
ROOT
ATOM      1  C   UNL     1       3.653   3.186  18.769  0.00  0.00    +0.000 C 
ATOM      2  O   UNL     1       3.942   2.070  19.199  0.00  0.00    +0.000 OA
ENDROOT
BRANCH   1   6
ATOM      3  C   UNL     1       5.796   4.278  14.316  0.00  0.00    +0.000 C 
ATOM      4  C   UNL     1       5.727   4.424  15.811  0.00  0.00    +0.000 A 
ATOM      5  C   UNL     1       4.726   3.764  16.542  0.00  0.00    +0.000 A 
ATOM      6  C   UNL     1       4.676   3.885  17.934  0.00  0.00    +0.000 A 
ATOM      7  C   UNL     1       5.637   4.667  18.594  0.00  0.00    +0.000 A 
ATOM      8  C   UNL     1       6.639   5.346  17.884  0.00  0.00    +0.000 A 
ATOM      9  C   UNL     1       7.640   6.173  18.640  0.00  0.00    +0.000 C 
ATOM     10  C   UNL     1       6.668   5.214  16.490  0.00  0.00    +0.000 A 
BRANCH  10  11
ATOM     11  O   UNL     1       7.617   5.840  15.728  0.00  0.00    +0.000 OA
ATOM     12  H   UNL     1       7.467   5.646  14.790  0.00  0.00    +0.000 HD
ENDBRANCH  10  11
ENDBRANCH   1   6
BRANCH   1  13
ATOM     13  C   UNL     1       2.346   3.915  19.070  0.00  0.00    +0.000 C 
BRANCH  13  14
ATOM     14  S   UNL     1       2.554   5.072  20.473  0.00  0.00    +0.000 S 
BRANCH  14  15
ATOM     15  C   UNL     1       2.210   6.688  19.794  0.00  0.00    +0.000 A 
ATOM     16  C   UNL     1       1.598   7.742  20.479  0.00  0.00    +0.000 A 
ATOM     17  C   UNL     1       1.373   8.966  19.837  0.00  0.00    +0.000 A 
ATOM     18  C   UNL     1       1.758   9.138  18.514  0.00  0.00    +0.000 A 
ATOM     19  F   UNL     1       1.537  10.311  17.907  0.00  0.00    +0.000 F 
ATOM     20  C   UNL     1       2.367   8.108  17.815  0.00  0.00    +0.000 A 
ATOM     21  C   UNL     1       2.592   6.887  18.455  0.00  0.00    +0.000 A 
ENDBRANCH  14  15
ENDBRANCH  13  14
ENDBRANCH   1  13
TORSDOF 5
ENDMDL
MODEL 7
REMARK VINA RESULT:      -7.2      1.402      2.056
REMARK  Name = 
REMARK  7 active torsions:
REMARK  status: ('A' for Active; 'I' for Inactive)
REMARK    1  A    between atoms: C_1  and  C_2
REMARK    2  A    between atoms: C_4  and  C_5
REMARK    3  A    between atoms: C_5  and  C_7
REMARK    4  A    between atoms: C_7  and  S_8
REMARK    5  A    between atoms: S_8  and  C_9
REMARK    6  A    between atoms: C_17  and  C_18
REMARK    7  A    between atoms: C_19  and  O_20
REMARK                            x       y       z     vdW  Elec       q    Type
REMARK                         _______ _______ _______ _____ _____    ______ ____
ROOT
ATOM      1  C   UNL     1       4.109   2.625  18.613  0.00  0.00    +0.000 C 
ATOM      2  O   UNL     1       4.337   2.357  19.792  0.00  0.00    +0.000 OA
ENDROOT
BRANCH   1   6
ATOM      3  C   UNL     1       7.655   6.236  18.689  0.00  0.00    +0.000 C 
ATOM      4  C   UNL     1       6.744   5.305  17.937  0.00  0.00    +0.000 A 
ATOM      5  C   UNL     1       5.905   4.419  18.632  0.00  0.00    +0.000 A 
ATOM      6  C   UNL     1       5.045   3.569  17.931  0.00  0.00    +0.000 A 
ATOM      7  C   UNL     1       5.023   3.612  16.527  0.00  0.00    +0.000 A 
ATOM      8  C   UNL     1       5.861   4.480  15.811  0.00  0.00    +0.000 A 
ATOM      9  C   UNL     1       5.800   4.482  14.309  0.00  0.00    +0.000 C 
ATOM     10  C   UNL     1       6.718   5.320  16.533  0.00  0.00    +0.000 A 
BRANCH  10  11
ATOM     11  O   UNL     1       7.561   6.197  15.907  0.00  0.00    +0.000 OA
ATOM     12  H   UNL     1       7.078   7.000  15.659  0.00  0.00    +0.000 HD
ENDBRANCH  10  11
ENDBRANCH   1   6
BRANCH   1  13
ATOM     13  C   UNL     1       2.915   2.095  17.823  0.00  0.00    +0.000 C 
BRANCH  13  14
ATOM     14  S   UNL     1       1.340   2.607  18.603  0.00  0.00    +0.000 S 
BRANCH  14  15
ATOM     15  C   UNL     1       1.615   4.289  19.137  0.00  0.00    +0.000 A 
ATOM     16  C   UNL     1       1.457   4.761  20.444  0.00  0.00    +0.000 A 
ATOM     17  C   UNL     1       1.696   6.109  20.743  0.00  0.00    +0.000 A 
ATOM     18  C   UNL     1       2.091   6.984  19.739  0.00  0.00    +0.000 A 
ATOM     19  F   UNL     1       2.315   8.270  20.032  0.00  0.00    +0.000 F 
ATOM     20  C   UNL     1       2.255   6.538  18.437  0.00  0.00    +0.000 A 
ATOM     21  C   UNL     1       2.018   5.195  18.139  0.00  0.00    +0.000 A 
ENDBRANCH  14  15
ENDBRANCH  13  14
ENDBRANCH   1  13
TORSDOF 5
ENDMDL
MODEL 8
REMARK VINA RESULT:      -7.2      0.435      1.955
REMARK  Name = 
REMARK  7 active torsions:
REMARK  status: ('A' for Active; 'I' for Inactive)
REMARK    1  A    between atoms: C_1  and  C_2
REMARK    2  A    between atoms: C_4  and  C_5
REMARK    3  A    between atoms: C_5  and  C_7
REMARK    4  A    between atoms: C_7  and  S_8
REMARK    5  A    between atoms: S_8  and  C_9
REMARK    6  A    between atoms: C_17  and  C_18
REMARK    7  A    between atoms: C_19  and  O_20
REMARK                            x       y       z     vdW  Elec       q    Type
REMARK                         _______ _______ _______ _____ _____    ______ ____
ROOT
ATOM      1  C   UNL     1       3.548   3.064  18.678  0.00  0.00    +0.000 C 
ATOM      2  O   UNL     1       3.815   1.892  18.940  0.00  0.00    +0.000 OA
ENDROOT
BRANCH   1   6
ATOM      3  C   UNL     1       5.697   4.859  14.462  0.00  0.00    +0.000 C 
ATOM      4  C   UNL     1       5.645   4.736  15.960  0.00  0.00    +0.000 A 
ATOM      5  C   UNL     1       4.624   3.993  16.575  0.00  0.00    +0.000 A 
ATOM      6  C   UNL     1       4.590   3.863  17.967  0.00  0.00    +0.000 A 
ATOM      7  C   UNL     1       5.586   4.477  18.743  0.00  0.00    +0.000 A 
ATOM      8  C   UNL     1       6.609   5.235  18.151  0.00  0.00    +0.000 A 
ATOM      9  C   UNL     1       7.647   5.874  19.029  0.00  0.00    +0.000 C 
ATOM     10  C   UNL     1       6.622   5.355  16.756  0.00  0.00    +0.000 A 
BRANCH  10  11
ATOM     11  O   UNL     1       7.589   6.073  16.105  0.00  0.00    +0.000 OA
ATOM     12  H   UNL     1       8.450   5.918  16.521  0.00  0.00    +0.000 HD
ENDBRANCH  10  11
ENDBRANCH   1   6
BRANCH   1  13
ATOM     13  C   UNL     1       2.246   3.760  19.069  0.00  0.00    +0.000 C 
BRANCH  13  14
ATOM     14  S   UNL     1       2.546   5.023  20.360  0.00  0.00    +0.000 S 
BRANCH  14  15
ATOM     15  C   UNL     1       2.326   6.590  19.532  0.00  0.00    +0.000 A 
ATOM     16  C   UNL     1       2.738   6.884  18.229  0.00  0.00    +0.000 A 
ATOM     17  C   UNL     1       2.517   8.156  17.686  0.00  0.00    +0.000 A 
ATOM     18  C   UNL     1       1.885   9.134  18.445  0.00  0.00    +0.000 A 
ATOM     19  F   UNL     1       1.680  10.348  17.920  0.00  0.00    +0.000 F 
ATOM     20  C   UNL     1       1.467   8.866  19.738  0.00  0.00    +0.000 A 
ATOM     21  C   UNL     1       1.687   7.597  20.278  0.00  0.00    +0.000 A 
ENDBRANCH  14  15
ENDBRANCH  13  14
ENDBRANCH   1  13
TORSDOF 5
ENDMDL
MODEL 9
REMARK VINA RESULT:      -7.1      2.882      4.294
REMARK  Name = 
REMARK  7 active torsions:
REMARK  status: ('A' for Active; 'I' for Inactive)
REMARK    1  A    between atoms: C_1  and  C_2
REMARK    2  A    between atoms: C_4  and  C_5
REMARK    3  A    between atoms: C_5  and  C_7
REMARK    4  A    between atoms: C_7  and  S_8
REMARK    5  A    between atoms: S_8  and  C_9
REMARK    6  A    between atoms: C_17  and  C_18
REMARK    7  A    between atoms: C_19  and  O_20
REMARK                            x       y       z     vdW  Elec       q    Type
REMARK                         _______ _______ _______ _____ _____    ______ ____
ROOT
ATOM      1  C   UNL     1       3.038   6.594  18.487  0.00  0.00    +0.000 C 
ATOM      2  O   UNL     1       2.377   7.034  17.547  0.00  0.00    +0.000 OA
ENDROOT
BRANCH   1   6
ATOM      3  C   UNL     1       7.886   5.574  19.520  0.00  0.00    +0.000 C 
ATOM      4  C   UNL     1       6.678   5.449  18.633  0.00  0.00    +0.000 A 
ATOM      5  C   UNL     1       5.464   6.052  19.001  0.00  0.00    +0.000 A 
ATOM      6  C   UNL     1       4.348   5.952  18.165  0.00  0.00    +0.000 A 
ATOM      7  C   UNL     1       4.452   5.249  16.954  0.00  0.00    +0.000 A 
ATOM      8  C   UNL     1       5.652   4.628  16.571  0.00  0.00    +0.000 A 
ATOM      9  C   UNL     1       5.707   3.885  15.266  0.00  0.00    +0.000 C 
ATOM     10  C   UNL     1       6.756   4.738  17.425  0.00  0.00    +0.000 A 
BRANCH  10  11
ATOM     11  O   UNL     1       7.961   4.165  17.120  0.00  0.00    +0.000 OA
ATOM     12  H   UNL     1       8.626   4.429  17.773  0.00  0.00    +0.000 HD
ENDBRANCH  10  11
ENDBRANCH   1   6
BRANCH   1  13
ATOM     13  C   UNL     1       2.586   6.621  19.945  0.00  0.00    +0.000 C 
BRANCH  13  14
ATOM     14  S   UNL     1       1.462   5.222  20.304  0.00  0.00    +0.000 S 
BRANCH  14  15
ATOM     15  C   UNL     1       2.213   3.810  19.509  0.00  0.00    +0.000 A 
ATOM     16  C   UNL     1       1.751   3.197  18.340  0.00  0.00    +0.000 A 
ATOM     17  C   UNL     1       2.422   2.087  17.811  0.00  0.00    +0.000 A 
ATOM     18  C   UNL     1       3.551   1.589  18.448  0.00  0.00    +0.000 A 
ATOM     19  F   UNL     1       4.184   0.526  17.937  0.00  0.00    +0.000 F 
ATOM     20  C   UNL     1       4.028   2.181  19.607  0.00  0.00    +0.000 A 
ATOM     21  C   UNL     1       3.360   3.288  20.134  0.00  0.00    +0.000 A 
ENDBRANCH  14  15
ENDBRANCH  13  14
ENDBRANCH   1  13
TORSDOF 5
ENDMDL
