MODEL 1
REMARK VINA RESULT:      -8.8      0.000      0.000
REMARK  Name = 
REMARK  6 active torsions:
REMARK  status: ('A' for Active; 'I' for Inactive)
REMARK    1  A    between atoms: C_6  and  S_7
REMARK    2  A    between atoms: S_7  and  N_10
REMARK    3  A    between atoms: N_10  and  C_11
REMARK    4  A    between atoms: N_24  and  C_25
REMARK    5  A    between atoms: C_25  and  C_26
REMARK    6  A    between atoms: C_26  and  N_27
REMARK                            x       y       z     vdW  Elec       q    Type
REMARK                         _______ _______ _______ _____ _____    ______ ____
ROOT
ATOM      1  O   UNL     1       2.943   2.120  18.816  0.00  0.00    +0.000 OA
ATOM      2  C   UNL     1       2.569   3.259  19.066  0.00  0.00    +0.000 A 
ATOM      3  S   UNL     1       1.630   3.646  20.516  0.00  0.00    +0.000 S 
ATOM      4  C   UNL     1       1.749   5.384  20.195  0.00  0.00    +0.000 A 
ATOM      5  C   UNL     1       1.279   6.418  21.010  0.00  0.00    +0.000 A 
ATOM      6  C   UNL     1       1.573   7.743  20.676  0.00  0.00    +0.000 A 
ATOM      7  C   UNL     1       2.177   7.995  19.430  0.00  0.00    +0.000 A 
ATOM      8  C   UNL     1       2.607   6.937  18.588  0.00  0.00    +0.000 A 
ATOM      9  C   UNL     1       2.422   5.612  18.987  0.00  0.00    +0.000 A 
ATOM     10  N   UNL     1       2.822   4.413  18.324  0.00  0.00    +0.000 N 
ENDROOT
BRANCH   6  11
ATOM     11  S   UNL     1       0.916   9.114  21.659  0.00  0.00    +0.000 S 
ATOM     12  O   UNL     1      -0.456   8.769  21.978  0.00  0.00    +0.000 OA
ATOM     13  O   UNL     1       1.852   9.359  22.741  0.00  0.00    +0.000 OA
BRANCH  11  14
ATOM     14  N   UNL     1       0.806  10.568  20.673  0.00  0.00    +0.000 N 
ATOM     15  H   UNL     1       1.305  10.331  19.806  0.00  0.00    +0.000 HD
BRANCH  14  16
ATOM     16  C   UNL     1      -0.516  11.085  20.383  0.00  0.00    +0.000 A 
ATOM     17  C   UNL     1      -1.121  11.818  21.379  0.00  0.00    +0.000 A 
ATOM     18  C   UNL     1      -1.769  12.930  20.913  0.00  0.00    +0.000 A 
ATOM     19  C   UNL     1      -2.699  12.698  19.927  0.00  0.00    +0.000 A 
ATOM     20  C   UNL     1      -2.445  11.675  19.024  0.00  0.00    +0.000 A 
ATOM     21  C   UNL     1      -3.263  11.609  17.908  0.00  0.00    +0.000 A 
ATOM     22  C   UNL     1      -3.000  10.737  16.868  0.00  0.00    +0.000 A 
ATOM     23  C   UNL     1      -1.905   9.886  16.975  0.00  0.00    +0.000 A 
ATOM     24  C   UNL     1      -1.067   9.925  18.115  0.00  0.00    +0.000 A 
ATOM     25  C   UNL     1      -1.295  10.840  19.190  0.00  0.00    +0.000 A 
ENDBRANCH  14  16
ENDBRANCH  11  14
ENDBRANCH   6  11
BRANCH  10  26
ATOM     26  C   UNL     1       3.673   4.337  17.123  0.00  0.00    +0.000 C 
BRANCH  26  27
ATOM     27  C   UNL     1       5.094   3.720  17.368  0.00  0.00    +0.000 C 
BRANCH  27  28
ATOM     28  N   UNL     1       6.255   4.660  17.399  0.00  0.00    +0.000 NA
ATOM     29  C   UNL     1       5.965   5.936  16.714  0.00  0.00    +0.000 C 
ATOM     30  C   UNL     1       7.181   6.876  16.735  0.00  0.00    +0.000 C 
ATOM     31  C   UNL     1       7.651   7.167  18.155  0.00  0.00    +0.000 C 
ATOM     32  C   UNL     1       7.847   5.866  18.920  0.00  0.00    +0.000 C 
ATOM     33  C   UNL     1       6.621   4.950  18.808  0.00  0.00    +0.000 C 
ENDBRANCH  27  28
ENDBRANCH  26  27
ENDBRANCH  10  26
TORSDOF 6
ENDMDL
MODEL 2
REMARK VINA RESULT:      -8.8      2.267      8.501
REMARK  Name = 
REMARK  6 active torsions:
REMARK  status: ('A' for Active; 'I' for Inactive)
REMARK    1  A    between atoms: C_6  and  S_7
REMARK    2  A    between atoms: S_7  and  N_10
REMARK    3  A    between atoms: N_10  and  C_11
REMARK    4  A    between atoms: N_24  and  C_25
REMARK    5  A    between atoms: C_25  and  C_26
REMARK    6  A    between atoms: C_26  and  N_27
REMARK                            x       y       z     vdW  Elec       q    Type
REMARK                         _______ _______ _______ _____ _____    ______ ____
ROOT
ATOM      1  O   UNL     1       0.463  10.510  20.949  0.00  0.00    +0.000 OA
ATOM      2  C   UNL     1       1.034   9.497  20.568  0.00  0.00    +0.000 A 
ATOM      3  S   UNL     1       1.301   8.108  21.633  0.00  0.00    +0.000 S 
ATOM      4  C   UNL     1       1.910   7.126  20.290  0.00  0.00    +0.000 A 
ATOM      5  C   UNL     1       2.277   5.779  20.339  0.00  0.00    +0.000 A 
ATOM      6  C   UNL     1       2.612   5.114  19.156  0.00  0.00    +0.000 A 
ATOM      7  C   UNL     1       2.742   5.877  17.981  0.00  0.00    +0.000 A 
ATOM      8  C   UNL     1       2.413   7.256  17.953  0.00  0.00    +0.000 A 
ATOM      9  C   UNL     1       1.958   7.886  19.113  0.00  0.00    +0.000 A 
ATOM     10  N   UNL     1       1.528   9.236  19.290  0.00  0.00    +0.000 N 
ENDROOT
BRANCH   6  11
ATOM     11  S   UNL     1       3.171   3.392  19.187  0.00  0.00    +0.000 S 
ATOM     12  O   UNL     1       2.720   2.838  20.449  0.00  0.00    +0.000 OA
ATOM     13  O   UNL     1       2.737   2.773  17.949  0.00  0.00    +0.000 OA
BRANCH  11  14
ATOM     14  N   UNL     1       4.929   3.328  19.259  0.00  0.00    +0.000 N 
ATOM     15  H   UNL     1       5.169   2.402  18.881  0.00  0.00    +0.000 HD
BRANCH  14  16
ATOM     16  C   UNL     1       5.668   4.371  18.579  0.00  0.00    +0.000 A 
ATOM     17  C   UNL     1       6.158   5.389  19.365  0.00  0.00    +0.000 A 
ATOM     18  C   UNL     1       7.429   5.770  19.026  0.00  0.00    +0.000 A 
ATOM     19  C   UNL     1       7.603   6.123  17.709  0.00  0.00    +0.000 A 
ATOM     20  C   UNL     1       6.855   5.452  16.752  0.00  0.00    +0.000 A 
ATOM     21  C   UNL     1       7.211   5.650  15.428  0.00  0.00    +0.000 A 
ATOM     22  C   UNL     1       6.644   4.911  14.408  0.00  0.00    +0.000 A 
ATOM     23  C   UNL     1       5.667   3.974  14.729  0.00  0.00    +0.000 A 
ATOM     24  C   UNL     1       5.277   3.768  16.073  0.00  0.00    +0.000 A 
ATOM     25  C   UNL     1       5.871   4.494  17.153  0.00  0.00    +0.000 A 
ENDBRANCH  14  16
ENDBRANCH  11  14
ENDBRANCH   6  11
BRANCH  10  26
ATOM     26  C   UNL     1       1.326  10.222  18.213  0.00  0.00    +0.000 C 
BRANCH  26  27
ATOM     27  C   UNL     1       2.366  11.396  18.199  0.00  0.00    +0.000 C 
BRANCH  27  28
ATOM     28  N   UNL     1       1.954  12.686  18.829  0.00  0.00    +0.000 NA
ATOM     29  C   UNL     1       2.696  13.841  18.285  0.00  0.00    +0.000 C 
ATOM     30  C   UNL     1       2.275  15.153  18.965  0.00  0.00    +0.000 C 
ATOM     31  C   UNL     1       0.780  15.412  18.828  0.00  0.00    +0.000 C 
ATOM     32  C   UNL     1      -0.008  14.188  19.276  0.00  0.00    +0.000 C 
ATOM     33  C   UNL     1       0.503  12.907  18.605  0.00  0.00    +0.000 C 
ENDBRANCH  27  28
ENDBRANCH  26  27
ENDBRANCH  10  26
TORSDOF 6
ENDMDL
MODEL 3
REMARK VINA RESULT:      -8.7      1.588      8.735
REMARK  Name = 
REMARK  6 active torsions:
REMARK  status: ('A' for Active; 'I' for Inactive)
REMARK    1  A    between atoms: C_6  and  S_7
REMARK    2  A    between atoms: S_7  and  N_10
REMARK    3  A    between atoms: N_10  and  C_11
REMARK    4  A    between atoms: N_24  and  C_25
REMARK    5  A    between atoms: C_25  and  C_26
REMARK    6  A    between atoms: C_26  and  N_27
REMARK                            x       y       z     vdW  Elec       q    Type
REMARK                         _______ _______ _______ _____ _____    ______ ____
ROOT
ATOM      1  O   UNL     1       0.446  10.412  20.988  0.00  0.00    +0.000 OA
ATOM      2  C   UNL     1       1.015   9.406  20.585  0.00  0.00    +0.000 A 
ATOM      3  S   UNL     1       1.302   8.004  21.626  0.00  0.00    +0.000 S 
ATOM      4  C   UNL     1       1.894   7.043  20.261  0.00  0.00    +0.000 A 
ATOM      5  C   UNL     1       2.267   5.696  20.287  0.00  0.00    +0.000 A 
ATOM      6  C   UNL     1       2.587   5.048  19.090  0.00  0.00    +0.000 A 
ATOM      7  C   UNL     1       2.698   5.828  17.924  0.00  0.00    +0.000 A 
ATOM      8  C   UNL     1       2.364   7.206  17.919  0.00  0.00    +0.000 A 
ATOM      9  C   UNL     1       1.923   7.819  19.095  0.00  0.00    +0.000 A 
ATOM     10  N   UNL     1       1.492   9.164  19.296  0.00  0.00    +0.000 N 
ENDROOT
BRANCH   6  11
ATOM     11  S   UNL     1       3.152   3.328  19.090  0.00  0.00    +0.000 S 
ATOM     12  O   UNL     1       2.667   2.737  20.321  0.00  0.00    +0.000 OA
ATOM     13  O   UNL     1       2.757   2.743  17.822  0.00  0.00    +0.000 OA
BRANCH  11  14
ATOM     14  N   UNL     1       4.907   3.268  19.212  0.00  0.00    +0.000 N 
ATOM     15  H   UNL     1       5.161   2.347  18.832  0.00  0.00    +0.000 HD
BRANCH  14  16
ATOM     16  C   UNL     1       5.662   4.320  18.562  0.00  0.00    +0.000 A 
ATOM     17  C   UNL     1       6.111   5.340  19.369  0.00  0.00    +0.000 A 
ATOM     18  C   UNL     1       7.391   5.734  19.081  0.00  0.00    +0.000 A 
ATOM     19  C   UNL     1       7.614   6.092  17.772  0.00  0.00    +0.000 A 
ATOM     20  C   UNL     1       6.910   5.415  16.785  0.00  0.00    +0.000 A 
ATOM     21  C   UNL     1       7.317   5.619  15.476  0.00  0.00    +0.000 A 
ATOM     22  C   UNL     1       6.797   4.875  14.433  0.00  0.00    +0.000 A 
ATOM     23  C   UNL     1       5.818   3.929  14.714  0.00  0.00    +0.000 A 
ATOM     24  C   UNL     1       5.377   3.717  16.042  0.00  0.00    +0.000 A 
ATOM     25  C   UNL     1       5.920   4.447  17.145  0.00  0.00    +0.000 A 
ENDBRANCH  14  16
ENDBRANCH  11  14
ENDBRANCH   6  11
BRANCH  10  26
ATOM     26  C   UNL     1       1.271  10.164  18.236  0.00  0.00    +0.000 C 
BRANCH  26  27
ATOM     27  C   UNL     1       0.263  11.305  18.614  0.00  0.00    +0.000 C 
BRANCH  27  28
ATOM     28  N   UNL     1      -1.089  11.265  17.978  0.00  0.00    +0.000 NA
ATOM     29  C   UNL     1      -1.398   9.945  17.393  0.00  0.00    +0.000 C 
ATOM     30  C   UNL     1      -2.780   9.935  16.723  0.00  0.00    +0.000 C 
ATOM     31  C   UNL     1      -3.888  10.321  17.695  0.00  0.00    +0.000 C 
ATOM     32  C   UNL     1      -3.538  11.625  18.399  0.00  0.00    +0.000 C 
ATOM     33  C   UNL     1      -2.124  11.588  18.993  0.00  0.00    +0.000 C 
ENDBRANCH  27  28
ENDBRANCH  26  27
ENDBRANCH  10  26
TORSDOF 6
ENDMDL
MODEL 4
REMARK VINA RESULT:      -8.7      2.213      9.081
REMARK  Name = 
REMARK  6 active torsions:
REMARK  status: ('A' for Active; 'I' for Inactive)
REMARK    1  A    between atoms: C_6  and  S_7
REMARK    2  A    between atoms: S_7  and  N_10
REMARK    3  A    between atoms: N_10  and  C_11
REMARK    4  A    between atoms: N_24  and  C_25
REMARK    5  A    between atoms: C_25  and  C_26
REMARK    6  A    between atoms: C_26  and  N_27
REMARK                            x       y       z     vdW  Elec       q    Type
REMARK                         _______ _______ _______ _____ _____    ______ ____
ROOT
ATOM      1  O   UNL     1       1.465  10.942  18.969  0.00  0.00    +0.000 OA
ATOM      2  C   UNL     1       1.552   9.727  19.085  0.00  0.00    +0.000 A 
ATOM      3  S   UNL     1       2.127   8.694  17.767  0.00  0.00    +0.000 S 
ATOM      4  C   UNL     1       2.150   7.270  18.822  0.00  0.00    +0.000 A 
ATOM      5  C   UNL     1       2.601   5.990  18.487  0.00  0.00    +0.000 A 
ATOM      6  C   UNL     1       2.677   5.007  19.479  0.00  0.00    +0.000 A 
ATOM      7  C   UNL     1       2.122   5.294  20.740  0.00  0.00    +0.000 A 
ATOM      8  C   UNL     1       1.621   6.584  21.053  0.00  0.00    +0.000 A 
ATOM      9  C   UNL     1       1.665   7.598  20.095  0.00  0.00    +0.000 A 
ATOM     10  N   UNL     1       1.268   8.964  20.217  0.00  0.00    +0.000 N 
ENDROOT
BRANCH   6  11
ATOM     11  S   UNL     1       3.178   3.316  19.070  0.00  0.00    +0.000 S 
ATOM     12  O   UNL     1       2.744   2.482  20.174  0.00  0.00    +0.000 OA
ATOM     13  O   UNL     1       2.689   3.031  17.734  0.00  0.00    +0.000 OA
BRANCH  11  14
ATOM     14  N   UNL     1       4.934   3.191  19.063  0.00  0.00    +0.000 N 
ATOM     15  H   UNL     1       5.127   2.295  18.596  0.00  0.00    +0.000 HD
BRANCH  14  16
ATOM     16  C   UNL     1       5.682   4.267  18.445  0.00  0.00    +0.000 A 
ATOM     17  C   UNL     1       6.099   5.280  19.276  0.00  0.00    +0.000 A 
ATOM     18  C   UNL     1       7.377   5.701  19.017  0.00  0.00    +0.000 A 
ATOM     19  C   UNL     1       7.616   6.085  17.719  0.00  0.00    +0.000 A 
ATOM     20  C   UNL     1       6.940   5.414  16.709  0.00  0.00    +0.000 A 
ATOM     21  C   UNL     1       7.365   5.648  15.410  0.00  0.00    +0.000 A 
ATOM     22  C   UNL     1       6.876   4.915  14.346  0.00  0.00    +0.000 A 
ATOM     23  C   UNL     1       5.909   3.947  14.594  0.00  0.00    +0.000 A 
ATOM     24  C   UNL     1       5.449   3.704  15.910  0.00  0.00    +0.000 A 
ATOM     25  C   UNL     1       5.961   4.424  17.035  0.00  0.00    +0.000 A 
ENDBRANCH  14  16
ENDBRANCH  11  14
ENDBRANCH   6  11
BRANCH  10  26
ATOM     26  C   UNL     1       0.866   9.634  21.467  0.00  0.00    +0.000 C 
BRANCH  26  27
ATOM     27  C   UNL     1      -0.601  10.188  21.467  0.00  0.00    +0.000 C 
BRANCH  27  28
ATOM     28  N   UNL     1      -0.777  11.665  21.617  0.00  0.00    +0.000 NA
ATOM     29  C   UNL     1      -1.724  12.222  20.630  0.00  0.00    +0.000 C 
ATOM     30  C   UNL     1      -1.869  13.744  20.785  0.00  0.00    +0.000 C 
ATOM     31  C   UNL     1      -2.323  14.133  22.187  0.00  0.00    +0.000 C 
ATOM     32  C   UNL     1      -1.430  13.476  23.229  0.00  0.00    +0.000 C 
ATOM     33  C   UNL     1      -1.280  11.969  22.980  0.00  0.00    +0.000 C 
ENDBRANCH  27  28
ENDBRANCH  26  27
ENDBRANCH  10  26
TORSDOF 6
ENDMDL
MODEL 5
REMARK VINA RESULT:      -8.6      2.526      8.984
REMARK  Name = 
REMARK  6 active torsions:
REMARK  status: ('A' for Active; 'I' for Inactive)
REMARK    1  A    between atoms: C_6  and  S_7
REMARK    2  A    between atoms: S_7  and  N_10
REMARK    3  A    between atoms: N_10  and  C_11
REMARK    4  A    between atoms: N_24  and  C_25
REMARK    5  A    between atoms: C_25  and  C_26
REMARK    6  A    between atoms: C_26  and  N_27
REMARK                            x       y       z     vdW  Elec       q    Type
REMARK                         _______ _______ _______ _____ _____    ______ ____
ROOT
ATOM      1  O   UNL     1       1.653  10.921  18.765  0.00  0.00    +0.000 OA
ATOM      2  C   UNL     1       1.690   9.704  18.879  0.00  0.00    +0.000 A 
ATOM      3  S   UNL     1       2.170   8.647  17.542  0.00  0.00    +0.000 S 
ATOM      4  C   UNL     1       2.168   7.222  18.595  0.00  0.00    +0.000 A 
ATOM      5  C   UNL     1       2.548   5.924  18.245  0.00  0.00    +0.000 A 
ATOM      6  C   UNL     1       2.617   4.938  19.234  0.00  0.00    +0.000 A 
ATOM      7  C   UNL     1       2.122   5.247  20.514  0.00  0.00    +0.000 A 
ATOM      8  C   UNL     1       1.691   6.558  20.845  0.00  0.00    +0.000 A 
ATOM      9  C   UNL     1       1.745   7.570  19.885  0.00  0.00    +0.000 A 
ATOM     10  N   UNL     1       1.414   8.952  20.021  0.00  0.00    +0.000 N 
ENDROOT
BRANCH   6  11
ATOM     11  S   UNL     1       3.027   3.226  18.808  0.00  0.00    +0.000 S 
ATOM     12  O   UNL     1       2.754   2.433  19.990  0.00  0.00    +0.000 OA
ATOM     13  O   UNL     1       2.336   2.910  17.572  0.00  0.00    +0.000 OA
BRANCH  11  14
ATOM     14  N   UNL     1       4.759   3.068  18.538  0.00  0.00    +0.000 N 
ATOM     15  H   UNL     1       4.882   2.103  18.207  0.00  0.00    +0.000 HD
BRANCH  14  16
ATOM     16  C   UNL     1       5.387   4.009  17.632  0.00  0.00    +0.000 A 
ATOM     17  C   UNL     1       5.090   3.865  16.296  0.00  0.00    +0.000 A 
ATOM     18  C   UNL     1       4.879   5.059  15.658  0.00  0.00    +0.000 A 
ATOM     19  C   UNL     1       5.898   5.974  15.775  0.00  0.00    +0.000 A 
ATOM     20  C   UNL     1       6.618   5.996  16.962  0.00  0.00    +0.000 A 
ATOM     21  C   UNL     1       7.474   7.069  17.154  0.00  0.00    +0.000 A 
ATOM     22  C   UNL     1       8.113   7.277  18.361  0.00  0.00    +0.000 A 
ATOM     23  C   UNL     1       7.912   6.359  19.387  0.00  0.00    +0.000 A 
ATOM     24  C   UNL     1       7.055   5.247  19.206  0.00  0.00    +0.000 A 
ATOM     25  C   UNL     1       6.354   5.025  17.979  0.00  0.00    +0.000 A 
ENDBRANCH  14  16
ENDBRANCH  11  14
ENDBRANCH   6  11
BRANCH  10  26
ATOM     26  C   UNL     1       1.088   9.638  21.285  0.00  0.00    +0.000 C 
BRANCH  26  27
ATOM     27  C   UNL     1      -0.446   9.759  21.585  0.00  0.00    +0.000 C 
BRANCH  27  28
ATOM     28  N   UNL     1      -0.999  11.131  21.796  0.00  0.00    +0.000 NA
ATOM     29  C   UNL     1      -1.635  11.284  23.120  0.00  0.00    +0.000 C 
ATOM     30  C   UNL     1      -2.219  12.694  23.305  0.00  0.00    +0.000 C 
ATOM     31  C   UNL     1      -1.160  13.776  23.132  0.00  0.00    +0.000 C 
ATOM     32  C   UNL     1      -0.410  13.572  21.823  0.00  0.00    +0.000 C 
ATOM     33  C   UNL     1       0.093  12.129  21.676  0.00  0.00    +0.000 C 
ENDBRANCH  27  28
ENDBRANCH  26  27
ENDBRANCH  10  26
TORSDOF 6
ENDMDL
MODEL 6
REMARK VINA RESULT:      -8.4      1.589      8.727
REMARK  Name = 
REMARK  6 active torsions:
REMARK  status: ('A' for Active; 'I' for Inactive)
REMARK    1  A    between atoms: C_6  and  S_7
REMARK    2  A    between atoms: S_7  and  N_10
REMARK    3  A    between atoms: N_10  and  C_11
REMARK    4  A    between atoms: N_24  and  C_25
REMARK    5  A    between atoms: C_25  and  C_26
REMARK    6  A    between atoms: C_26  and  N_27
REMARK                            x       y       z     vdW  Elec       q    Type
REMARK                         _______ _______ _______ _____ _____    ______ ____
ROOT
ATOM      1  O   UNL     1       0.144  10.673  21.490  0.00  0.00    +0.000 OA
ATOM      2  C   UNL     1       0.712   9.699  21.014  0.00  0.00    +0.000 A 
ATOM      3  S   UNL     1       0.819   8.156  21.875  0.00  0.00    +0.000 S 
ATOM      4  C   UNL     1       1.521   7.353  20.461  0.00  0.00    +0.000 A 
ATOM      5  C   UNL     1       1.831   5.995  20.339  0.00  0.00    +0.000 A 
ATOM      6  C   UNL     1       2.256   5.495  19.105  0.00  0.00    +0.000 A 
ATOM      7  C   UNL     1       2.531   6.415  18.076  0.00  0.00    +0.000 A 
ATOM      8  C   UNL     1       2.259   7.799  18.228  0.00  0.00    +0.000 A 
ATOM      9  C   UNL     1       1.714   8.274  19.423  0.00  0.00    +0.000 A 
ATOM     10  N   UNL     1       1.320   9.603  19.762  0.00  0.00    +0.000 N 
ENDROOT
BRANCH   6  11
ATOM     11  S   UNL     1       2.743   3.761  18.926  0.00  0.00    +0.000 S 
ATOM     12  O   UNL     1       2.069   3.034  19.983  0.00  0.00    +0.000 OA
ATOM     13  O   UNL     1       2.503   3.384  17.546  0.00  0.00    +0.000 OA
BRANCH  11  14
ATOM     14  N   UNL     1       4.461   3.577  19.265  0.00  0.00    +0.000 N 
ATOM     15  H   UNL     1       4.674   2.606  19.002  0.00  0.00    +0.000 HD
BRANCH  14  16
ATOM     16  C   UNL     1       5.376   4.498  18.621  0.00  0.00    +0.000 A 
ATOM     17  C   UNL     1       5.916   5.483  19.416  0.00  0.00    +0.000 A 
ATOM     18  C   UNL     1       7.248   5.698  19.180  0.00  0.00    +0.000 A 
ATOM     19  C   UNL     1       7.574   5.974  17.873  0.00  0.00    +0.000 A 
ATOM     20  C   UNL     1       6.834   5.356  16.875  0.00  0.00    +0.000 A 
ATOM     21  C   UNL     1       7.322   5.457  15.582  0.00  0.00    +0.000 A 
ATOM     22  C   UNL     1       6.759   4.748  14.538  0.00  0.00    +0.000 A 
ATOM     23  C   UNL     1       5.653   3.946  14.800  0.00  0.00    +0.000 A 
ATOM     24  C   UNL     1       5.128   3.843  16.110  0.00  0.00    +0.000 A 
ATOM     25  C   UNL     1       5.712   4.538  17.215  0.00  0.00    +0.000 A 
ENDBRANCH  14  16
ENDBRANCH  11  14
ENDBRANCH   6  11
BRANCH  10  26
ATOM     26  C   UNL     1       1.263  10.747  18.833  0.00  0.00    +0.000 C 
BRANCH  26  27
ATOM     27  C   UNL     1       0.168  10.627  17.718  0.00  0.00    +0.000 C 
BRANCH  27  28
ATOM     28  N   UNL     1      -1.258  10.555  18.160  0.00  0.00    +0.000 NA
ATOM     29  C   UNL     1      -1.873  11.890  18.299  0.00  0.00    +0.000 C 
ATOM     30  C   UNL     1      -3.330  11.792  18.779  0.00  0.00    +0.000 C 
ATOM     31  C   UNL     1      -4.182  10.945  17.843  0.00  0.00    +0.000 C 
ATOM     32  C   UNL     1      -3.510   9.602  17.591  0.00  0.00    +0.000 C 
ATOM     33  C   UNL     1      -2.044   9.770  17.174  0.00  0.00    +0.000 C 
ENDBRANCH  27  28
ENDBRANCH  26  27
ENDBRANCH  10  26
TORSDOF 6
ENDMDL
MODEL 7
REMARK VINA RESULT:      -8.3      0.798      2.205
REMARK  Name = 
REMARK  6 active torsions:
REMARK  status: ('A' for Active; 'I' for Inactive)
REMARK    1  A    between atoms: C_6  and  S_7
REMARK    2  A    between atoms: S_7  and  N_10
REMARK    3  A    between atoms: N_10  and  C_11
REMARK    4  A    between atoms: N_24  and  C_25
REMARK    5  A    between atoms: C_25  and  C_26
REMARK    6  A    between atoms: C_26  and  N_27
REMARK                            x       y       z     vdW  Elec       q    Type
REMARK                         _______ _______ _______ _____ _____    ______ ____
ROOT
ATOM      1  O   UNL     1       2.514   1.738  19.212  0.00  0.00    +0.000 OA
ATOM      2  C   UNL     1       2.248   2.923  19.357  0.00  0.00    +0.000 A 
ATOM      3  S   UNL     1       1.144   3.494  20.618  0.00  0.00    +0.000 S 
ATOM      4  C   UNL     1       1.525   5.187  20.260  0.00  0.00    +0.000 A 
ATOM      5  C   UNL     1       1.061   6.311  20.949  0.00  0.00    +0.000 A 
ATOM      6  C   UNL     1       1.564   7.574  20.622  0.00  0.00    +0.000 A 
ATOM      7  C   UNL     1       2.386   7.686  19.485  0.00  0.00    +0.000 A 
ATOM      8  C   UNL     1       2.811   6.541  18.762  0.00  0.00    +0.000 A 
ATOM      9  C   UNL     1       2.405   5.270  19.173  0.00  0.00    +0.000 A 
ATOM     10  N   UNL     1       2.755   3.998  18.627  0.00  0.00    +0.000 N 
ENDROOT
BRANCH   6  11
ATOM     11  S   UNL     1       0.931   9.062  21.435  0.00  0.00    +0.000 S 
ATOM     12  O   UNL     1      -0.495   8.864  21.599  0.00  0.00    +0.000 OA
ATOM     13  O   UNL     1       1.751   9.297  22.609  0.00  0.00    +0.000 OA
BRANCH  11  14
ATOM     14  N   UNL     1       1.082  10.449  20.361  0.00  0.00    +0.000 N 
ATOM     15  H   UNL     1       1.519  10.071  19.510  0.00  0.00    +0.000 HD
BRANCH  14  16
ATOM     16  C   UNL     1      -0.124  11.184  20.038  0.00  0.00    +0.000 A 
ATOM     17  C   UNL     1      -0.526  11.157  18.722  0.00  0.00    +0.000 A 
ATOM     18  C   UNL     1      -1.879  11.004  18.573  0.00  0.00    +0.000 A 
ATOM     19  C   UNL     1      -2.650  11.928  19.238  0.00  0.00    +0.000 A 
ATOM     20  C   UNL     1      -2.185  12.405  20.456  0.00  0.00    +0.000 A 
ATOM     21  C   UNL     1      -3.075  13.145  21.218  0.00  0.00    +0.000 A 
ATOM     22  C   UNL     1      -2.775  13.528  22.512  0.00  0.00    +0.000 A 
ATOM     23  C   UNL     1      -1.533  13.187  23.035  0.00  0.00    +0.000 A 
ATOM     24  C   UNL     1      -0.603  12.446  22.268  0.00  0.00    +0.000 A 
ATOM     25  C   UNL     1      -0.899  12.007  20.939  0.00  0.00    +0.000 A 
ENDBRANCH  14  16
ENDBRANCH  11  14
ENDBRANCH   6  11
BRANCH  10  26
ATOM     26  C   UNL     1       3.771   3.760  17.586  0.00  0.00    +0.000 C 
BRANCH  26  27
ATOM     27  C   UNL     1       5.216   3.491  18.133  0.00  0.00    +0.000 C 
BRANCH  27  28
ATOM     28  N   UNL     1       6.274   4.492  17.799  0.00  0.00    +0.000 NA
ATOM     29  C   UNL     1       5.857   5.415  16.724  0.00  0.00    +0.000 C 
ATOM     30  C   UNL     1       6.969   6.418  16.379  0.00  0.00    +0.000 C 
ATOM     31  C   UNL     1       7.400   7.230  17.593  0.00  0.00    +0.000 C 
ATOM     32  C   UNL     1       7.726   6.303  18.756  0.00  0.00    +0.000 C 
ATOM     33  C   UNL     1       6.602   5.290  19.008  0.00  0.00    +0.000 C 
ENDBRANCH  27  28
ENDBRANCH  26  27
ENDBRANCH  10  26
TORSDOF 6
ENDMDL
MODEL 8
REMARK VINA RESULT:      -8.3      2.143      8.877
REMARK  Name = 
REMARK  6 active torsions:
REMARK  status: ('A' for Active; 'I' for Inactive)
REMARK    1  A    between atoms: C_6  and  S_7
REMARK    2  A    between atoms: S_7  and  N_10
REMARK    3  A    between atoms: N_10  and  C_11
REMARK    4  A    between atoms: N_24  and  C_25
REMARK    5  A    between atoms: C_25  and  C_26
REMARK    6  A    between atoms: C_26  and  N_27
REMARK                            x       y       z     vdW  Elec       q    Type
REMARK                         _______ _______ _______ _____ _____    ______ ____
ROOT
ATOM      1  O   UNL     1       1.680  10.706  18.534  0.00  0.00    +0.000 OA
ATOM      2  C   UNL     1       1.776   9.505  18.749  0.00  0.00    +0.000 A 
ATOM      3  S   UNL     1       2.485   8.390  17.570  0.00  0.00    +0.000 S 
ATOM      4  C   UNL     1       2.434   7.049  18.726  0.00  0.00    +0.000 A 
ATOM      5  C   UNL     1       2.934   5.759  18.531  0.00  0.00    +0.000 A 
ATOM      6  C   UNL     1       2.935   4.853  19.596  0.00  0.00    +0.000 A 
ATOM      7  C   UNL     1       2.264   5.220  20.778  0.00  0.00    +0.000 A 
ATOM      8  C   UNL     1       1.716   6.517  20.947  0.00  0.00    +0.000 A 
ATOM      9  C   UNL     1       1.831   7.459  19.922  0.00  0.00    +0.000 A 
ATOM     10  N   UNL     1       1.403   8.821  19.906  0.00  0.00    +0.000 N 
ENDROOT
BRANCH   6  11
ATOM     11  S   UNL     1       3.498   3.149  19.363  0.00  0.00    +0.000 S 
ATOM     12  O   UNL     1       3.451   2.519  20.668  0.00  0.00    +0.000 OA
ATOM     13  O   UNL     1       2.722   2.581  18.277  0.00  0.00    +0.000 OA
BRANCH  11  14
ATOM     14  N   UNL     1       5.198   3.130  18.906  0.00  0.00    +0.000 N 
ATOM     15  H   UNL     1       5.385   2.153  18.645  0.00  0.00    +0.000 HD
BRANCH  14  16
ATOM     16  C   UNL     1       5.622   4.035  17.856  0.00  0.00    +0.000 A 
ATOM     17  C   UNL     1       5.203   3.734  16.581  0.00  0.00    +0.000 A 
ATOM     18  C   UNL     1       4.799   4.834  15.871  0.00  0.00    +0.000 A 
ATOM     19  C   UNL     1       5.720   5.851  15.792  0.00  0.00    +0.000 A 
ATOM     20  C   UNL     1       6.555   6.058  16.881  0.00  0.00    +0.000 A 
ATOM     21  C   UNL     1       7.306   7.223  16.882  0.00  0.00    +0.000 A 
ATOM     22  C   UNL     1       8.043   7.608  17.985  0.00  0.00    +0.000 A 
ATOM     23  C   UNL     1       8.051   6.779  19.102  0.00  0.00    +0.000 A 
ATOM     24  C   UNL     1       7.305   5.577  19.116  0.00  0.00    +0.000 A 
ATOM     25  C   UNL     1       6.506   5.170  18.002  0.00  0.00    +0.000 A 
ENDBRANCH  14  16
ENDBRANCH  11  14
ENDBRANCH   6  11
BRANCH  10  26
ATOM     26  C   UNL     1       0.878   9.572  21.060  0.00  0.00    +0.000 C 
BRANCH  26  27
ATOM     27  C   UNL     1      -0.626  10.000  20.932  0.00  0.00    +0.000 C 
BRANCH  27  28
ATOM     28  N   UNL     1      -0.964  11.421  21.246  0.00  0.00    +0.000 NA
ATOM     29  C   UNL     1       0.237  12.262  21.417  0.00  0.00    +0.000 C 
ATOM     30  C   UNL     1      -0.134  13.712  21.765  0.00  0.00    +0.000 C 
ATOM     31  C   UNL     1      -1.034  14.338  20.707  0.00  0.00    +0.000 C 
ATOM     32  C   UNL     1      -2.226  13.432  20.428  0.00  0.00    +0.000 C 
ATOM     33  C   UNL     1      -1.788  11.988  20.149  0.00  0.00    +0.000 C 
ENDBRANCH  27  28
ENDBRANCH  26  27
ENDBRANCH  10  26
TORSDOF 6
ENDMDL
MODEL 9
REMARK VINA RESULT:      -8.3      2.476      8.322
REMARK  Name = 
REMARK  6 active torsions:
REMARK  status: ('A' for Active; 'I' for Inactive)
REMARK    1  A    between atoms: C_6  and  S_7
REMARK    2  A    between atoms: S_7  and  N_10
REMARK    3  A    between atoms: N_10  and  C_11
REMARK    4  A    between atoms: N_24  and  C_25
REMARK    5  A    between atoms: C_25  and  C_26
REMARK    6  A    between atoms: C_26  and  N_27
REMARK                            x       y       z     vdW  Elec       q    Type
REMARK                         _______ _______ _______ _____ _____    ______ ____
ROOT
ATOM      1  O   UNL     1       0.133  10.323  20.853  0.00  0.00    +0.000 OA
ATOM      2  C   UNL     1       0.781   9.343  20.510  0.00  0.00    +0.000 A 
ATOM      3  S   UNL     1       0.959   7.921  21.549  0.00  0.00    +0.000 S 
ATOM      4  C   UNL     1       1.761   7.011  20.258  0.00  0.00    +0.000 A 
ATOM      5  C   UNL     1       2.164   5.674  20.304  0.00  0.00    +0.000 A 
ATOM      6  C   UNL     1       2.665   5.066  19.149  0.00  0.00    +0.000 A 
ATOM      7  C   UNL     1       2.914   5.879  18.027  0.00  0.00    +0.000 A 
ATOM      8  C   UNL     1       2.546   7.248  18.008  0.00  0.00    +0.000 A 
ATOM      9  C   UNL     1       1.930   7.818  19.124  0.00  0.00    +0.000 A 
ATOM     10  N   UNL     1       1.438   9.147  19.295  0.00  0.00    +0.000 N 
ENDROOT
BRANCH   6  11
ATOM     11  S   UNL     1       3.272   3.361  19.187  0.00  0.00    +0.000 S 
ATOM     12  O   UNL     1       2.822   2.794  20.443  0.00  0.00    +0.000 OA
ATOM     13  O   UNL     1       2.871   2.730  17.944  0.00  0.00    +0.000 OA
BRANCH  11  14
ATOM     14  N   UNL     1       5.030   3.346  19.281  0.00  0.00    +0.000 N 
ATOM     15  H   UNL     1       5.300   2.420  18.925  0.00  0.00    +0.000 HD
BRANCH  14  16
ATOM     16  C   UNL     1       5.749   4.396  18.586  0.00  0.00    +0.000 A 
ATOM     17  C   UNL     1       6.201   5.443  19.356  0.00  0.00    +0.000 A 
ATOM     18  C   UNL     1       7.465   5.852  19.023  0.00  0.00    +0.000 A 
ATOM     19  C   UNL     1       7.645   6.182  17.701  0.00  0.00    +0.000 A 
ATOM     20  C   UNL     1       6.927   5.470  16.750  0.00  0.00    +0.000 A 
ATOM     21  C   UNL     1       7.294   5.650  15.426  0.00  0.00    +0.000 A 
ATOM     22  C   UNL     1       6.759   4.873  14.416  0.00  0.00    +0.000 A 
ATOM     23  C   UNL     1       5.806   3.917  14.746  0.00  0.00    +0.000 A 
ATOM     24  C   UNL     1       5.405   3.729  16.090  0.00  0.00    +0.000 A 
ATOM     25  C   UNL     1       5.965   4.494  17.160  0.00  0.00    +0.000 A 
ENDBRANCH  14  16
ENDBRANCH  11  14
ENDBRANCH   6  11
BRANCH  10  26
ATOM     26  C   UNL     1       1.338  10.169  18.237  0.00  0.00    +0.000 C 
BRANCH  26  27
ATOM     27  C   UNL     1       1.055  11.621  18.758  0.00  0.00    +0.000 C 
BRANCH  27  28
ATOM     28  N   UNL     1       2.236  12.488  19.051  0.00  0.00    +0.000 NA
ATOM     29  C   UNL     1       2.428  13.541  18.034  0.00  0.00    +0.000 C 
ATOM     30  C   UNL     1       3.662  14.404  18.342  0.00  0.00    +0.000 C 
ATOM     31  C   UNL     1       3.577  15.050  19.719  0.00  0.00    +0.000 C 
ATOM     32  C   UNL     1       3.265  13.998  20.774  0.00  0.00    +0.000 C 
ATOM     33  C   UNL     1       2.060  13.135  20.376  0.00  0.00    +0.000 C 
ENDBRANCH  27  28
ENDBRANCH  26  27
ENDBRANCH  10  26
TORSDOF 6
ENDMDL
