MODEL 1
REMARK VINA RESULT:      -6.8      0.000      0.000
REMARK  Name = 
REMARK  3 active torsions:
REMARK  status: ('A' for Active; 'I' for Inactive)
REMARK    1  A    between atoms: C_1  and  C_2
REMARK    2  A    between atoms: N_8  and  C_9
REMARK    3  A    between atoms: N_15  and  C_16
REMARK                            x       y       z     vdW  Elec       q    Type
REMARK                         _______ _______ _______ _____ _____    ______ ____
ROOT
ATOM      1  C   UNL     1       8.166   5.485  18.937  0.00  0.00    +0.000 C 
ATOM      2  C   UNL     1       6.685   5.468  18.662  0.00  0.00    +0.000 A 
ATOM      3  C   UNL     1       6.135   6.490  17.908  0.00  0.00    +0.000 A 
ATOM      4  C   UNL     1       4.763   6.489  17.705  0.00  0.00    +0.000 A 
ATOM      5  C   UNL     1       3.971   5.496  18.277  0.00  0.00    +0.000 A 
ATOM      6  C   UNL     1       4.577   4.510  19.049  0.00  0.00    +0.000 A 
ATOM      7  N   UNL     1       5.927   4.471  19.216  0.00  0.00    +0.000 NA
ATOM      8  N   UNL     1       3.818   3.608  19.773  0.00  0.00    +0.000 N 
ATOM      9  C   UNL     1       3.905   2.178  19.550  0.00  0.00    +0.000 C 
ATOM     10  C   UNL     1       2.911   4.126  20.810  0.00  0.00    +0.000 C 
ATOM     11  C   UNL     1       1.605   4.707  20.246  0.00  0.00    +0.000 C 
ATOM     12  N   UNL     1       1.823   5.858  19.363  0.00  0.00    +0.000 N 
ATOM     13  C   UNL     1       1.824   7.199  19.713  0.00  0.00    +0.000 C 
ATOM     14  O   UNL     1       2.109   8.083  18.903  0.00  0.00    +0.000 OA
ATOM     15  N   UNL     1       1.495   7.505  21.011  0.00  0.00    +0.000 N 
ATOM     16  C   UNL     1       2.477   5.534  18.103  0.00  0.00    +0.000 C 
ATOM     17  H   UNL     1       1.306   6.777  21.676  0.00  0.00    +0.000 HD
ENDROOT
BRANCH  15  18
ATOM     18  C   UNL     1       1.462   8.861  21.474  0.00  0.00    +0.000 C 
ATOM     19  C   UNL     1       0.247   9.723  21.272  0.00  0.00    +0.000 C 
ATOM     20  C   UNL     1       0.614   9.259  22.651  0.00  0.00    +0.000 C 
ENDBRANCH  15  18
TORSDOF 1
ENDMDL
MODEL 2
REMARK VINA RESULT:      -6.0      3.493      6.424
REMARK  Name = 
REMARK  3 active torsions:
REMARK  status: ('A' for Active; 'I' for Inactive)
REMARK    1  A    between atoms: C_1  and  C_2
REMARK    2  A    between atoms: N_8  and  C_9
REMARK    3  A    between atoms: N_15  and  C_16
REMARK                            x       y       z     vdW  Elec       q    Type
REMARK                         _______ _______ _______ _____ _____    ______ ____
ROOT
ATOM      1  C   UNL     1       1.390   8.858  17.838  0.00  0.00    +0.000 C 
ATOM      2  C   UNL     1       2.517   7.860  17.890  0.00  0.00    +0.000 A 
ATOM      3  C   UNL     1       3.781   8.259  17.491  0.00  0.00    +0.000 A 
ATOM      4  C   UNL     1       4.799   7.317  17.498  0.00  0.00    +0.000 A 
ATOM      5  C   UNL     1       4.532   6.000  17.868  0.00  0.00    +0.000 A 
ATOM      6  C   UNL     1       3.236   5.651  18.232  0.00  0.00    +0.000 A 
ATOM      7  N   UNL     1       2.239   6.577  18.278  0.00  0.00    +0.000 NA
ATOM      8  N   UNL     1       2.889   4.328  18.440  0.00  0.00    +0.000 N 
ATOM      9  C   UNL     1       2.377   3.860  19.714  0.00  0.00    +0.000 C 
ATOM     10  C   UNL     1       3.031   3.380  17.325  0.00  0.00    +0.000 C 
ATOM     11  C   UNL     1       4.480   2.919  17.094  0.00  0.00    +0.000 C 
ATOM     12  N   UNL     1       5.382   4.019  16.738  0.00  0.00    +0.000 N 
ATOM     13  C   UNL     1       5.718   4.453  15.465  0.00  0.00    +0.000 C 
ATOM     14  O   UNL     1       6.419   5.450  15.282  0.00  0.00    +0.000 OA
ATOM     15  N   UNL     1       5.232   3.723  14.409  0.00  0.00    +0.000 N 
ATOM     16  C   UNL     1       5.626   4.969  17.815  0.00  0.00    +0.000 C 
ATOM     17  H   UNL     1       4.626   2.938  14.565  0.00  0.00    +0.000 HD
ENDROOT
BRANCH  15  18
ATOM     18  C   UNL     1       5.525   4.084  13.053  0.00  0.00    +0.000 C 
ATOM     19  C   UNL     1       6.378   3.206  12.180  0.00  0.00    +0.000 C 
ATOM     20  C   UNL     1       4.910   3.338  11.901  0.00  0.00    +0.000 C 
ENDBRANCH  15  18
TORSDOF 1
ENDMDL
MODEL 3
REMARK VINA RESULT:      -5.8      6.058      8.731
REMARK  Name = 
REMARK  3 active torsions:
REMARK  status: ('A' for Active; 'I' for Inactive)
REMARK    1  A    between atoms: C_1  and  C_2
REMARK    2  A    between atoms: N_8  and  C_9
REMARK    3  A    between atoms: N_15  and  C_16
REMARK                            x       y       z     vdW  Elec       q    Type
REMARK                         _______ _______ _______ _____ _____    ______ ____
ROOT
ATOM      1  C   UNL     1      -3.881  12.525  24.242  0.00  0.00    +0.000 C 
ATOM      2  C   UNL     1      -2.711  12.477  23.294  0.00  0.00    +0.000 A 
ATOM      3  C   UNL     1      -2.486  13.557  22.458  0.00  0.00    +0.000 A 
ATOM      4  C   UNL     1      -1.436  13.479  21.556  0.00  0.00    +0.000 A 
ATOM      5  C   UNL     1      -0.657  12.325  21.485  0.00  0.00    +0.000 A 
ATOM      6  C   UNL     1      -0.948  11.262  22.332  0.00  0.00    +0.000 A 
ATOM      7  N   UNL     1      -1.945  11.343  23.256  0.00  0.00    +0.000 NA
ATOM      8  N   UNL     1      -0.316  10.040  22.182  0.00  0.00    +0.000 N 
ATOM      9  C   UNL     1       0.481   9.452  23.241  0.00  0.00    +0.000 C 
ATOM     10  C   UNL     1      -0.478   9.317  20.911  0.00  0.00    +0.000 C 
ATOM     11  C   UNL     1       0.405   9.865  19.778  0.00  0.00    +0.000 C 
ATOM     12  N   UNL     1       0.095  11.257  19.432  0.00  0.00    +0.000 N 
ATOM     13  C   UNL     1      -0.780  11.707  18.456  0.00  0.00    +0.000 C 
ATOM     14  O   UNL     1      -1.033  12.904  18.311  0.00  0.00    +0.000 OA
ATOM     15  N   UNL     1      -1.361  10.756  17.653  0.00  0.00    +0.000 N 
ATOM     16  C   UNL     1       0.443  12.224  20.464  0.00  0.00    +0.000 C 
ATOM     17  H   UNL     1      -1.184   9.780  17.805  0.00  0.00    +0.000 HD
ENDROOT
BRANCH  15  18
ATOM     18  C   UNL     1      -2.278  11.117  16.612  0.00  0.00    +0.000 C 
ATOM     19  C   UNL     1      -2.734  10.109  15.594  0.00  0.00    +0.000 C 
ATOM     20  C   UNL     1      -3.698  10.622  16.623  0.00  0.00    +0.000 C 
ENDBRANCH  15  18
TORSDOF 1
ENDMDL
MODEL 4
REMARK VINA RESULT:      -5.7      3.691      6.903
REMARK  Name = 
REMARK  3 active torsions:
REMARK  status: ('A' for Active; 'I' for Inactive)
REMARK    1  A    between atoms: C_1  and  C_2
REMARK    2  A    between atoms: N_8  and  C_9
REMARK    3  A    between atoms: N_15  and  C_16
REMARK                            x       y       z     vdW  Elec       q    Type
REMARK                         _______ _______ _______ _____ _____    ______ ____
ROOT
ATOM      1  C   UNL     1       3.301   2.404  20.409  0.00  0.00    +0.000 C 
ATOM      2  C   UNL     1       3.779   3.422  19.406  0.00  0.00    +0.000 A 
ATOM      3  C   UNL     1       2.914   3.829  18.404  0.00  0.00    +0.000 A 
ATOM      4  C   UNL     1       3.384   4.728  17.459  0.00  0.00    +0.000 A 
ATOM      5  C   UNL     1       4.703   5.176  17.512  0.00  0.00    +0.000 A 
ATOM      6  C   UNL     1       5.533   4.710  18.526  0.00  0.00    +0.000 A 
ATOM      7  N   UNL     1       5.071   3.866  19.489  0.00  0.00    +0.000 NA
ATOM      8  N   UNL     1       6.888   4.992  18.520  0.00  0.00    +0.000 N 
ATOM      9  C   UNL     1       7.526   5.715  19.602  0.00  0.00    +0.000 C 
ATOM     10  C   UNL     1       7.697   4.523  17.384  0.00  0.00    +0.000 C 
ATOM     11  C   UNL     1       7.554   5.397  16.128  0.00  0.00    +0.000 C 
ATOM     12  N   UNL     1       6.186   5.419  15.598  0.00  0.00    +0.000 N 
ATOM     13  C   UNL     1       5.647   4.594  14.624  0.00  0.00    +0.000 C 
ATOM     14  O   UNL     1       4.455   4.641  14.317  0.00  0.00    +0.000 OA
ATOM     15  N   UNL     1       6.503   3.712  14.011  0.00  0.00    +0.000 N 
ATOM     16  C   UNL     1       5.223   6.105  16.449  0.00  0.00    +0.000 C 
ATOM     17  H   UNL     1       7.463   3.648  14.296  0.00  0.00    +0.000 HD
ENDROOT
BRANCH  15  18
ATOM     18  C   UNL     1       6.047   2.817  12.988  0.00  0.00    +0.000 C 
ATOM     19  C   UNL     1       5.298   3.325  11.788  0.00  0.00    +0.000 C 
ATOM     20  C   UNL     1       6.694   2.797  11.630  0.00  0.00    +0.000 C 
ENDBRANCH  15  18
TORSDOF 1
ENDMDL
MODEL 5
REMARK VINA RESULT:      -5.7      5.455      8.890
REMARK  Name = 
REMARK  3 active torsions:
REMARK  status: ('A' for Active; 'I' for Inactive)
REMARK    1  A    between atoms: C_1  and  C_2
REMARK    2  A    between atoms: N_8  and  C_9
REMARK    3  A    between atoms: N_15  and  C_16
REMARK                            x       y       z     vdW  Elec       q    Type
REMARK                         _______ _______ _______ _____ _____    ______ ____
ROOT
ATOM      1  C   UNL     1       0.997   8.105  21.161  0.00  0.00    +0.000 C 
ATOM      2  C   UNL     1       0.424   9.407  21.658  0.00  0.00    +0.000 A 
ATOM      3  C   UNL     1      -0.403   9.392  22.768  0.00  0.00    +0.000 A 
ATOM      4  C   UNL     1      -0.962  10.591  23.184  0.00  0.00    +0.000 A 
ATOM      5  C   UNL     1      -0.714  11.764  22.474  0.00  0.00    +0.000 A 
ATOM      6  C   UNL     1       0.103  11.712  21.350  0.00  0.00    +0.000 A 
ATOM      7  N   UNL     1       0.699  10.552  20.959  0.00  0.00    +0.000 NA
ATOM      8  N   UNL     1       0.240  12.811  20.520  0.00  0.00    +0.000 N 
ATOM      9  C   UNL     1       1.527  13.435  20.279  0.00  0.00    +0.000 C 
ATOM     10  C   UNL     1      -0.960  13.342  19.855  0.00  0.00    +0.000 C 
ATOM     11  C   UNL     1      -1.840  14.202  20.777  0.00  0.00    +0.000 C 
ATOM     12  N   UNL     1      -2.375  13.454  21.920  0.00  0.00    +0.000 N 
ATOM     13  C   UNL     1      -3.592  12.796  22.000  0.00  0.00    +0.000 C 
ATOM     14  O   UNL     1      -3.902  12.120  22.982  0.00  0.00    +0.000 OA
ATOM     15  N   UNL     1      -4.443  12.926  20.930  0.00  0.00    +0.000 N 
ATOM     16  C   UNL     1      -1.372  13.049  22.895  0.00  0.00    +0.000 C 
ATOM     17  H   UNL     1      -4.166  13.442  20.115  0.00  0.00    +0.000 HD
ENDROOT
BRANCH  15  18
ATOM     18  C   UNL     1      -5.727  12.289  20.915  0.00  0.00    +0.000 C 
ATOM     19  C   UNL     1      -6.881  12.882  20.156  0.00  0.00    +0.000 C 
ATOM     20  C   UNL     1      -6.243  11.613  19.674  0.00  0.00    +0.000 C 
ENDBRANCH  15  18
TORSDOF 1
ENDMDL
MODEL 6
REMARK VINA RESULT:      -5.7      2.747      3.932
REMARK  Name = 
REMARK  3 active torsions:
REMARK  status: ('A' for Active; 'I' for Inactive)
REMARK    1  A    between atoms: C_1  and  C_2
REMARK    2  A    between atoms: N_8  and  C_9
REMARK    3  A    between atoms: N_15  and  C_16
REMARK                            x       y       z     vdW  Elec       q    Type
REMARK                         _______ _______ _______ _____ _____    ______ ____
ROOT
ATOM      1  C   UNL     1       7.532   5.116  13.071  0.00  0.00    +0.000 C 
ATOM      2  C   UNL     1       6.817   4.692  14.328  0.00  0.00    +0.000 A 
ATOM      3  C   UNL     1       5.530   4.191  14.227  0.00  0.00    +0.000 A 
ATOM      4  C   UNL     1       4.866   3.852  15.396  0.00  0.00    +0.000 A 
ATOM      5  C   UNL     1       5.480   4.046  16.632  0.00  0.00    +0.000 A 
ATOM      6  C   UNL     1       6.763   4.579  16.672  0.00  0.00    +0.000 A 
ATOM      7  N   UNL     1       7.446   4.870  15.531  0.00  0.00    +0.000 NA
ATOM      8  N   UNL     1       7.343   4.946  17.874  0.00  0.00    +0.000 N 
ATOM      9  C   UNL     1       8.580   4.352  18.342  0.00  0.00    +0.000 C 
ATOM     10  C   UNL     1       6.684   5.982  18.683  0.00  0.00    +0.000 C 
ATOM     11  C   UNL     1       5.473   5.464  19.475  0.00  0.00    +0.000 C 
ATOM     12  N   UNL     1       4.400   4.956  18.614  0.00  0.00    +0.000 N 
ATOM     13  C   UNL     1       3.306   5.657  18.132  0.00  0.00    +0.000 C 
ATOM     14  O   UNL     1       2.509   5.154  17.338  0.00  0.00    +0.000 OA
ATOM     15  N   UNL     1       3.146   6.947  18.576  0.00  0.00    +0.000 N 
ATOM     16  C   UNL     1       4.731   3.732  17.899  0.00  0.00    +0.000 C 
ATOM     17  H   UNL     1       3.822   7.365  19.188  0.00  0.00    +0.000 HD
ENDROOT
BRANCH  15  18
ATOM     18  C   UNL     1       2.045   7.756  18.141  0.00  0.00    +0.000 C 
ATOM     19  C   UNL     1       1.481   8.838  19.019  0.00  0.00    +0.000 C 
ATOM     20  C   UNL     1       2.242   9.202  17.778  0.00  0.00    +0.000 C 
ENDBRANCH  15  18
TORSDOF 1
ENDMDL
MODEL 7
REMARK VINA RESULT:      -5.6      3.090      6.975
REMARK  Name = 
REMARK  3 active torsions:
REMARK  status: ('A' for Active; 'I' for Inactive)
REMARK    1  A    between atoms: C_1  and  C_2
REMARK    2  A    between atoms: N_8  and  C_9
REMARK    3  A    between atoms: N_15  and  C_16
REMARK                            x       y       z     vdW  Elec       q    Type
REMARK                         _______ _______ _______ _____ _____    ______ ____
ROOT
ATOM      1  C   UNL     1      -3.533  10.102  17.426  0.00  0.00    +0.000 C 
ATOM      2  C   UNL     1      -2.161  10.125  18.047  0.00  0.00    +0.000 A 
ATOM      3  C   UNL     1      -1.065   9.823  17.258  0.00  0.00    +0.000 A 
ATOM      4  C   UNL     1       0.186   9.800  17.854  0.00  0.00    +0.000 A 
ATOM      5  C   UNL     1       0.316  10.047  19.220  0.00  0.00    +0.000 A 
ATOM      6  C   UNL     1      -0.824  10.318  19.968  0.00  0.00    +0.000 A 
ATOM      7  N   UNL     1      -2.053  10.392  19.386  0.00  0.00    +0.000 NA
ATOM      8  N   UNL     1      -0.765  10.399  21.348  0.00  0.00    +0.000 N 
ATOM      9  C   UNL     1      -1.142  11.603  22.063  0.00  0.00    +0.000 C 
ATOM     10  C   UNL     1      -0.322   9.217  22.103  0.00  0.00    +0.000 C 
ATOM     11  C   UNL     1       1.202   9.019  22.093  0.00  0.00    +0.000 C 
ATOM     12  N   UNL     1       1.743   8.799  20.747  0.00  0.00    +0.000 N 
ATOM     13  C   UNL     1       1.962   7.585  20.116  0.00  0.00    +0.000 C 
ATOM     14  O   UNL     1       2.337   7.518  18.944  0.00  0.00    +0.000 OA
ATOM     15  N   UNL     1       1.738   6.449  20.855  0.00  0.00    +0.000 N 
ATOM     16  C   UNL     1       1.669   9.961  19.872  0.00  0.00    +0.000 C 
ATOM     17  H   UNL     1       1.391   6.510  21.795  0.00  0.00    +0.000 HD
ENDROOT
BRANCH  15  18
ATOM     18  C   UNL     1       1.939   5.143  20.299  0.00  0.00    +0.000 C 
ATOM     19  C   UNL     1       2.175   3.949  21.181  0.00  0.00    +0.000 C 
ATOM     20  C   UNL     1       0.886   4.077  20.423  0.00  0.00    +0.000 C 
ENDBRANCH  15  18
TORSDOF 1
ENDMDL
MODEL 8
REMARK VINA RESULT:      -5.5      5.826     10.696
REMARK  Name = 
REMARK  3 active torsions:
REMARK  status: ('A' for Active; 'I' for Inactive)
REMARK    1  A    between atoms: C_1  and  C_2
REMARK    2  A    between atoms: N_8  and  C_9
REMARK    3  A    between atoms: N_15  and  C_16
REMARK                            x       y       z     vdW  Elec       q    Type
REMARK                         _______ _______ _______ _____ _____    ______ ____
ROOT
ATOM      1  C   UNL     1      -7.857  10.903  20.815  0.00  0.00    +0.000 C 
ATOM      2  C   UNL     1      -6.556  11.660  20.741  0.00  0.00    +0.000 A 
ATOM      3  C   UNL     1      -5.863  11.679  19.543  0.00  0.00    +0.000 A 
ATOM      4  C   UNL     1      -4.643  12.337  19.502  0.00  0.00    +0.000 A 
ATOM      5  C   UNL     1      -4.129  12.932  20.653  0.00  0.00    +0.000 A 
ATOM      6  C   UNL     1      -4.858  12.856  21.835  0.00  0.00    +0.000 A 
ATOM      7  N   UNL     1      -6.079  12.256  21.878  0.00  0.00    +0.000 NA
ATOM      8  N   UNL     1      -4.313  13.279  23.034  0.00  0.00    +0.000 N 
ATOM      9  C   UNL     1      -4.917  14.337  23.822  0.00  0.00    +0.000 C 
ATOM     10  C   UNL     1      -3.093  12.618  23.524  0.00  0.00    +0.000 C 
ATOM     11  C   UNL     1      -1.813  13.097  22.822  0.00  0.00    +0.000 C 
ATOM     12  N   UNL     1      -1.810  12.818  21.382  0.00  0.00    +0.000 N 
ATOM     13  C   UNL     1      -1.290  11.704  20.742  0.00  0.00    +0.000 C 
ATOM     14  O   UNL     1      -1.423  11.529  19.529  0.00  0.00    +0.000 OA
ATOM     15  N   UNL     1      -0.619  10.794  21.520  0.00  0.00    +0.000 N 
ATOM     16  C   UNL     1      -2.778  13.592  20.617  0.00  0.00    +0.000 C 
ATOM     17  H   UNL     1      -0.553  10.920  22.514  0.00  0.00    +0.000 HD
ENDROOT
BRANCH  15  18
ATOM     18  C   UNL     1      -0.041   9.610  20.956  0.00  0.00    +0.000 C 
ATOM     19  C   UNL     1       1.084   8.889  21.645  0.00  0.00    +0.000 C 
ATOM     20  C   UNL     1      -0.276   8.260  21.576  0.00  0.00    +0.000 C 
ENDBRANCH  15  18
TORSDOF 1
ENDMDL
MODEL 9
REMARK VINA RESULT:      -5.5      5.914      9.217
REMARK  Name = 
REMARK  3 active torsions:
REMARK  status: ('A' for Active; 'I' for Inactive)
REMARK    1  A    between atoms: C_1  and  C_2
REMARK    2  A    between atoms: N_8  and  C_9
REMARK    3  A    between atoms: N_15  and  C_16
REMARK                            x       y       z     vdW  Elec       q    Type
REMARK                         _______ _______ _______ _____ _____    ______ ____
ROOT
ATOM      1  C   UNL     1       1.262   8.772  21.871  0.00  0.00    +0.000 C 
ATOM      2  C   UNL     1       0.454  10.014  22.148  0.00  0.00    +0.000 A 
ATOM      3  C   UNL     1      -0.675   9.912  22.942  0.00  0.00    +0.000 A 
ATOM      4  C   UNL     1      -1.436  11.052  23.148  0.00  0.00    +0.000 A 
ATOM      5  C   UNL     1      -1.076  12.254  22.540  0.00  0.00    +0.000 A 
ATOM      6  C   UNL     1       0.054  12.289  21.731  0.00  0.00    +0.000 A 
ATOM      7  N   UNL     1       0.837  11.189  21.560  0.00  0.00    +0.000 NA
ATOM      8  N   UNL     1       0.352  13.409  20.975  0.00  0.00    +0.000 N 
ATOM      9  C   UNL     1       1.591  14.142  21.144  0.00  0.00    +0.000 C 
ATOM     10  C   UNL     1      -0.619  13.850  19.961  0.00  0.00    +0.000 C 
ATOM     11  C   UNL     1      -1.814  14.618  20.549  0.00  0.00    +0.000 C 
ATOM     12  N   UNL     1      -2.615  13.809  21.474  0.00  0.00    +0.000 N 
ATOM     13  C   UNL     1      -3.736  13.051  21.174  0.00  0.00    +0.000 C 
ATOM     14  O   UNL     1      -4.281  12.335  22.016  0.00  0.00    +0.000 OA
ATOM     15  N   UNL     1      -4.215  13.128  19.890  0.00  0.00    +0.000 N 
ATOM     16  C   UNL     1      -1.939  13.473  22.720  0.00  0.00    +0.000 C 
ATOM     17  H   UNL     1      -3.741  13.679  19.198  0.00  0.00    +0.000 HD
ENDROOT
BRANCH  15  18
ATOM     18  C   UNL     1      -5.371  12.386  19.478  0.00  0.00    +0.000 C 
ATOM     19  C   UNL     1      -6.026  12.641  18.149  0.00  0.00    +0.000 C 
ATOM     20  C   UNL     1      -5.284  11.358  18.384  0.00  0.00    +0.000 C 
ENDBRANCH  15  18
TORSDOF 1
ENDMDL
