MODEL 1
REMARK VINA RESULT:      -7.1      0.000      0.000
REMARK  Name = 
REMARK  5 active torsions:
REMARK  status: ('A' for Active; 'I' for Inactive)
REMARK    1  A    between atoms: C_1  and  C_2
REMARK    2  A    between atoms: C_6  and  C_7
REMARK    3  A    between atoms: C_7  and  N_8
REMARK    4  A    between atoms: C_16  and  C_18
REMARK    5  A    between atoms: C_20  and  C_21
REMARK                            x       y       z     vdW  Elec       q    Type
REMARK                         _______ _______ _______ _____ _____    ______ ____
ROOT
ATOM      1  N   UNL     1       3.705   6.570  19.030  0.00  0.00    +0.000 NA
ATOM      2  C   UNL     1       4.545   5.633  19.836  0.00  0.00    +0.000 C 
ATOM      3  C   UNL     1       5.657   5.083  18.904  0.00  0.00    +0.000 C 
ATOM      4  C   UNL     1       5.636   6.086  17.778  0.00  0.00    +0.000 C 
ATOM      5  C   UNL     1       4.128   6.292  17.661  0.00  0.00    +0.000 C 
ATOM      6  C   UNL     1       4.063   7.293  16.525  0.00  0.00    +0.000 C 
ATOM      7  C   UNL     1       5.097   6.681  15.556  0.00  0.00    +0.000 C 
ATOM      8  N   UNL     1       5.984   5.853  16.396  0.00  0.00    +0.000 N 
ATOM      9  C   UNL     1       6.937   4.944  15.964  0.00  0.00    +0.000 C 
ATOM     10  O   UNL     1       7.541   4.223  16.754  0.00  0.00    +0.000 OA
ENDROOT
BRANCH   9  11
ATOM     11  C   UNL     1       7.159   4.804  14.509  0.00  0.00    +0.000 A 
ATOM     12  C   UNL     1       6.528   3.873  13.636  0.00  0.00    +0.000 A 
ATOM     13  C   UNL     1       7.043   4.150  12.394  0.00  0.00    +0.000 A 
ATOM     14  C   UNL     1       6.840   3.616  11.037  0.00  0.00    +0.000 C 
ATOM     15  O   UNL     1       7.943   5.159  12.503  0.00  0.00    +0.000 OA
ATOM     16  N   UNL     1       8.031   5.560  13.819  0.00  0.00    +0.000 NA
ENDBRANCH   9  11
BRANCH   1  17
ATOM     17  C   UNL     1       2.260   6.294  19.174  0.00  0.00    +0.000 C 
BRANCH  17  23
ATOM     18  C   UNL     1       1.385   2.412  21.994  0.00  0.00    +0.000 C 
ATOM     19  C   UNL     1       1.484   2.968  20.606  0.00  0.00    +0.000 A 
ATOM     20  C   UNL     1       1.305   2.152  19.497  0.00  0.00    +0.000 A 
ATOM     21  C   UNL     1       1.414   2.714  18.227  0.00  0.00    +0.000 A 
ATOM     22  C   UNL     1       1.698   4.071  18.101  0.00  0.00    +0.000 A 
ATOM     23  C   UNL     1       1.865   4.830  19.254  0.00  0.00    +0.000 A 
ATOM     24  N   UNL     1       1.760   4.291  20.500  0.00  0.00    +0.000 NA
ENDBRANCH  17  23
ENDBRANCH   1  17
TORSDOF 3
ENDMDL
MODEL 2
REMARK VINA RESULT:      -7.0      5.666      8.021
REMARK  Name = 
REMARK  5 active torsions:
REMARK  status: ('A' for Active; 'I' for Inactive)
REMARK    1  A    between atoms: C_1  and  C_2
REMARK    2  A    between atoms: C_6  and  C_7
REMARK    3  A    between atoms: C_7  and  N_8
REMARK    4  A    between atoms: C_16  and  C_18
REMARK    5  A    between atoms: C_20  and  C_21
REMARK                            x       y       z     vdW  Elec       q    Type
REMARK                         _______ _______ _______ _____ _____    ______ ____
ROOT
ATOM      1  N   UNL     1       1.778   7.283  19.638  0.00  0.00    +0.000 NA
ATOM      2  C   UNL     1       1.464   7.369  21.096  0.00  0.00    +0.000 C 
ATOM      3  C   UNL     1       1.132   8.852  21.414  0.00  0.00    +0.000 C 
ATOM      4  C   UNL     1       0.844   9.402  20.040  0.00  0.00    +0.000 C 
ATOM      5  C   UNL     1       1.935   8.681  19.253  0.00  0.00    +0.000 C 
ATOM      6  C   UNL     1       1.685   9.219  17.858  0.00  0.00    +0.000 C 
ATOM      7  C   UNL     1       1.458  10.713  18.172  0.00  0.00    +0.000 C 
ATOM      8  N   UNL     1       1.037  10.759  19.586  0.00  0.00    +0.000 N 
ATOM      9  C   UNL     1       0.916  11.885  20.387  0.00  0.00    +0.000 C 
ATOM     10  O   UNL     1       0.666  11.795  21.586  0.00  0.00    +0.000 OA
ENDROOT
BRANCH   9  11
ATOM     11  C   UNL     1       1.171  13.206  19.776  0.00  0.00    +0.000 A 
ATOM     12  C   UNL     1       2.421  13.884  19.701  0.00  0.00    +0.000 A 
ATOM     13  C   UNL     1       2.150  15.050  19.030  0.00  0.00    +0.000 A 
ATOM     14  C   UNL     1       2.946  16.204  18.580  0.00  0.00    +0.000 C 
ATOM     15  O   UNL     1       0.826  15.096  18.739  0.00  0.00    +0.000 OA
ATOM     16  N   UNL     1       0.209  13.959  19.213  0.00  0.00    +0.000 NA
ENDBRANCH   9  11
BRANCH   1  17
ATOM     17  C   UNL     1       3.034   6.547  19.377  0.00  0.00    +0.000 C 
BRANCH  17  23
ATOM     18  C   UNL     1       0.665   2.317  18.851  0.00  0.00    +0.000 C 
ATOM     19  C   UNL     1       1.784   3.202  18.394  0.00  0.00    +0.000 A 
ATOM     20  C   UNL     1       2.663   2.787  17.403  0.00  0.00    +0.000 A 
ATOM     21  C   UNL     1       3.691   3.644  17.017  0.00  0.00    +0.000 A 
ATOM     22  C   UNL     1       3.812   4.887  17.631  0.00  0.00    +0.000 A 
ATOM     23  C   UNL     1       2.896   5.240  18.617  0.00  0.00    +0.000 A 
ATOM     24  N   UNL     1       1.888   4.411  19.000  0.00  0.00    +0.000 NA
ENDBRANCH  17  23
ENDBRANCH   1  17
TORSDOF 3
ENDMDL
MODEL 3
REMARK VINA RESULT:      -7.0      5.772      8.249
REMARK  Name = 
REMARK  5 active torsions:
REMARK  status: ('A' for Active; 'I' for Inactive)
REMARK    1  A    between atoms: C_1  and  C_2
REMARK    2  A    between atoms: C_6  and  C_7
REMARK    3  A    between atoms: C_7  and  N_8
REMARK    4  A    between atoms: C_16  and  C_18
REMARK    5  A    between atoms: C_20  and  C_21
REMARK                            x       y       z     vdW  Elec       q    Type
REMARK                         _______ _______ _______ _____ _____    ______ ____
ROOT
ATOM      1  N   UNL     1       1.745   7.316  19.642  0.00  0.00    +0.000 NA
ATOM      2  C   UNL     1       1.534   7.349  21.121  0.00  0.00    +0.000 C 
ATOM      3  C   UNL     1       1.143   8.801  21.504  0.00  0.00    +0.000 C 
ATOM      4  C   UNL     1       0.724   9.366  20.170  0.00  0.00    +0.000 C 
ATOM      5  C   UNL     1       1.794   8.730  19.287  0.00  0.00    +0.000 C 
ATOM      6  C   UNL     1       1.413   9.286  17.930  0.00  0.00    +0.000 C 
ATOM      7  C   UNL     1       1.125  10.756  18.302  0.00  0.00    +0.000 C 
ATOM      8  N   UNL     1       0.805  10.743  19.743  0.00  0.00    +0.000 N 
ATOM      9  C   UNL     1       0.679  11.840  20.582  0.00  0.00    +0.000 C 
ATOM     10  O   UNL     1       0.522  11.706  21.793  0.00  0.00    +0.000 OA
ENDROOT
BRANCH   9  11
ATOM     11  C   UNL     1       0.814  13.189  19.992  0.00  0.00    +0.000 A 
ATOM     12  C   UNL     1      -0.236  14.008  19.489  0.00  0.00    +0.000 A 
ATOM     13  C   UNL     1       0.384  15.160  19.074  0.00  0.00    +0.000 A 
ATOM     14  C   UNL     1      -0.064  16.431  18.482  0.00  0.00    +0.000 C 
ATOM     15  O   UNL     1       1.719  15.044  19.283  0.00  0.00    +0.000 OA
ATOM     16  N   UNL     1       1.994  13.814  19.840  0.00  0.00    +0.000 NA
ENDBRANCH   9  11
BRANCH   1  17
ATOM     17  C   UNL     1       3.019   6.662  19.272  0.00  0.00    +0.000 C 
BRANCH  17  23
ATOM     18  C   UNL     1       0.722   2.383  18.826  0.00  0.00    +0.000 C 
ATOM     19  C   UNL     1       1.823   3.281  18.350  0.00  0.00    +0.000 A 
ATOM     20  C   UNL     1       2.705   2.865  17.361  0.00  0.00    +0.000 A 
ATOM     21  C   UNL     1       3.716   3.734  16.956  0.00  0.00    +0.000 A 
ATOM     22  C   UNL     1       3.818   4.988  17.549  0.00  0.00    +0.000 A 
ATOM     23  C   UNL     1       2.901   5.341  18.534  0.00  0.00    +0.000 A 
ATOM     24  N   UNL     1       1.909   4.500  18.935  0.00  0.00    +0.000 NA
ENDBRANCH  17  23
ENDBRANCH   1  17
TORSDOF 3
ENDMDL
MODEL 4
REMARK VINA RESULT:      -7.0      5.974      8.196
REMARK  Name = 
REMARK  5 active torsions:
REMARK  status: ('A' for Active; 'I' for Inactive)
REMARK    1  A    between atoms: C_1  and  C_2
REMARK    2  A    between atoms: C_6  and  C_7
REMARK    3  A    between atoms: C_7  and  N_8
REMARK    4  A    between atoms: C_16  and  C_18
REMARK    5  A    between atoms: C_20  and  C_21
REMARK                            x       y       z     vdW  Elec       q    Type
REMARK                         _______ _______ _______ _____ _____    ______ ____
ROOT
ATOM      1  N   UNL     1       1.301   7.894  20.062  0.00  0.00    +0.000 NA
ATOM      2  C   UNL     1       1.195   8.145  21.532  0.00  0.00    +0.000 C 
ATOM      3  C   UNL     1       1.054   9.677  21.734  0.00  0.00    +0.000 C 
ATOM      4  C   UNL     1       0.639  10.130  20.357  0.00  0.00    +0.000 C 
ATOM      5  C   UNL     1       1.540   9.227  19.519  0.00  0.00    +0.000 C 
ATOM      6  C   UNL     1       1.158   9.662  18.118  0.00  0.00    +0.000 C 
ATOM      7  C   UNL     1       1.121  11.194  18.303  0.00  0.00    +0.000 C 
ATOM      8  N   UNL     1       0.900  11.413  19.745  0.00  0.00    +0.000 N 
ATOM      9  C   UNL     1       0.997  12.611  20.435  0.00  0.00    +0.000 C 
ATOM     10  O   UNL     1       0.902  12.657  21.659  0.00  0.00    +0.000 OA
ENDROOT
BRANCH   9  11
ATOM     11  C   UNL     1       1.295  13.837  19.664  0.00  0.00    +0.000 A 
ATOM     12  C   UNL     1       2.582  14.315  19.287  0.00  0.00    +0.000 A 
ATOM     13  C   UNL     1       2.337  15.462  18.574  0.00  0.00    +0.000 A 
ATOM     14  C   UNL     1       3.170  16.453  17.873  0.00  0.00    +0.000 C 
ATOM     15  O   UNL     1       0.999  15.684  18.538  0.00  0.00    +0.000 OA
ATOM     16  N   UNL     1       0.347  14.685  19.228  0.00  0.00    +0.000 NA
ENDBRANCH   9  11
BRANCH   1  17
ATOM     17  C   UNL     1       2.433   7.005  19.725  0.00  0.00    +0.000 C 
BRANCH  17  23
ATOM     18  C   UNL     1       1.485   2.599  21.587  0.00  0.00    +0.000 C 
ATOM     19  C   UNL     1       1.669   3.438  20.359  0.00  0.00    +0.000 A 
ATOM     20  C   UNL     1       1.603   2.872  19.092  0.00  0.00    +0.000 A 
ATOM     21  C   UNL     1       1.788   3.693  17.982  0.00  0.00    +0.000 A 
ATOM     22  C   UNL     1       2.033   5.050  18.167  0.00  0.00    +0.000 A 
ATOM     23  C   UNL     1       2.085   5.551  19.464  0.00  0.00    +0.000 A 
ATOM     24  N   UNL     1       1.905   4.758  20.555  0.00  0.00    +0.000 NA
ENDBRANCH  17  23
ENDBRANCH   1  17
TORSDOF 3
ENDMDL
MODEL 5
REMARK VINA RESULT:      -7.0      6.245      8.625
REMARK  Name = 
REMARK  5 active torsions:
REMARK  status: ('A' for Active; 'I' for Inactive)
REMARK    1  A    between atoms: C_1  and  C_2
REMARK    2  A    between atoms: C_6  and  C_7
REMARK    3  A    between atoms: C_7  and  N_8
REMARK    4  A    between atoms: C_16  and  C_18
REMARK    5  A    between atoms: C_20  and  C_21
REMARK                            x       y       z     vdW  Elec       q    Type
REMARK                         _______ _______ _______ _____ _____    ______ ____
ROOT
ATOM      1  N   UNL     1       1.258   7.976  20.093  0.00  0.00    +0.000 NA
ATOM      2  C   UNL     1       1.282   8.187  21.572  0.00  0.00    +0.000 C 
ATOM      3  C   UNL     1       0.987   9.689  21.833  0.00  0.00    +0.000 C 
ATOM      4  C   UNL     1       0.377  10.113  20.521  0.00  0.00    +0.000 C 
ATOM      5  C   UNL     1       1.282   9.337  19.567  0.00  0.00    +0.000 C 
ATOM      6  C   UNL     1       0.704   9.747  18.227  0.00  0.00    +0.000 C 
ATOM      7  C   UNL     1       0.511  11.261  18.460  0.00  0.00    +0.000 C 
ATOM      8  N   UNL     1       0.421  11.427  19.924  0.00  0.00    +0.000 N 
ATOM      9  C   UNL     1       0.452  12.617  20.635  0.00  0.00    +0.000 C 
ATOM     10  O   UNL     1       0.485  12.631  21.862  0.00  0.00    +0.000 OA
ENDROOT
BRANCH   9  11
ATOM     11  C   UNL     1       0.523  13.883  19.873  0.00  0.00    +0.000 A 
ATOM     12  C   UNL     1      -0.574  14.689  19.456  0.00  0.00    +0.000 A 
ATOM     13  C   UNL     1      -0.001  15.756  18.809  0.00  0.00    +0.000 A 
ATOM     14  C   UNL     1      -0.507  16.971  18.151  0.00  0.00    +0.000 C 
ATOM     15  O   UNL     1       1.346  15.600  18.807  0.00  0.00    +0.000 OA
ATOM     16  N   UNL     1       1.677  14.429  19.454  0.00  0.00    +0.000 NA
ENDBRANCH   9  11
BRANCH   1  17
ATOM     17  C   UNL     1       2.442   7.233  19.613  0.00  0.00    +0.000 C 
BRANCH  17  23
ATOM     18  C   UNL     1       2.205   2.736  21.486  0.00  0.00    +0.000 C 
ATOM     19  C   UNL     1       2.168   3.597  20.260  0.00  0.00    +0.000 A 
ATOM     20  C   UNL     1       2.045   3.034  18.997  0.00  0.00    +0.000 A 
ATOM     21  C   UNL     1       2.022   3.876  17.888  0.00  0.00    +0.000 A 
ATOM     22  C   UNL     1       2.123   5.251  18.070  0.00  0.00    +0.000 A 
ATOM     23  C   UNL     1       2.243   5.749  19.364  0.00  0.00    +0.000 A 
ATOM     24  N   UNL     1       2.266   4.935  20.454  0.00  0.00    +0.000 NA
ENDBRANCH  17  23
ENDBRANCH   1  17
TORSDOF 3
ENDMDL
MODEL 6
REMARK VINA RESULT:      -7.0      5.631      8.051
REMARK  Name = 
REMARK  5 active torsions:
REMARK  status: ('A' for Active; 'I' for Inactive)
REMARK    1  A    between atoms: C_1  and  C_2
REMARK    2  A    between atoms: C_6  and  C_7
REMARK    3  A    between atoms: C_7  and  N_8
REMARK    4  A    between atoms: C_16  and  C_18
REMARK    5  A    between atoms: C_20  and  C_21
REMARK                            x       y       z     vdW  Elec       q    Type
REMARK                         _______ _______ _______ _____ _____    ______ ____
ROOT
ATOM      1  N   UNL     1       1.893   7.094  19.401  0.00  0.00    +0.000 NA
ATOM      2  C   UNL     1       1.619   7.031  20.868  0.00  0.00    +0.000 C 
ATOM      3  C   UNL     1       1.251   8.465  21.335  0.00  0.00    +0.000 C 
ATOM      4  C   UNL     1       0.907   9.134  20.028  0.00  0.00    +0.000 C 
ATOM      5  C   UNL     1       1.997   8.527  19.148  0.00  0.00    +0.000 C 
ATOM      6  C   UNL     1       1.690   9.187  17.818  0.00  0.00    +0.000 C 
ATOM      7  C   UNL     1       1.427  10.636  18.280  0.00  0.00    +0.000 C 
ATOM      8  N   UNL     1       1.045  10.534  19.703  0.00  0.00    +0.000 N 
ATOM      9  C   UNL     1       0.913  11.573  20.611  0.00  0.00    +0.000 C 
ATOM     10  O   UNL     1       0.700  11.361  21.801  0.00  0.00    +0.000 OA
ENDROOT
BRANCH   9  11
ATOM     11  C   UNL     1       1.111  12.954  20.123  0.00  0.00    +0.000 A 
ATOM     12  C   UNL     1       0.125  13.804  19.545  0.00  0.00    +0.000 A 
ATOM     13  C   UNL     1       0.785  14.978  19.278  0.00  0.00    +0.000 A 
ATOM     14  C   UNL     1       0.405  16.283  18.712  0.00  0.00    +0.000 C 
ATOM     15  O   UNL     1       2.085  14.847  19.641  0.00  0.00    +0.000 OA
ATOM     16  N   UNL     1       2.298  13.586  20.153  0.00  0.00    +0.000 NA
ENDBRANCH   9  11
BRANCH   1  17
ATOM     17  C   UNL     1       3.163   6.428  19.038  0.00  0.00    +0.000 C 
BRANCH  17  23
ATOM     18  C   UNL     1       4.609   1.941  20.286  0.00  0.00    +0.000 C 
ATOM     19  C   UNL     1       3.807   2.795  19.352  0.00  0.00    +0.000 A 
ATOM     20  C   UNL     1       3.121   2.233  18.283  0.00  0.00    +0.000 A 
ATOM     21  C   UNL     1       2.394   3.070  17.440  0.00  0.00    +0.000 A 
ATOM     22  C   UNL     1       2.374   4.440  17.686  0.00  0.00    +0.000 A 
ATOM     23  C   UNL     1       3.082   4.936  18.775  0.00  0.00    +0.000 A 
ATOM     24  N   UNL     1       3.794   4.127  19.606  0.00  0.00    +0.000 NA
ENDBRANCH  17  23
ENDBRANCH   1  17
TORSDOF 3
ENDMDL
MODEL 7
REMARK VINA RESULT:      -6.9      3.675      7.894
REMARK  Name = 
REMARK  5 active torsions:
REMARK  status: ('A' for Active; 'I' for Inactive)
REMARK    1  A    between atoms: C_1  and  C_2
REMARK    2  A    between atoms: C_6  and  C_7
REMARK    3  A    between atoms: C_7  and  N_8
REMARK    4  A    between atoms: C_16  and  C_18
REMARK    5  A    between atoms: C_20  and  C_21
REMARK                            x       y       z     vdW  Elec       q    Type
REMARK                         _______ _______ _______ _____ _____    ______ ____
ROOT
ATOM      1  N   UNL     1       4.167   5.265  16.628  0.00  0.00    +0.000 NA
ATOM      2  C   UNL     1       4.107   4.036  17.476  0.00  0.00    +0.000 C 
ATOM      3  C   UNL     1       3.288   4.388  18.747  0.00  0.00    +0.000 C 
ATOM      4  C   UNL     1       2.571   5.642  18.312  0.00  0.00    +0.000 C 
ATOM      5  C   UNL     1       3.700   6.311  17.532  0.00  0.00    +0.000 C 
ATOM      6  C   UNL     1       3.019   7.589  17.084  0.00  0.00    +0.000 C 
ATOM      7  C   UNL     1       2.290   7.987  18.385  0.00  0.00    +0.000 C 
ATOM      8  N   UNL     1       2.140   6.734  19.152  0.00  0.00    +0.000 N 
ATOM      9  C   UNL     1       1.735   6.604  20.472  0.00  0.00    +0.000 C 
ATOM     10  O   UNL     1       1.755   5.519  21.045  0.00  0.00    +0.000 OA
ENDROOT
BRANCH   9  11
ATOM     11  C   UNL     1       1.347   7.828  21.205  0.00  0.00    +0.000 A 
ATOM     12  C   UNL     1       0.042   8.390  21.296  0.00  0.00    +0.000 A 
ATOM     13  C   UNL     1       0.189   9.496  22.095  0.00  0.00    +0.000 A 
ATOM     14  C   UNL     1      -0.717  10.527  22.628  0.00  0.00    +0.000 C 
ATOM     15  O   UNL     1       1.494   9.617  22.447  0.00  0.00    +0.000 OA
ATOM     16  N   UNL     1       2.221   8.592  21.884  0.00  0.00    +0.000 NA
ENDBRANCH   9  11
BRANCH   1  17
ATOM     17  C   UNL     1       5.543   5.569  16.179  0.00  0.00    +0.000 C 
BRANCH  17  23
ATOM     18  C   UNL     1       8.245   9.265  17.859  0.00  0.00    +0.000 C 
ATOM     19  C   UNL     1       7.815   7.839  18.023  0.00  0.00    +0.000 A 
ATOM     20  C   UNL     1       8.336   7.049  19.039  0.00  0.00    +0.000 A 
ATOM     21  C   UNL     1       7.908   5.728  19.146  0.00  0.00    +0.000 A 
ATOM     22  C   UNL     1       6.977   5.234  18.238  0.00  0.00    +0.000 A 
ATOM     23  C   UNL     1       6.495   6.081  17.245  0.00  0.00    +0.000 A 
ATOM     24  N   UNL     1       6.905   7.373  17.132  0.00  0.00    +0.000 NA
ENDBRANCH  17  23
ENDBRANCH   1  17
TORSDOF 3
ENDMDL
MODEL 8
REMARK VINA RESULT:      -6.9      3.576      8.106
REMARK  Name = 
REMARK  5 active torsions:
REMARK  status: ('A' for Active; 'I' for Inactive)
REMARK    1  A    between atoms: C_1  and  C_2
REMARK    2  A    between atoms: C_6  and  C_7
REMARK    3  A    between atoms: C_7  and  N_8
REMARK    4  A    between atoms: C_16  and  C_18
REMARK    5  A    between atoms: C_20  and  C_21
REMARK                            x       y       z     vdW  Elec       q    Type
REMARK                         _______ _______ _______ _____ _____    ______ ____
ROOT
ATOM      1  N   UNL     1       4.339   5.186  17.025  0.00  0.00    +0.000 NA
ATOM      2  C   UNL     1       4.116   4.055  17.976  0.00  0.00    +0.000 C 
ATOM      3  C   UNL     1       3.206   4.579  19.119  0.00  0.00    +0.000 C 
ATOM      4  C   UNL     1       2.620   5.822  18.498  0.00  0.00    +0.000 C 
ATOM      5  C   UNL     1       3.859   6.343  17.774  0.00  0.00    +0.000 C 
ATOM      6  C   UNL     1       3.311   7.606  17.141  0.00  0.00    +0.000 C 
ATOM      7  C   UNL     1       2.491   8.175  18.319  0.00  0.00    +0.000 C 
ATOM      8  N   UNL     1       2.185   7.017  19.182  0.00  0.00    +0.000 N 
ATOM      9  C   UNL     1       1.650   7.045  20.460  0.00  0.00    +0.000 C 
ATOM     10  O   UNL     1       1.542   6.023  21.133  0.00  0.00    +0.000 OA
ENDROOT
BRANCH   9  11
ATOM     11  C   UNL     1       1.276   8.356  21.032  0.00  0.00    +0.000 A 
ATOM     12  C   UNL     1       0.254   9.230  20.565  0.00  0.00    +0.000 A 
ATOM     13  C   UNL     1       0.281  10.297  21.428  0.00  0.00    +0.000 A 
ATOM     14  C   UNL     1      -0.490  11.543  21.571  0.00  0.00    +0.000 C 
ATOM     15  O   UNL     1       1.265  10.103  22.341  0.00  0.00    +0.000 OA
ATOM     16  N   UNL     1       1.898   8.905  22.090  0.00  0.00    +0.000 NA
ENDBRANCH   9  11
BRANCH   1  17
ATOM     17  C   UNL     1       5.768   5.364  16.690  0.00  0.00    +0.000 C 
BRANCH  17  23
ATOM     18  C   UNL     1       8.842   5.909  12.944  0.00  0.00    +0.000 C 
ATOM     19  C   UNL     1       7.638   5.210  13.498  0.00  0.00    +0.000 A 
ATOM     20  C   UNL     1       6.933   4.290  12.733  0.00  0.00    +0.000 A 
ATOM     21  C   UNL     1       5.817   3.671  13.291  0.00  0.00    +0.000 A 
ATOM     22  C   UNL     1       5.436   3.989  14.591  0.00  0.00    +0.000 A 
ATOM     23  C   UNL     1       6.188   4.919  15.301  0.00  0.00    +0.000 A 
ATOM     24  N   UNL     1       7.281   5.528  14.766  0.00  0.00    +0.000 NA
ENDBRANCH  17  23
ENDBRANCH   1  17
TORSDOF 3
ENDMDL
MODEL 9
REMARK VINA RESULT:      -6.9      5.664      7.938
REMARK  Name = 
REMARK  5 active torsions:
REMARK  status: ('A' for Active; 'I' for Inactive)
REMARK    1  A    between atoms: C_1  and  C_2
REMARK    2  A    between atoms: C_6  and  C_7
REMARK    3  A    between atoms: C_7  and  N_8
REMARK    4  A    between atoms: C_16  and  C_18
REMARK    5  A    between atoms: C_20  and  C_21
REMARK                            x       y       z     vdW  Elec       q    Type
REMARK                         _______ _______ _______ _____ _____    ______ ____
ROOT
ATOM      1  N   UNL     1       1.390   7.527  19.984  0.00  0.00    +0.000 NA
ATOM      2  C   UNL     1       1.173   7.807  21.436  0.00  0.00    +0.000 C 
ATOM      3  C   UNL     1       1.061   9.346  21.602  0.00  0.00    +0.000 C 
ATOM      4  C   UNL     1       0.772   9.786  20.189  0.00  0.00    +0.000 C 
ATOM      5  C   UNL     1       1.711   8.843  19.441  0.00  0.00    +0.000 C 
ATOM      6  C   UNL     1       1.457   9.263  18.007  0.00  0.00    +0.000 C 
ATOM      7  C   UNL     1       1.450  10.799  18.164  0.00  0.00    +0.000 C 
ATOM      8  N   UNL     1       1.118  11.049  19.581  0.00  0.00    +0.000 N 
ATOM      9  C   UNL     1       1.194  12.257  20.257  0.00  0.00    +0.000 C 
ATOM     10  O   UNL     1       1.002  12.327  21.468  0.00  0.00    +0.000 OA
ENDROOT
BRANCH   9  11
ATOM     11  C   UNL     1       1.589  13.460  19.494  0.00  0.00    +0.000 A 
ATOM     12  C   UNL     1       2.891  13.773  19.011  0.00  0.00    +0.000 A 
ATOM     13  C   UNL     1       2.745  14.970  18.354  0.00  0.00    +0.000 A 
ATOM     14  C   UNL     1       3.641  15.865  17.604  0.00  0.00    +0.000 C 
ATOM     15  O   UNL     1       1.453  15.372  18.451  0.00  0.00    +0.000 OA
ATOM     16  N   UNL     1       0.733  14.445  19.172  0.00  0.00    +0.000 NA
ENDBRANCH   9  11
BRANCH   1  17
ATOM     17  C   UNL     1       2.520   6.601  19.754  0.00  0.00    +0.000 C 
BRANCH  17  23
ATOM     18  C   UNL     1       2.719   2.369  17.338  0.00  0.00    +0.000 C 
ATOM     19  C   UNL     1       2.241   3.110  18.550  0.00  0.00    +0.000 A 
ATOM     20  C   UNL     1       1.471   2.477  19.516  0.00  0.00    +0.000 A 
ATOM     21  C   UNL     1       1.046   3.210  20.621  0.00  0.00    +0.000 A 
ATOM     22  C   UNL     1       1.401   4.551  20.730  0.00  0.00    +0.000 A 
ATOM     23  C   UNL     1       2.176   5.123  19.727  0.00  0.00    +0.000 A 
ATOM     24  N   UNL     1       2.597   4.415  18.643  0.00  0.00    +0.000 NA
ENDBRANCH  17  23
ENDBRANCH   1  17
TORSDOF 3
ENDMDL
