MODEL 1
REMARK VINA RESULT:      -7.6      0.000      0.000
REMARK  Name = 
REMARK  8 active torsions:
REMARK  status: ('A' for Active; 'I' for Inactive)
REMARK    1  A    between atoms: C_1  and  C_2
REMARK    2  A    between atoms: C_4  and  C_5
REMARK    3  A    between atoms: C_6  and  C_7
REMARK    4  A    between atoms: C_7  and  O_9
REMARK    5  A    between atoms: O_9  and  C_10
REMARK    6  A    between atoms: N_13  and  C_14
REMARK    7  A    between atoms: C_14  and  C_15
REMARK    8  A    between atoms: C_23  and  C_24
REMARK                            x       y       z     vdW  Elec       q    Type
REMARK                         _______ _______ _______ _____ _____    ______ ____
ROOT
ATOM      1  C   UNL     1       2.998   6.060  19.038  0.00  0.00    +0.000 C 
ATOM      2  C   UNL     1       2.605   6.880  17.790  0.00  0.00    +0.000 C 
ATOM      3  C   UNL     1       2.553   8.370  18.122  0.00  0.00    +0.000 C 
ATOM      4  N   UNL     1       1.465   8.587  19.098  0.00  0.00    +0.000 NA
ATOM      5  C   UNL     1       1.816   7.931  20.380  0.00  0.00    +0.000 C 
ATOM      6  C   UNL     1       1.999   6.407  20.173  0.00  0.00    +0.000 C 
ENDROOT
BRANCH   1   7
ATOM      7  O   UNL     1       4.334   6.234  19.425  0.00  0.00    +0.000 OA
BRANCH   7   8
ATOM      8  C   UNL     1       5.327   5.359  19.071  0.00  0.00    +0.000 C 
ATOM      9  O   UNL     1       5.772   4.602  19.921  0.00  0.00    +0.000 OA
BRANCH   8  15
ATOM     10  C   UNL     1       6.487   4.479  14.135  0.00  0.00    +0.000 C 
ATOM     11  C   UNL     1       6.467   4.974  15.555  0.00  0.00    +0.000 A 
ATOM     12  N   UNL     1       7.346   5.873  16.018  0.00  0.00    +0.000 N 
ATOM     13  C   UNL     1       7.049   6.101  17.311  0.00  0.00    +0.000 A 
ATOM     14  C   UNL     1       7.821   7.078  18.143  0.00  0.00    +0.000 C 
ATOM     15  C   UNL     1       5.949   5.328  17.705  0.00  0.00    +0.000 A 
ATOM     16  C   UNL     1       5.583   4.599  16.570  0.00  0.00    +0.000 A 
ATOM     17  C   UNL     1       4.482   3.595  16.430  0.00  0.00    +0.000 C 
ATOM     18  H   UNL     1       8.116   6.323  15.471  0.00  0.00    +0.000 HD
ENDBRANCH   8  15
ENDBRANCH   7   8
ENDBRANCH   1   7
BRANCH   4  19
ATOM     19  C   UNL     1       1.141  10.021  19.279  0.00  0.00    +0.000 C 
BRANCH  19  20
ATOM     20  C   UNL     1      -0.258  10.350  18.781  0.00  0.00    +0.000 A 
ATOM     21  C   UNL     1      -0.792   9.703  17.651  0.00  0.00    +0.000 A 
ATOM     22  C   UNL     1      -2.072  10.034  17.184  0.00  0.00    +0.000 A 
ATOM     23  C   UNL     1      -2.827  11.008  17.841  0.00  0.00    +0.000 A 
ATOM     24  C   UNL     1      -2.306  11.653  18.964  0.00  0.00    +0.000 A 
ATOM     25  C   UNL     1      -1.029  11.328  19.434  0.00  0.00    +0.000 A 
ENDBRANCH  19  20
ENDBRANCH   4  19
TORSDOF 5
ENDMDL
MODEL 2
REMARK VINA RESULT:      -7.5      0.951      1.092
REMARK  Name = 
REMARK  8 active torsions:
REMARK  status: ('A' for Active; 'I' for Inactive)
REMARK    1  A    between atoms: C_1  and  C_2
REMARK    2  A    between atoms: C_4  and  C_5
REMARK    3  A    between atoms: C_6  and  C_7
REMARK    4  A    between atoms: C_7  and  O_9
REMARK    5  A    between atoms: O_9  and  C_10
REMARK    6  A    between atoms: N_13  and  C_14
REMARK    7  A    between atoms: C_14  and  C_15
REMARK    8  A    between atoms: C_23  and  C_24
REMARK                            x       y       z     vdW  Elec       q    Type
REMARK                         _______ _______ _______ _____ _____    ______ ____
ROOT
ATOM      1  C   UNL     1       2.727   5.243  19.419  0.00  0.00    +0.000 C 
ATOM      2  C   UNL     1       2.463   5.692  17.965  0.00  0.00    +0.000 C 
ATOM      3  C   UNL     1       2.787   7.176  17.795  0.00  0.00    +0.000 C 
ATOM      4  N   UNL     1       1.846   7.952  18.628  0.00  0.00    +0.000 NA
ATOM      5  C   UNL     1       2.110   7.675  20.060  0.00  0.00    +0.000 C 
ATOM      6  C   UNL     1       1.912   6.168  20.361  0.00  0.00    +0.000 C 
ENDROOT
BRANCH   1   7
ATOM      7  O   UNL     1       4.087   5.199  19.753  0.00  0.00    +0.000 OA
BRANCH   7   8
ATOM      8  C   UNL     1       4.952   4.283  19.215  0.00  0.00    +0.000 C 
ATOM      9  O   UNL     1       5.043   3.183  19.739  0.00  0.00    +0.000 OA
BRANCH   8  15
ATOM     10  C   UNL     1       7.059   4.843  14.553  0.00  0.00    +0.000 C 
ATOM     11  C   UNL     1       6.782   4.853  16.031  0.00  0.00    +0.000 A 
ATOM     12  N   UNL     1       7.629   5.390  16.919  0.00  0.00    +0.000 N 
ATOM     13  C   UNL     1       7.084   5.241  18.141  0.00  0.00    +0.000 A 
ATOM     14  C   UNL     1       7.755   5.751  19.378  0.00  0.00    +0.000 C 
ATOM     15  C   UNL     1       5.849   4.584  18.049  0.00  0.00    +0.000 A 
ATOM     16  C   UNL     1       5.664   4.332  16.687  0.00  0.00    +0.000 A 
ATOM     17  C   UNL     1       4.521   3.631  16.022  0.00  0.00    +0.000 C 
ATOM     18  H   UNL     1       8.543   5.853  16.702  0.00  0.00    +0.000 HD
ENDBRANCH   8  15
ENDBRANCH   7   8
ENDBRANCH   1   7
BRANCH   4  19
ATOM     19  C   UNL     1       1.883   9.402  18.327  0.00  0.00    +0.000 C 
BRANCH  19  20
ATOM     20  C   UNL     1       0.535  10.063  18.567  0.00  0.00    +0.000 A 
ATOM     21  C   UNL     1      -0.571   9.765  17.749  0.00  0.00    +0.000 A 
ATOM     22  C   UNL     1      -1.802  10.400  17.962  0.00  0.00    +0.000 A 
ATOM     23  C   UNL     1      -1.939  11.334  18.992  0.00  0.00    +0.000 A 
ATOM     24  C   UNL     1      -0.849  11.634  19.810  0.00  0.00    +0.000 A 
ATOM     25  C   UNL     1       0.383  11.004  19.602  0.00  0.00    +0.000 A 
ENDBRANCH  19  20
ENDBRANCH   4  19
TORSDOF 5
ENDMDL
MODEL 3
REMARK VINA RESULT:      -7.1      3.841      8.815
REMARK  Name = 
REMARK  8 active torsions:
REMARK  status: ('A' for Active; 'I' for Inactive)
REMARK    1  A    between atoms: C_1  and  C_2
REMARK    2  A    between atoms: C_4  and  C_5
REMARK    3  A    between atoms: C_6  and  C_7
REMARK    4  A    between atoms: C_7  and  O_9
REMARK    5  A    between atoms: O_9  and  C_10
REMARK    6  A    between atoms: N_13  and  C_14
REMARK    7  A    between atoms: C_14  and  C_15
REMARK    8  A    between atoms: C_23  and  C_24
REMARK                            x       y       z     vdW  Elec       q    Type
REMARK                         _______ _______ _______ _____ _____    ______ ____
ROOT
ATOM      1  C   UNL     1       0.559  10.325  19.444  0.00  0.00    +0.000 C 
ATOM      2  C   UNL     1       0.301   9.207  20.478  0.00  0.00    +0.000 C 
ATOM      3  C   UNL     1       1.545   8.336  20.647  0.00  0.00    +0.000 C 
ATOM      4  N   UNL     1       1.801   7.643  19.368  0.00  0.00    +0.000 NA
ATOM      5  C   UNL     1       2.180   8.638  18.337  0.00  0.00    +0.000 C 
ATOM      6  C   UNL     1       1.034   9.658  18.126  0.00  0.00    +0.000 C 
ENDROOT
BRANCH   1   7
ATOM      7  O   UNL     1       1.444  11.313  19.897  0.00  0.00    +0.000 OA
BRANCH   7   8
ATOM      8  C   UNL     1       1.042  12.364  20.678  0.00  0.00    +0.000 C 
ATOM      9  O   UNL     1       1.864  12.901  21.405  0.00  0.00    +0.000 OA
BRANCH   8  15
ATOM     10  C   UNL     1      -3.840  13.354  21.970  0.00  0.00    +0.000 C 
ATOM     11  C   UNL     1      -2.500  13.308  21.290  0.00  0.00    +0.000 A 
ATOM     12  N   UNL     1      -2.225  14.019  20.188  0.00  0.00    +0.000 N 
ATOM     13  C   UNL     1      -0.951  13.758  19.844  0.00  0.00    +0.000 A 
ATOM     14  C   UNL     1      -0.298  14.406  18.662  0.00  0.00    +0.000 C 
ATOM     15  C   UNL     1      -0.377  12.848  20.742  0.00  0.00    +0.000 A 
ATOM     16  C   UNL     1      -1.383  12.558  21.668  0.00  0.00    +0.000 A 
ATOM     17  C   UNL     1      -1.325  11.624  22.836  0.00  0.00    +0.000 C 
ATOM     18  H   UNL     1      -2.880  14.668  19.692  0.00  0.00    +0.000 HD
ENDBRANCH   8  15
ENDBRANCH   7   8
ENDBRANCH   1   7
BRANCH   4  19
ATOM     19  C   UNL     1       2.810   6.566  19.498  0.00  0.00    +0.000 C 
BRANCH  19  20
ATOM     20  C   UNL     1       2.171   5.187  19.446  0.00  0.00    +0.000 A 
ATOM     21  C   UNL     1       1.968   4.531  18.217  0.00  0.00    +0.000 A 
ATOM     22  C   UNL     1       1.353   3.272  18.179  0.00  0.00    +0.000 A 
ATOM     23  C   UNL     1       0.939   2.658  19.364  0.00  0.00    +0.000 A 
ATOM     24  C   UNL     1       1.140   3.300  20.587  0.00  0.00    +0.000 A 
ATOM     25  C   UNL     1       1.752   4.557  20.632  0.00  0.00    +0.000 A 
ENDBRANCH  19  20
ENDBRANCH   4  19
TORSDOF 5
ENDMDL
MODEL 4
REMARK VINA RESULT:      -7.1      0.780      2.024
REMARK  Name = 
REMARK  8 active torsions:
REMARK  status: ('A' for Active; 'I' for Inactive)
REMARK    1  A    between atoms: C_1  and  C_2
REMARK    2  A    between atoms: C_4  and  C_5
REMARK    3  A    between atoms: C_6  and  C_7
REMARK    4  A    between atoms: C_7  and  O_9
REMARK    5  A    between atoms: O_9  and  C_10
REMARK    6  A    between atoms: N_13  and  C_14
REMARK    7  A    between atoms: C_14  and  C_15
REMARK    8  A    between atoms: C_23  and  C_24
REMARK                            x       y       z     vdW  Elec       q    Type
REMARK                         _______ _______ _______ _____ _____    ______ ____
ROOT
ATOM      1  C   UNL     1       2.758   6.009  19.193  0.00  0.00    +0.000 C 
ATOM      2  C   UNL     1       2.371   6.794  17.919  0.00  0.00    +0.000 C 
ATOM      3  C   UNL     1       2.422   8.299  18.181  0.00  0.00    +0.000 C 
ATOM      4  N   UNL     1       1.385   8.628  19.181  0.00  0.00    +0.000 NA
ATOM      5  C   UNL     1       1.741   8.011  20.481  0.00  0.00    +0.000 C 
ATOM      6  C   UNL     1       1.823   6.471  20.341  0.00  0.00    +0.000 C 
ENDROOT
BRANCH   1   7
ATOM      7  O   UNL     1       4.115   6.118  19.527  0.00  0.00    +0.000 OA
BRANCH   7   8
ATOM      8  C   UNL     1       5.048   5.192  19.141  0.00  0.00    +0.000 C 
ATOM      9  O   UNL     1       5.713   4.636  20.002  0.00  0.00    +0.000 OA
BRANCH   8  15
ATOM     10  C   UNL     1       6.997   4.940  14.385  0.00  0.00    +0.000 C 
ATOM     11  C   UNL     1       6.186   4.731  15.633  0.00  0.00    +0.000 A 
ATOM     12  N   UNL     1       5.213   3.813  15.716  0.00  0.00    +0.000 N 
ATOM     13  C   UNL     1       4.697   3.879  16.957  0.00  0.00    +0.000 A 
ATOM     14  C   UNL     1       3.596   2.971  17.410  0.00  0.00    +0.000 C 
ATOM     15  C   UNL     1       5.346   4.871  17.705  0.00  0.00    +0.000 A 
ATOM     16  C   UNL     1       6.300   5.419  16.844  0.00  0.00    +0.000 A 
ATOM     17  C   UNL     1       7.261   6.534  17.116  0.00  0.00    +0.000 C 
ATOM     18  H   UNL     1       4.917   3.155  14.957  0.00  0.00    +0.000 HD
ENDBRANCH   8  15
ENDBRANCH   7   8
ENDBRANCH   1   7
BRANCH   4  19
ATOM     19  C   UNL     1       1.155  10.086  19.302  0.00  0.00    +0.000 C 
BRANCH  19  20
ATOM     20  C   UNL     1      -0.249  10.474  18.865  0.00  0.00    +0.000 A 
ATOM     21  C   UNL     1      -0.989  11.433  19.581  0.00  0.00    +0.000 A 
ATOM     22  C   UNL     1      -2.293  11.762  19.185  0.00  0.00    +0.000 A 
ATOM     23  C   UNL     1      -2.865  11.141  18.072  0.00  0.00    +0.000 A 
ATOM     24  C   UNL     1      -2.137  10.191  17.354  0.00  0.00    +0.000 A 
ATOM     25  C   UNL     1      -0.836   9.856  17.745  0.00  0.00    +0.000 A 
ENDBRANCH  19  20
ENDBRANCH   4  19
TORSDOF 5
ENDMDL
MODEL 5
REMARK VINA RESULT:      -7.1      0.799      1.164
REMARK  Name = 
REMARK  8 active torsions:
REMARK  status: ('A' for Active; 'I' for Inactive)
REMARK    1  A    between atoms: C_1  and  C_2
REMARK    2  A    between atoms: C_4  and  C_5
REMARK    3  A    between atoms: C_6  and  C_7
REMARK    4  A    between atoms: C_7  and  O_9
REMARK    5  A    between atoms: O_9  and  C_10
REMARK    6  A    between atoms: N_13  and  C_14
REMARK    7  A    between atoms: C_14  and  C_15
REMARK    8  A    between atoms: C_23  and  C_24
REMARK                            x       y       z     vdW  Elec       q    Type
REMARK                         _______ _______ _______ _____ _____    ______ ____
ROOT
ATOM      1  C   UNL     1       2.985   6.180  18.912  0.00  0.00    +0.000 C 
ATOM      2  C   UNL     1       2.408   7.296  18.014  0.00  0.00    +0.000 C 
ATOM      3  C   UNL     1       2.234   8.588  18.810  0.00  0.00    +0.000 C 
ATOM      4  N   UNL     1       1.216   8.353  19.855  0.00  0.00    +0.000 NA
ATOM      5  C   UNL     1       1.738   7.376  20.839  0.00  0.00    +0.000 C 
ATOM      6  C   UNL     1       2.055   6.028  20.144  0.00  0.00    +0.000 C 
ENDROOT
BRANCH   1   7
ATOM      7  O   UNL     1       4.324   6.385  19.270  0.00  0.00    +0.000 OA
BRANCH   7   8
ATOM      8  C   UNL     1       5.322   5.508  18.937  0.00  0.00    +0.000 C 
ATOM      9  O   UNL     1       5.863   4.870  19.828  0.00  0.00    +0.000 OA
BRANCH   8  15
ATOM     10  C   UNL     1       6.147   4.085  14.061  0.00  0.00    +0.000 C 
ATOM     11  C   UNL     1       6.208   4.750  15.408  0.00  0.00    +0.000 A 
ATOM     12  N   UNL     1       7.066   5.740  15.687  0.00  0.00    +0.000 N 
ATOM     13  C   UNL     1       6.857   6.111  16.963  0.00  0.00    +0.000 A 
ATOM     14  C   UNL     1       7.633   7.220  17.606  0.00  0.00    +0.000 C 
ATOM     15  C   UNL     1       5.838   5.339  17.537  0.00  0.00    +0.000 A 
ATOM     16  C   UNL     1       5.428   4.460  16.532  0.00  0.00    +0.000 A 
ATOM     17  C   UNL     1       4.380   3.394  16.604  0.00  0.00    +0.000 C 
ATOM     18  H   UNL     1       7.764   6.157  15.027  0.00  0.00    +0.000 HD
ENDBRANCH   8  15
ENDBRANCH   7   8
ENDBRANCH   1   7
BRANCH   4  19
ATOM     19  C   UNL     1       0.766   9.607  20.502  0.00  0.00    +0.000 C 
BRANCH  19  20
ATOM     20  C   UNL     1      -0.032  10.480  19.546  0.00  0.00    +0.000 A 
ATOM     21  C   UNL     1       0.333  11.819  19.315  0.00  0.00    +0.000 A 
ATOM     22  C   UNL     1      -0.426  12.622  18.453  0.00  0.00    +0.000 A 
ATOM     23  C   UNL     1      -1.551  12.096  17.814  0.00  0.00    +0.000 A 
ATOM     24  C   UNL     1      -1.919  10.768  18.035  0.00  0.00    +0.000 A 
ATOM     25  C   UNL     1      -1.167   9.961  18.895  0.00  0.00    +0.000 A 
ENDBRANCH  19  20
ENDBRANCH   4  19
TORSDOF 5
ENDMDL
MODEL 6
REMARK VINA RESULT:      -7.1      3.832      8.698
REMARK  Name = 
REMARK  8 active torsions:
REMARK  status: ('A' for Active; 'I' for Inactive)
REMARK    1  A    between atoms: C_1  and  C_2
REMARK    2  A    between atoms: C_4  and  C_5
REMARK    3  A    between atoms: C_6  and  C_7
REMARK    4  A    between atoms: C_7  and  O_9
REMARK    5  A    between atoms: O_9  and  C_10
REMARK    6  A    between atoms: N_13  and  C_14
REMARK    7  A    between atoms: C_14  and  C_15
REMARK    8  A    between atoms: C_23  and  C_24
REMARK                            x       y       z     vdW  Elec       q    Type
REMARK                         _______ _______ _______ _____ _____    ______ ____
ROOT
ATOM      1  C   UNL     1       0.629  10.382  19.086  0.00  0.00    +0.000 C 
ATOM      2  C   UNL     1       0.396   9.430  20.280  0.00  0.00    +0.000 C 
ATOM      3  C   UNL     1       1.627   8.554  20.514  0.00  0.00    +0.000 C 
ATOM      4  N   UNL     1       1.801   7.679  19.337  0.00  0.00    +0.000 NA
ATOM      5  C   UNL     1       2.151   8.505  18.157  0.00  0.00    +0.000 C 
ATOM      6  C   UNL     1       1.021   9.521  17.857  0.00  0.00    +0.000 C 
ENDROOT
BRANCH   1   7
ATOM      7  O   UNL     1       1.560  11.396  19.351  0.00  0.00    +0.000 OA
BRANCH   7   8
ATOM      8  C   UNL     1       1.291  12.446  20.189  0.00  0.00    +0.000 C 
ATOM      9  O   UNL     1       1.694  12.395  21.341  0.00  0.00    +0.000 OA
BRANCH   8  15
ATOM     10  C   UNL     1      -0.464  16.884  18.263  0.00  0.00    +0.000 C 
ATOM     11  C   UNL     1      -0.330  15.550  18.943  0.00  0.00    +0.000 A 
ATOM     12  N   UNL     1      -1.370  14.917  19.503  0.00  0.00    +0.000 N 
ATOM     13  C   UNL     1      -0.914  13.758  20.012  0.00  0.00    +0.000 A 
ATOM     14  C   UNL     1      -1.818  12.781  20.697  0.00  0.00    +0.000 C 
ATOM     15  C   UNL     1       0.463  13.631  19.785  0.00  0.00    +0.000 A 
ATOM     16  C   UNL     1       0.834  14.792  19.100  0.00  0.00    +0.000 A 
ATOM     17  C   UNL     1       2.196  15.192  18.627  0.00  0.00    +0.000 C 
ATOM     18  H   UNL     1      -2.360  15.258  19.528  0.00  0.00    +0.000 HD
ENDBRANCH   8  15
ENDBRANCH   7   8
ENDBRANCH   1   7
BRANCH   4  19
ATOM     19  C   UNL     1       2.788   6.600  19.572  0.00  0.00    +0.000 C 
BRANCH  19  20
ATOM     20  C   UNL     1       2.143   5.224  19.519  0.00  0.00    +0.000 A 
ATOM     21  C   UNL     1       1.959   4.559  18.292  0.00  0.00    +0.000 A 
ATOM     22  C   UNL     1       1.337   3.304  18.253  0.00  0.00    +0.000 A 
ATOM     23  C   UNL     1       0.898   2.702  19.435  0.00  0.00    +0.000 A 
ATOM     24  C   UNL     1       1.079   3.352  20.656  0.00  0.00    +0.000 A 
ATOM     25  C   UNL     1       1.697   4.606  20.703  0.00  0.00    +0.000 A 
ENDBRANCH  19  20
ENDBRANCH   4  19
TORSDOF 5
ENDMDL
MODEL 7
REMARK VINA RESULT:      -7.1      3.883      8.841
REMARK  Name = 
REMARK  8 active torsions:
REMARK  status: ('A' for Active; 'I' for Inactive)
REMARK    1  A    between atoms: C_1  and  C_2
REMARK    2  A    between atoms: C_4  and  C_5
REMARK    3  A    between atoms: C_6  and  C_7
REMARK    4  A    between atoms: C_7  and  O_9
REMARK    5  A    between atoms: O_9  and  C_10
REMARK    6  A    between atoms: N_13  and  C_14
REMARK    7  A    between atoms: C_14  and  C_15
REMARK    8  A    between atoms: C_23  and  C_24
REMARK                            x       y       z     vdW  Elec       q    Type
REMARK                         _______ _______ _______ _____ _____    ______ ____
ROOT
ATOM      1  C   UNL     1       0.566  10.370  19.190  0.00  0.00    +0.000 C 
ATOM      2  C   UNL     1       0.246   9.335  20.291  0.00  0.00    +0.000 C 
ATOM      3  C   UNL     1       1.470   8.469  20.585  0.00  0.00    +0.000 C 
ATOM      4  N   UNL     1       1.777   7.680  19.375  0.00  0.00    +0.000 NA
ATOM      5  C   UNL     1       2.216   8.590  18.291  0.00  0.00    +0.000 C 
ATOM      6  C   UNL     1       1.093   9.602  17.950  0.00  0.00    +0.000 C 
ENDROOT
BRANCH   1   7
ATOM      7  O   UNL     1       1.440  11.382  19.609  0.00  0.00    +0.000 OA
BRANCH   7   8
ATOM      8  C   UNL     1       1.098  12.310  20.557  0.00  0.00    +0.000 C 
ATOM      9  O   UNL     1       1.945  12.664  21.363  0.00  0.00    +0.000 OA
BRANCH   8  15
ATOM     10  C   UNL     1      -3.646  13.546  22.123  0.00  0.00    +0.000 C 
ATOM     11  C   UNL     1      -2.350  13.434  21.368  0.00  0.00    +0.000 A 
ATOM     12  N   UNL     1      -2.100  14.136  20.255  0.00  0.00    +0.000 N 
ATOM     13  C   UNL     1      -0.863  13.811  19.839  0.00  0.00    +0.000 A 
ATOM     14  C   UNL     1      -0.244  14.431  18.624  0.00  0.00    +0.000 C 
ATOM     15  C   UNL     1      -0.288  12.868  20.701  0.00  0.00    +0.000 A 
ATOM     16  C   UNL     1      -1.254  12.625  21.681  0.00  0.00    +0.000 A 
ATOM     17  C   UNL     1      -1.180  11.682  22.841  0.00  0.00    +0.000 C 
ATOM     18  H   UNL     1      -2.747  14.822  19.798  0.00  0.00    +0.000 HD
ENDBRANCH   8  15
ENDBRANCH   7   8
ENDBRANCH   1   7
BRANCH   4  19
ATOM     19  C   UNL     1       2.765   6.606  19.632  0.00  0.00    +0.000 C 
BRANCH  19  20
ATOM     20  C   UNL     1       2.130   5.226  19.559  0.00  0.00    +0.000 A 
ATOM     21  C   UNL     1       1.742   4.547  20.729  0.00  0.00    +0.000 A 
ATOM     22  C   UNL     1       1.184   3.264  20.652  0.00  0.00    +0.000 A 
ATOM     23  C   UNL     1       1.005   2.652  19.409  0.00  0.00    +0.000 A 
ATOM     24  C   UNL     1       1.384   3.319  18.243  0.00  0.00    +0.000 A 
ATOM     25  C   UNL     1       1.944   4.599  18.313  0.00  0.00    +0.000 A 
ENDBRANCH  19  20
ENDBRANCH   4  19
TORSDOF 5
ENDMDL
MODEL 8
REMARK VINA RESULT:      -7.0      2.283      3.424
REMARK  Name = 
REMARK  8 active torsions:
REMARK  status: ('A' for Active; 'I' for Inactive)
REMARK    1  A    between atoms: C_1  and  C_2
REMARK    2  A    between atoms: C_4  and  C_5
REMARK    3  A    between atoms: C_6  and  C_7
REMARK    4  A    between atoms: C_7  and  O_9
REMARK    5  A    between atoms: O_9  and  C_10
REMARK    6  A    between atoms: N_13  and  C_14
REMARK    7  A    between atoms: C_14  and  C_15
REMARK    8  A    between atoms: C_23  and  C_24
REMARK                            x       y       z     vdW  Elec       q    Type
REMARK                         _______ _______ _______ _____ _____    ______ ____
ROOT
ATOM      1  C   UNL     1       2.619   7.169  18.788  0.00  0.00    +0.000 C 
ATOM      2  C   UNL     1       2.154   7.633  20.186  0.00  0.00    +0.000 C 
ATOM      3  C   UNL     1       0.814   8.361  20.091  0.00  0.00    +0.000 C 
ATOM      4  N   UNL     1       1.016   9.598  19.309  0.00  0.00    +0.000 NA
ATOM      5  C   UNL     1       1.349   9.246  17.908  0.00  0.00    +0.000 C 
ATOM      6  C   UNL     1       2.653   8.410  17.859  0.00  0.00    +0.000 C 
ENDROOT
BRANCH   1   7
ATOM      7  O   UNL     1       1.850   6.122  18.261  0.00  0.00    +0.000 OA
BRANCH   7   8
ATOM      8  C   UNL     1       2.399   4.940  17.842  0.00  0.00    +0.000 C 
ATOM      9  O   UNL     1       1.667   4.096  17.348  0.00  0.00    +0.000 OA
BRANCH   8  15
ATOM     10  C   UNL     1       7.528   4.627  17.547  0.00  0.00    +0.000 C 
ATOM     11  C   UNL     1       6.083   4.451  17.924  0.00  0.00    +0.000 A 
ATOM     12  N   UNL     1       5.690   3.652  18.925  0.00  0.00    +0.000 N 
ATOM     13  C   UNL     1       4.348   3.727  19.002  0.00  0.00    +0.000 A 
ATOM     14  C   UNL     1       3.568   2.973  20.034  0.00  0.00    +0.000 C 
ATOM     15  C   UNL     1       3.849   4.595  18.021  0.00  0.00    +0.000 A 
ATOM     16  C   UNL     1       4.972   5.054  17.326  0.00  0.00    +0.000 A 
ATOM     17  C   UNL     1       5.020   5.989  16.159  0.00  0.00    +0.000 C 
ATOM     18  H   UNL     1       6.314   3.083  19.543  0.00  0.00    +0.000 HD
ENDBRANCH   8  15
ENDBRANCH   7   8
ENDBRANCH   1   7
BRANCH   4  19
ATOM     19  C   UNL     1      -0.143  10.517  19.389  0.00  0.00    +0.000 C 
BRANCH  19  20
ATOM     20  C   UNL     1       0.286  11.974  19.314  0.00  0.00    +0.000 A 
ATOM     21  C   UNL     1       1.496  12.401  19.892  0.00  0.00    +0.000 A 
ATOM     22  C   UNL     1       1.869  13.751  19.841  0.00  0.00    +0.000 A 
ATOM     23  C   UNL     1       1.040  14.683  19.211  0.00  0.00    +0.000 A 
ATOM     24  C   UNL     1      -0.160  14.268  18.632  0.00  0.00    +0.000 A 
ATOM     25  C   UNL     1      -0.539  12.922  18.681  0.00  0.00    +0.000 A 
ENDBRANCH  19  20
ENDBRANCH   4  19
TORSDOF 5
ENDMDL
MODEL 9
REMARK VINA RESULT:      -6.8      3.103      8.789
REMARK  Name = 
REMARK  8 active torsions:
REMARK  status: ('A' for Active; 'I' for Inactive)
REMARK    1  A    between atoms: C_1  and  C_2
REMARK    2  A    between atoms: C_4  and  C_5
REMARK    3  A    between atoms: C_6  and  C_7
REMARK    4  A    between atoms: C_7  and  O_9
REMARK    5  A    between atoms: O_9  and  C_10
REMARK    6  A    between atoms: N_13  and  C_14
REMARK    7  A    between atoms: C_14  and  C_15
REMARK    8  A    between atoms: C_23  and  C_24
REMARK                            x       y       z     vdW  Elec       q    Type
REMARK                         _______ _______ _______ _____ _____    ______ ____
ROOT
ATOM      1  C   UNL     1       0.489   9.632  20.006  0.00  0.00    +0.000 C 
ATOM      2  C   UNL     1       0.791   8.194  20.484  0.00  0.00    +0.000 C 
ATOM      3  C   UNL     1       2.168   7.746  19.996  0.00  0.00    +0.000 C 
ATOM      4  N   UNL     1       2.135   7.676  18.521  0.00  0.00    +0.000 NA
ATOM      5  C   UNL     1       1.970   9.041  17.967  0.00  0.00    +0.000 C 
ATOM      6  C   UNL     1       0.642   9.666  18.464  0.00  0.00    +0.000 C 
ENDROOT
BRANCH   1   7
ATOM      7  O   UNL     1       1.265  10.609  20.646  0.00  0.00    +0.000 OA
BRANCH   7   8
ATOM      8  C   UNL     1       0.823  11.889  20.848  0.00  0.00    +0.000 C 
ATOM      9  O   UNL     1       1.628  12.739  21.198  0.00  0.00    +0.000 OA
BRANCH   8  15
ATOM     10  C   UNL     1      -4.173  12.845  21.626  0.00  0.00    +0.000 C 
ATOM     11  C   UNL     1      -2.791  12.734  21.046  0.00  0.00    +0.000 A 
ATOM     12  N   UNL     1      -2.477  13.208  19.833  0.00  0.00    +0.000 N 
ATOM     13  C   UNL     1      -1.172  12.955  19.623  0.00  0.00    +0.000 A 
ATOM     14  C   UNL     1      -0.473  13.372  18.366  0.00  0.00    +0.000 C 
ATOM     15  C   UNL     1      -0.618  12.293  20.727  0.00  0.00    +0.000 A 
ATOM     16  C   UNL     1      -1.668  12.148  21.638  0.00  0.00    +0.000 A 
ATOM     17  C   UNL     1      -1.645  11.490  22.982  0.00  0.00    +0.000 C 
ATOM     18  H   UNL     1      -3.126  13.697  19.173  0.00  0.00    +0.000 HD
ENDBRANCH   8  15
ENDBRANCH   7   8
ENDBRANCH   1   7
BRANCH   4  19
ATOM     19  C   UNL     1       3.320   6.988  17.958  0.00  0.00    +0.000 C 
BRANCH  19  20
ATOM     20  C   UNL     1       3.105   5.486  17.859  0.00  0.00    +0.000 A 
ATOM     21  C   UNL     1       1.808   4.939  17.882  0.00  0.00    +0.000 A 
ATOM     22  C   UNL     1       1.623   3.551  17.818  0.00  0.00    +0.000 A 
ATOM     23  C   UNL     1       2.727   2.700  17.728  0.00  0.00    +0.000 A 
ATOM     24  C   UNL     1       4.017   3.234  17.702  0.00  0.00    +0.000 A 
ATOM     25  C   UNL     1       4.209   4.618  17.767  0.00  0.00    +0.000 A 
ENDBRANCH  19  20
ENDBRANCH   4  19
TORSDOF 5
ENDMDL
