MODEL 1
REMARK VINA RESULT:      -7.5      0.000      0.000
REMARK  Name = 
REMARK  10 active torsions:
REMARK  status: ('A' for Active; 'I' for Inactive)
REMARK    1  A    between atoms: C_1  and  C_2
REMARK    2  A    between atoms: C_2  and  C_3
REMARK    3  A    between atoms: C_4  and  C_5
REMARK    4  A    between atoms: N_7  and  C_8
REMARK    5  A    between atoms: C_8  and  C_9
REMARK    6  A    between atoms: C_9  and  O_11
REMARK    7  A    between atoms: O_11  and  C_12
REMARK    8  A    between atoms: C_12  and  C_13
REMARK    9  A    between atoms: N_18  and  C_19
REMARK   10  A    between atoms: C_22  and  C_23
REMARK                            x       y       z     vdW  Elec       q    Type
REMARK                         _______ _______ _______ _____ _____    ______ ____
ROOT
ATOM      1  C   UNL     1       2.336   6.894  19.592  0.00  0.00    +0.000 A 
ATOM      2  C   UNL     1       3.046   6.637  18.418  0.00  0.00    +0.000 A 
ATOM      3  C   UNL     1       2.953   7.835  17.692  0.00  0.00    +0.000 A 
ATOM      4  N   UNL     1       2.171   8.737  18.276  0.00  0.00    +0.000 NA
ATOM      5  N   UNL     1       1.832   8.190  19.476  0.00  0.00    +0.000 N 
ENDROOT
BRANCH   5   6
ATOM      6  C   UNL     1       1.037   8.959  20.379  0.00  0.00    +0.000 A 
ATOM      7  C   UNL     1       1.141   8.720  21.758  0.00  0.00    +0.000 A 
ATOM      8  C   UNL     1       0.374   9.461  22.667  0.00  0.00    +0.000 A 
ATOM      9  C   UNL     1      -0.529  10.425  22.212  0.00  0.00    +0.000 A 
ATOM     10  C   UNL     1      -1.408  11.185  23.159  0.00  0.00    +0.000 C 
ATOM     11  C   UNL     1      -0.647  10.648  20.840  0.00  0.00    +0.000 A 
ATOM     12  C   UNL     1       0.131   9.925  19.933  0.00  0.00    +0.000 A 
ENDBRANCH   5   6
BRANCH   2  13
ATOM     13  C   UNL     1       3.696   5.385  18.049  0.00  0.00    +0.000 C 
ATOM     14  O   UNL     1       3.112   4.501  17.430  0.00  0.00    +0.000 OA
ATOM     15  N   UNL     1       5.024   5.275  18.378  0.00  0.00    +0.000 N 
ATOM     16  H   UNL     1       5.545   6.087  18.703  0.00  0.00    +0.000 HD
BRANCH  15  17
ATOM     17  C   UNL     1       5.790   4.157  17.853  0.00  0.00    +0.000 C 
BRANCH  17  18
ATOM     18  C   UNL     1       6.682   4.531  16.680  0.00  0.00    +0.000 C 
ATOM     19  O   UNL     1       7.867   4.828  16.770  0.00  0.00    +0.000 OA
BRANCH  18  20
ATOM     20  O   UNL     1       5.918   4.643  15.558  0.00  0.00    +0.000 OA
BRANCH  20  21
ATOM     21  C   UNL     1       6.107   3.603  14.594  0.00  0.00    +0.000 C 
BRANCH  21  22
ATOM     22  C   UNL     1       5.992   4.118  13.199  0.00  0.00    +0.000 C 
ATOM     23  C   UNL     1       6.750   3.502  12.051  0.00  0.00    +0.000 C 
ATOM     24  C   UNL     1       5.268   3.282  12.168  0.00  0.00    +0.000 C 
ENDBRANCH  21  22
ENDBRANCH  20  21
ENDBRANCH  18  20
ENDBRANCH  17  18
ENDBRANCH  15  17
ENDBRANCH   2  13
BRANCH   1  26
ATOM     25  C   UNL     1       1.057   4.829  20.259  0.00  0.00    +0.000 C 
ATOM     26  C   UNL     1       2.009   5.934  20.699  0.00  0.00    +0.000 C 
ENDBRANCH   1  26
TORSDOF 8
ENDMDL
MODEL 2
REMARK VINA RESULT:      -7.4      0.765      1.325
REMARK  Name = 
REMARK  10 active torsions:
REMARK  status: ('A' for Active; 'I' for Inactive)
REMARK    1  A    between atoms: C_1  and  C_2
REMARK    2  A    between atoms: C_2  and  C_3
REMARK    3  A    between atoms: C_4  and  C_5
REMARK    4  A    between atoms: N_7  and  C_8
REMARK    5  A    between atoms: C_8  and  C_9
REMARK    6  A    between atoms: C_9  and  O_11
REMARK    7  A    between atoms: O_11  and  C_12
REMARK    8  A    between atoms: C_12  and  C_13
REMARK    9  A    between atoms: N_18  and  C_19
REMARK   10  A    between atoms: C_22  and  C_23
REMARK                            x       y       z     vdW  Elec       q    Type
REMARK                         _______ _______ _______ _____ _____    ______ ____
ROOT
ATOM      1  C   UNL     1       2.382   6.978  19.622  0.00  0.00    +0.000 A 
ATOM      2  C   UNL     1       3.089   6.749  18.440  0.00  0.00    +0.000 A 
ATOM      3  C   UNL     1       2.911   7.929  17.700  0.00  0.00    +0.000 A 
ATOM      4  N   UNL     1       2.083   8.789  18.285  0.00  0.00    +0.000 NA
ATOM      5  N   UNL     1       1.796   8.239  19.497  0.00  0.00    +0.000 N 
ENDROOT
BRANCH   5   6
ATOM      6  C   UNL     1       0.968   8.969  20.402  0.00  0.00    +0.000 A 
ATOM      7  C   UNL     1       0.563  10.269  20.065  0.00  0.00    +0.000 A 
ATOM      8  C   UNL     1      -0.252  11.008  20.933  0.00  0.00    +0.000 A 
ATOM      9  C   UNL     1      -0.645  10.473  22.163  0.00  0.00    +0.000 A 
ATOM     10  C   UNL     1      -1.461  11.266  23.139  0.00  0.00    +0.000 C 
ATOM     11  C   UNL     1      -0.225   9.188  22.507  0.00  0.00    +0.000 A 
ATOM     12  C   UNL     1       0.570   8.442  21.634  0.00  0.00    +0.000 A 
ENDBRANCH   5   6
BRANCH   2  13
ATOM     13  C   UNL     1       3.811   5.536  18.078  0.00  0.00    +0.000 C 
ATOM     14  O   UNL     1       3.378   4.740  17.249  0.00  0.00    +0.000 OA
ATOM     15  N   UNL     1       5.037   5.363  18.670  0.00  0.00    +0.000 N 
ATOM     16  H   UNL     1       5.471   6.122  19.190  0.00  0.00    +0.000 HD
BRANCH  15  17
ATOM     17  C   UNL     1       5.904   4.297  18.196  0.00  0.00    +0.000 C 
BRANCH  17  18
ATOM     18  C   UNL     1       7.353   4.727  18.022  0.00  0.00    +0.000 C 
ATOM     19  O   UNL     1       8.059   5.179  18.915  0.00  0.00    +0.000 OA
BRANCH  18  20
ATOM     20  O   UNL     1       7.673   4.686  16.699  0.00  0.00    +0.000 OA
BRANCH  20  21
ATOM     21  C   UNL     1       6.747   3.968  15.878  0.00  0.00    +0.000 C 
BRANCH  21  22
ATOM     22  C   UNL     1       6.468   4.690  14.602  0.00  0.00    +0.000 C 
ATOM     23  C   UNL     1       6.648   4.038  13.255  0.00  0.00    +0.000 C 
ATOM     24  C   UNL     1       5.264   4.287  13.782  0.00  0.00    +0.000 C 
ENDBRANCH  21  22
ENDBRANCH  20  21
ENDBRANCH  18  20
ENDBRANCH  17  18
ENDBRANCH  15  17
ENDBRANCH   2  13
BRANCH   1  26
ATOM     25  C   UNL     1       1.289   4.819  20.322  0.00  0.00    +0.000 C 
ATOM     26  C   UNL     1       2.132   6.016  20.746  0.00  0.00    +0.000 C 
ENDBRANCH   1  26
TORSDOF 8
ENDMDL
MODEL 3
REMARK VINA RESULT:      -7.4      5.335      7.821
REMARK  Name = 
REMARK  10 active torsions:
REMARK  status: ('A' for Active; 'I' for Inactive)
REMARK    1  A    between atoms: C_1  and  C_2
REMARK    2  A    between atoms: C_2  and  C_3
REMARK    3  A    between atoms: C_4  and  C_5
REMARK    4  A    between atoms: N_7  and  C_8
REMARK    5  A    between atoms: C_8  and  C_9
REMARK    6  A    between atoms: C_9  and  O_11
REMARK    7  A    between atoms: O_11  and  C_12
REMARK    8  A    between atoms: C_12  and  C_13
REMARK    9  A    between atoms: N_18  and  C_19
REMARK   10  A    between atoms: C_22  and  C_23
REMARK                            x       y       z     vdW  Elec       q    Type
REMARK                         _______ _______ _______ _____ _____    ______ ____
ROOT
ATOM      1  C   UNL     1       5.927   6.287  18.047  0.00  0.00    +0.000 A 
ATOM      2  C   UNL     1       7.224   6.638  18.425  0.00  0.00    +0.000 A 
ATOM      3  C   UNL     1       7.578   5.668  19.377  0.00  0.00    +0.000 A 
ATOM      4  N   UNL     1       6.579   4.843  19.673  0.00  0.00    +0.000 NA
ATOM      5  N   UNL     1       5.574   5.178  18.818  0.00  0.00    +0.000 N 
ENDROOT
BRANCH   5   6
ATOM      6  C   UNL     1       4.368   4.415  18.845  0.00  0.00    +0.000 A 
ATOM      7  C   UNL     1       4.206   3.357  17.938  0.00  0.00    +0.000 A 
ATOM      8  C   UNL     1       3.033   2.590  17.944  0.00  0.00    +0.000 A 
ATOM      9  C   UNL     1       1.995   2.889  18.830  0.00  0.00    +0.000 A 
ATOM     10  C   UNL     1       0.704   2.127  18.812  0.00  0.00    +0.000 C 
ATOM     11  C   UNL     1       2.148   3.955  19.717  0.00  0.00    +0.000 A 
ATOM     12  C   UNL     1       3.325   4.707  19.727  0.00  0.00    +0.000 A 
ENDBRANCH   5   6
BRANCH   2  13
ATOM     13  C   UNL     1       7.995   7.777  17.942  0.00  0.00    +0.000 C 
ATOM     14  O   UNL     1       8.115   8.026  16.746  0.00  0.00    +0.000 OA
ATOM     15  N   UNL     1       8.527   8.598  18.904  0.00  0.00    +0.000 N 
ATOM     16  H   UNL     1       8.250   8.499  19.878  0.00  0.00    +0.000 HD
BRANCH  15  17
ATOM     17  C   UNL     1       9.117   9.865  18.503  0.00  0.00    +0.000 C 
BRANCH  17  18
ATOM     18  C   UNL     1       9.707  10.653  19.662  0.00  0.00    +0.000 C 
ATOM     19  O   UNL     1       9.108  10.928  20.695  0.00  0.00    +0.000 OA
BRANCH  18  20
ATOM     20  O   UNL     1      10.925  11.137  19.296  0.00  0.00    +0.000 OA
BRANCH  20  21
ATOM     21  C   UNL     1      11.136  12.521  19.591  0.00  0.00    +0.000 C 
BRANCH  21  22
ATOM     22  C   UNL     1      11.564  13.283  18.382  0.00  0.00    +0.000 C 
ATOM     23  C   UNL     1      10.920  13.079  17.035  0.00  0.00    +0.000 C 
ATOM     24  C   UNL     1      10.638  14.333  17.813  0.00  0.00    +0.000 C 
ENDBRANCH  21  22
ENDBRANCH  20  21
ENDBRANCH  18  20
ENDBRANCH  17  18
ENDBRANCH  15  17
ENDBRANCH   2  13
BRANCH   1  26
ATOM     25  C   UNL     1       5.083   6.551  15.689  0.00  0.00    +0.000 C 
ATOM     26  C   UNL     1       5.001   7.034  17.132  0.00  0.00    +0.000 C 
ENDBRANCH   1  26
TORSDOF 8
ENDMDL
MODEL 4
REMARK VINA RESULT:      -7.3      5.305      7.827
REMARK  Name = 
REMARK  10 active torsions:
REMARK  status: ('A' for Active; 'I' for Inactive)
REMARK    1  A    between atoms: C_1  and  C_2
REMARK    2  A    between atoms: C_2  and  C_3
REMARK    3  A    between atoms: C_4  and  C_5
REMARK    4  A    between atoms: N_7  and  C_8
REMARK    5  A    between atoms: C_8  and  C_9
REMARK    6  A    between atoms: C_9  and  O_11
REMARK    7  A    between atoms: O_11  and  C_12
REMARK    8  A    between atoms: C_12  and  C_13
REMARK    9  A    between atoms: N_18  and  C_19
REMARK   10  A    between atoms: C_22  and  C_23
REMARK                            x       y       z     vdW  Elec       q    Type
REMARK                         _______ _______ _______ _____ _____    ______ ____
ROOT
ATOM      1  C   UNL     1       5.911   6.191  17.952  0.00  0.00    +0.000 A 
ATOM      2  C   UNL     1       7.180   6.568  18.393  0.00  0.00    +0.000 A 
ATOM      3  C   UNL     1       7.462   5.669  19.434  0.00  0.00    +0.000 A 
ATOM      4  N   UNL     1       6.441   4.866  19.718  0.00  0.00    +0.000 NA
ATOM      5  N   UNL     1       5.500   5.139  18.773  0.00  0.00    +0.000 N 
ENDROOT
BRANCH   5   6
ATOM      6  C   UNL     1       4.291   4.380  18.769  0.00  0.00    +0.000 A 
ATOM      7  C   UNL     1       3.282   4.693  19.692  0.00  0.00    +0.000 A 
ATOM      8  C   UNL     1       2.084   3.966  19.709  0.00  0.00    +0.000 A 
ATOM      9  C   UNL     1       1.891   2.897  18.830  0.00  0.00    +0.000 A 
ATOM     10  C   UNL     1       0.647   2.062  18.872  0.00  0.00    +0.000 C 
ATOM     11  C   UNL     1       2.903   2.573  17.927  0.00  0.00    +0.000 A 
ATOM     12  C   UNL     1       4.090   3.310  17.894  0.00  0.00    +0.000 A 
ENDBRANCH   5   6
BRANCH   2  13
ATOM     13  C   UNL     1       7.988   7.670  17.885  0.00  0.00    +0.000 C 
ATOM     14  O   UNL     1       8.223   7.812  16.689  0.00  0.00    +0.000 OA
ATOM     15  N   UNL     1       8.420   8.581  18.816  0.00  0.00    +0.000 N 
ATOM     16  H   UNL     1       8.050   8.566  19.764  0.00  0.00    +0.000 HD
BRANCH  15  17
ATOM     17  C   UNL     1       9.039   9.815  18.360  0.00  0.00    +0.000 C 
BRANCH  17  18
ATOM     18  C   UNL     1       9.688  10.616  19.479  0.00  0.00    +0.000 C 
ATOM     19  O   UNL     1       9.146  10.898  20.540  0.00  0.00    +0.000 OA
BRANCH  18  20
ATOM     20  O   UNL     1      10.883  11.102  19.042  0.00  0.00    +0.000 OA
BRANCH  20  21
ATOM     21  C   UNL     1      10.794  12.042  17.967  0.00  0.00    +0.000 C 
BRANCH  21  22
ATOM     22  C   UNL     1      10.965  13.444  18.447  0.00  0.00    +0.000 C 
ATOM     23  C   UNL     1      11.760  14.465  17.674  0.00  0.00    +0.000 C 
ATOM     24  C   UNL     1      10.261  14.561  17.710  0.00  0.00    +0.000 C 
ENDBRANCH  21  22
ENDBRANCH  20  21
ENDBRANCH  18  20
ENDBRANCH  17  18
ENDBRANCH  15  17
ENDBRANCH   2  13
BRANCH   1  26
ATOM     25  C   UNL     1       5.167   6.227  15.545  0.00  0.00    +0.000 C 
ATOM     26  C   UNL     1       5.055   6.870  16.922  0.00  0.00    +0.000 C 
ENDBRANCH   1  26
TORSDOF 8
ENDMDL
MODEL 5
REMARK VINA RESULT:      -7.2      1.307      2.849
REMARK  Name = 
REMARK  10 active torsions:
REMARK  status: ('A' for Active; 'I' for Inactive)
REMARK    1  A    between atoms: C_1  and  C_2
REMARK    2  A    between atoms: C_2  and  C_3
REMARK    3  A    between atoms: C_4  and  C_5
REMARK    4  A    between atoms: N_7  and  C_8
REMARK    5  A    between atoms: C_8  and  C_9
REMARK    6  A    between atoms: C_9  and  O_11
REMARK    7  A    between atoms: O_11  and  C_12
REMARK    8  A    between atoms: C_12  and  C_13
REMARK    9  A    between atoms: N_18  and  C_19
REMARK   10  A    between atoms: C_22  and  C_23
REMARK                            x       y       z     vdW  Elec       q    Type
REMARK                         _______ _______ _______ _____ _____    ______ ____
ROOT
ATOM      1  C   UNL     1       2.552   6.811  19.479  0.00  0.00    +0.000 A 
ATOM      2  C   UNL     1       3.255   6.619  18.288  0.00  0.00    +0.000 A 
ATOM      3  C   UNL     1       3.086   7.827  17.592  0.00  0.00    +0.000 A 
ATOM      4  N   UNL     1       2.268   8.673  18.210  0.00  0.00    +0.000 NA
ATOM      5  N   UNL     1       1.979   8.082  19.402  0.00  0.00    +0.000 N 
ENDROOT
BRANCH   5   6
ATOM      6  C   UNL     1       1.160   8.786  20.336  0.00  0.00    +0.000 A 
ATOM      7  C   UNL     1       0.224   9.717  19.861  0.00  0.00    +0.000 A 
ATOM      8  C   UNL     1      -0.594  10.421  20.754  0.00  0.00    +0.000 A 
ATOM      9  C   UNL     1      -0.467  10.230  22.133  0.00  0.00    +0.000 A 
ATOM     10  C   UNL     1      -1.283  11.018  23.112  0.00  0.00    +0.000 C 
ATOM     11  C   UNL     1       0.479   9.319  22.605  0.00  0.00    +0.000 A 
ATOM     12  C   UNL     1       1.281   8.602  21.715  0.00  0.00    +0.000 A 
ENDBRANCH   5   6
BRANCH   2  13
ATOM     13  C   UNL     1       3.964   5.413  17.880  0.00  0.00    +0.000 C 
ATOM     14  O   UNL     1       4.017   4.413  18.591  0.00  0.00    +0.000 OA
ATOM     15  N   UNL     1       4.518   5.433  16.624  0.00  0.00    +0.000 N 
ATOM     16  H   UNL     1       4.292   6.181  15.973  0.00  0.00    +0.000 HD
BRANCH  15  17
ATOM     17  C   UNL     1       5.047   4.199  16.067  0.00  0.00    +0.000 C 
BRANCH  17  18
ATOM     18  C   UNL     1       6.329   4.394  15.273  0.00  0.00    +0.000 C 
ATOM     19  O   UNL     1       6.525   3.955  14.146  0.00  0.00    +0.000 OA
BRANCH  18  20
ATOM     20  O   UNL     1       7.264   4.977  16.073  0.00  0.00    +0.000 OA
BRANCH  20  21
ATOM     21  C   UNL     1       7.497   4.306  17.314  0.00  0.00    +0.000 C 
BRANCH  21  22
ATOM     22  C   UNL     1       8.077   5.224  18.336  0.00  0.00    +0.000 C 
ATOM     23  C   UNL     1       7.712   6.685  18.403  0.00  0.00    +0.000 C 
ATOM     24  C   UNL     1       7.190   5.739  19.447  0.00  0.00    +0.000 C 
ENDBRANCH  21  22
ENDBRANCH  20  21
ENDBRANCH  18  20
ENDBRANCH  17  18
ENDBRANCH  15  17
ENDBRANCH   2  13
BRANCH   1  26
ATOM     25  C   UNL     1       1.085   4.929  20.286  0.00  0.00    +0.000 C 
ATOM     26  C   UNL     1       2.296   5.811  20.568  0.00  0.00    +0.000 C 
ENDBRANCH   1  26
TORSDOF 8
ENDMDL
MODEL 6
REMARK VINA RESULT:      -7.2      2.024      2.818
REMARK  Name = 
REMARK  10 active torsions:
REMARK  status: ('A' for Active; 'I' for Inactive)
REMARK    1  A    between atoms: C_1  and  C_2
REMARK    2  A    between atoms: C_2  and  C_3
REMARK    3  A    between atoms: C_4  and  C_5
REMARK    4  A    between atoms: N_7  and  C_8
REMARK    5  A    between atoms: C_8  and  C_9
REMARK    6  A    between atoms: C_9  and  O_11
REMARK    7  A    between atoms: O_11  and  C_12
REMARK    8  A    between atoms: C_12  and  C_13
REMARK    9  A    between atoms: N_18  and  C_19
REMARK   10  A    between atoms: C_22  and  C_23
REMARK                            x       y       z     vdW  Elec       q    Type
REMARK                         _______ _______ _______ _____ _____    ______ ____
ROOT
ATOM      1  C   UNL     1       2.300   6.943  19.705  0.00  0.00    +0.000 A 
ATOM      2  C   UNL     1       3.026   6.665  18.546  0.00  0.00    +0.000 A 
ATOM      3  C   UNL     1       2.939   7.849  17.795  0.00  0.00    +0.000 A 
ATOM      4  N   UNL     1       2.148   8.760  18.352  0.00  0.00    +0.000 NA
ATOM      5  N   UNL     1       1.794   8.236  19.557  0.00  0.00    +0.000 N 
ENDROOT
BRANCH   5   6
ATOM      6  C   UNL     1       0.985   9.019  20.435  0.00  0.00    +0.000 A 
ATOM      7  C   UNL     1       1.088   8.824  21.820  0.00  0.00    +0.000 A 
ATOM      8  C   UNL     1       0.308   9.580  22.704  0.00  0.00    +0.000 A 
ATOM      9  C   UNL     1      -0.608  10.517  22.218  0.00  0.00    +0.000 A 
ATOM     10  C   UNL     1      -1.501  11.292  23.139  0.00  0.00    +0.000 C 
ATOM     11  C   UNL     1      -0.724  10.697  20.840  0.00  0.00    +0.000 A 
ATOM     12  C   UNL     1       0.067   9.958  19.957  0.00  0.00    +0.000 A 
ENDBRANCH   5   6
BRANCH   2  13
ATOM     13  C   UNL     1       3.685   5.409  18.211  0.00  0.00    +0.000 C 
ATOM     14  O   UNL     1       3.228   4.632  17.377  0.00  0.00    +0.000 OA
ATOM     15  N   UNL     1       4.884   5.170  18.835  0.00  0.00    +0.000 N 
ATOM     16  H   UNL     1       5.348   5.908  19.360  0.00  0.00    +0.000 HD
BRANCH  15  17
ATOM     17  C   UNL     1       5.699   4.052  18.390  0.00  0.00    +0.000 C 
BRANCH  17  18
ATOM     18  C   UNL     1       6.946   4.476  17.629  0.00  0.00    +0.000 C 
ATOM     19  O   UNL     1       7.104   4.346  16.421  0.00  0.00    +0.000 OA
BRANCH  18  20
ATOM     20  O   UNL     1       7.903   4.857  18.519  0.00  0.00    +0.000 OA
BRANCH  20  21
ATOM     21  C   UNL     1       7.838   6.229  18.921  0.00  0.00    +0.000 C 
BRANCH  21  22
ATOM     22  C   UNL     1       7.856   7.149  17.747  0.00  0.00    +0.000 C 
ATOM     23  C   UNL     1       6.747   8.134  17.482  0.00  0.00    +0.000 C 
ATOM     24  C   UNL     1       8.077   8.626  17.978  0.00  0.00    +0.000 C 
ENDBRANCH  21  22
ENDBRANCH  20  21
ENDBRANCH  18  20
ENDBRANCH  17  18
ENDBRANCH  15  17
ENDBRANCH   2  13
BRANCH   1  26
ATOM     25  C   UNL     1       1.166   4.791  20.360  0.00  0.00    +0.000 C 
ATOM     26  C   UNL     1       1.961   6.005  20.827  0.00  0.00    +0.000 C 
ENDBRANCH   1  26
TORSDOF 8
ENDMDL
MODEL 7
REMARK VINA RESULT:      -7.1      4.866      7.739
REMARK  Name = 
REMARK  10 active torsions:
REMARK  status: ('A' for Active; 'I' for Inactive)
REMARK    1  A    between atoms: C_1  and  C_2
REMARK    2  A    between atoms: C_2  and  C_3
REMARK    3  A    between atoms: C_4  and  C_5
REMARK    4  A    between atoms: N_7  and  C_8
REMARK    5  A    between atoms: C_8  and  C_9
REMARK    6  A    between atoms: C_9  and  O_11
REMARK    7  A    between atoms: O_11  and  C_12
REMARK    8  A    between atoms: C_12  and  C_13
REMARK    9  A    between atoms: N_18  and  C_19
REMARK   10  A    between atoms: C_22  and  C_23
REMARK                            x       y       z     vdW  Elec       q    Type
REMARK                         _______ _______ _______ _____ _____    ______ ____
ROOT
ATOM      1  C   UNL     1       5.943   6.242  18.055  0.00  0.00    +0.000 A 
ATOM      2  C   UNL     1       7.229   6.615  18.449  0.00  0.00    +0.000 A 
ATOM      3  C   UNL     1       7.559   5.697  19.459  0.00  0.00    +0.000 A 
ATOM      4  N   UNL     1       6.554   4.885  19.770  0.00  0.00    +0.000 NA
ATOM      5  N   UNL     1       5.572   5.173  18.872  0.00  0.00    +0.000 N 
ENDROOT
BRANCH   5   6
ATOM      6  C   UNL     1       4.367   4.408  18.906  0.00  0.00    +0.000 A 
ATOM      7  C   UNL     1       4.194   3.360  17.989  0.00  0.00    +0.000 A 
ATOM      8  C   UNL     1       3.022   2.592  18.001  0.00  0.00    +0.000 A 
ATOM      9  C   UNL     1       1.995   2.880  18.903  0.00  0.00    +0.000 A 
ATOM     10  C   UNL     1       0.705   2.117  18.893  0.00  0.00    +0.000 C 
ATOM     11  C   UNL     1       2.159   3.935  19.801  0.00  0.00    +0.000 A 
ATOM     12  C   UNL     1       3.335   4.689  19.805  0.00  0.00    +0.000 A 
ENDBRANCH   5   6
BRANCH   2  13
ATOM     13  C   UNL     1       8.010   7.731  17.929  0.00  0.00    +0.000 C 
ATOM     14  O   UNL     1       8.153   7.925  16.725  0.00  0.00    +0.000 OA
ATOM     15  N   UNL     1       8.528   8.594  18.863  0.00  0.00    +0.000 N 
ATOM     16  H   UNL     1       8.232   8.540  19.835  0.00  0.00    +0.000 HD
BRANCH  15  17
ATOM     17  C   UNL     1       9.127   9.840  18.415  0.00  0.00    +0.000 C 
BRANCH  17  18
ATOM     18  C   UNL     1       9.451  10.799  19.550  0.00  0.00    +0.000 C 
ATOM     19  O   UNL     1       9.240  10.574  20.736  0.00  0.00    +0.000 OA
BRANCH  18  20
ATOM     20  O   UNL     1       9.848  11.991  19.026  0.00  0.00    +0.000 OA
BRANCH  20  21
ATOM     21  C   UNL     1       8.948  12.557  18.068  0.00  0.00    +0.000 C 
BRANCH  21  22
ATOM     22  C   UNL     1       8.272  13.775  18.599  0.00  0.00    +0.000 C 
ATOM     23  C   UNL     1       8.546  15.151  18.047  0.00  0.00    +0.000 C 
ATOM     24  C   UNL     1       7.241  14.473  17.741  0.00  0.00    +0.000 C 
ENDBRANCH  21  22
ENDBRANCH  20  21
ENDBRANCH  18  20
ENDBRANCH  17  18
ENDBRANCH  15  17
ENDBRANCH   2  13
BRANCH   1  26
ATOM     25  C   UNL     1       5.128   6.350  15.674  0.00  0.00    +0.000 C 
ATOM     26  C   UNL     1       5.041   6.938  17.077  0.00  0.00    +0.000 C 
ENDBRANCH   1  26
TORSDOF 8
ENDMDL
MODEL 8
REMARK VINA RESULT:      -7.1      0.781      1.268
REMARK  Name = 
REMARK  10 active torsions:
REMARK  status: ('A' for Active; 'I' for Inactive)
REMARK    1  A    between atoms: C_1  and  C_2
REMARK    2  A    between atoms: C_2  and  C_3
REMARK    3  A    between atoms: C_4  and  C_5
REMARK    4  A    between atoms: N_7  and  C_8
REMARK    5  A    between atoms: C_8  and  C_9
REMARK    6  A    between atoms: C_9  and  O_11
REMARK    7  A    between atoms: O_11  and  C_12
REMARK    8  A    between atoms: C_12  and  C_13
REMARK    9  A    between atoms: N_18  and  C_19
REMARK   10  A    between atoms: C_22  and  C_23
REMARK                            x       y       z     vdW  Elec       q    Type
REMARK                         _______ _______ _______ _____ _____    ______ ____
ROOT
ATOM      1  C   UNL     1       2.528   6.697  19.549  0.00  0.00    +0.000 A 
ATOM      2  C   UNL     1       3.254   6.470  18.378  0.00  0.00    +0.000 A 
ATOM      3  C   UNL     1       3.145   7.676  17.668  0.00  0.00    +0.000 A 
ATOM      4  N   UNL     1       2.341   8.556  18.257  0.00  0.00    +0.000 NA
ATOM      5  N   UNL     1       2.001   7.985  19.446  0.00  0.00    +0.000 N 
ENDROOT
BRANCH   5   6
ATOM      6  C   UNL     1       1.182   8.725  20.352  0.00  0.00    +0.000 A 
ATOM      7  C   UNL     1       0.322   9.712  19.849  0.00  0.00    +0.000 A 
ATOM      8  C   UNL     1      -0.494  10.452  20.715  0.00  0.00    +0.000 A 
ATOM      9  C   UNL     1      -0.438  10.241  22.095  0.00  0.00    +0.000 A 
ATOM     10  C   UNL     1      -1.252  11.064  23.048  0.00  0.00    +0.000 C 
ATOM     11  C   UNL     1       0.433   9.273  22.596  0.00  0.00    +0.000 A 
ATOM     12  C   UNL     1       1.232   8.520  21.733  0.00  0.00    +0.000 A 
ENDBRANCH   5   6
BRANCH   2  13
ATOM     13  C   UNL     1       3.932   5.237  17.999  0.00  0.00    +0.000 C 
ATOM     14  O   UNL     1       3.653   4.154  18.505  0.00  0.00    +0.000 OA
ATOM     15  N   UNL     1       4.861   5.342  16.993  0.00  0.00    +0.000 N 
ATOM     16  H   UNL     1       4.933   6.197  16.445  0.00  0.00    +0.000 HD
BRANCH  15  17
ATOM     17  C   UNL     1       5.414   4.129  16.414  0.00  0.00    +0.000 C 
BRANCH  17  18
ATOM     18  C   UNL     1       6.657   4.372  15.572  0.00  0.00    +0.000 C 
ATOM     19  O   UNL     1       7.524   5.199  15.829  0.00  0.00    +0.000 OA
BRANCH  18  20
ATOM     20  O   UNL     1       6.562   3.651  14.421  0.00  0.00    +0.000 OA
BRANCH  20  21
ATOM     21  C   UNL     1       5.485   4.033  13.560  0.00  0.00    +0.000 C 
BRANCH  21  22
ATOM     22  C   UNL     1       5.764   3.679  12.138  0.00  0.00    +0.000 C 
ATOM     23  C   UNL     1       6.619   2.497  11.758  0.00  0.00    +0.000 C 
ATOM     24  C   UNL     1       5.132   2.435  11.556  0.00  0.00    +0.000 C 
ENDBRANCH  21  22
ENDBRANCH  20  21
ENDBRANCH  18  20
ENDBRANCH  17  18
ENDBRANCH  15  17
ENDBRANCH   2  13
BRANCH   1  26
ATOM     25  C   UNL     1       0.980   4.870  20.330  0.00  0.00    +0.000 C 
ATOM     26  C   UNL     1       2.209   5.716  20.639  0.00  0.00    +0.000 C 
ENDBRANCH   1  26
TORSDOF 8
ENDMDL
MODEL 9
REMARK VINA RESULT:      -7.1      5.021      7.635
REMARK  Name = 
REMARK  10 active torsions:
REMARK  status: ('A' for Active; 'I' for Inactive)
REMARK    1  A    between atoms: C_1  and  C_2
REMARK    2  A    between atoms: C_2  and  C_3
REMARK    3  A    between atoms: C_4  and  C_5
REMARK    4  A    between atoms: N_7  and  C_8
REMARK    5  A    between atoms: C_8  and  C_9
REMARK    6  A    between atoms: C_9  and  O_11
REMARK    7  A    between atoms: O_11  and  C_12
REMARK    8  A    between atoms: C_12  and  C_13
REMARK    9  A    between atoms: N_18  and  C_19
REMARK   10  A    between atoms: C_22  and  C_23
REMARK                            x       y       z     vdW  Elec       q    Type
REMARK                         _______ _______ _______ _____ _____    ______ ____
ROOT
ATOM      1  C   UNL     1       5.710   6.016  17.873  0.00  0.00    +0.000 A 
ATOM      2  C   UNL     1       7.004   6.422  18.205  0.00  0.00    +0.000 A 
ATOM      3  C   UNL     1       7.327   5.648  19.331  0.00  0.00    +0.000 A 
ATOM      4  N   UNL     1       6.313   4.902  19.757  0.00  0.00    +0.000 NA
ATOM      5  N   UNL     1       5.330   5.076  18.832  0.00  0.00    +0.000 N 
ENDROOT
BRANCH   5   6
ATOM      6  C   UNL     1       4.114   4.342  18.977  0.00  0.00    +0.000 A 
ATOM      7  C   UNL     1       3.910   3.194  18.197  0.00  0.00    +0.000 A 
ATOM      8  C   UNL     1       2.727   2.452  18.320  0.00  0.00    +0.000 A 
ATOM      9  C   UNL     1       1.720   2.864  19.197  0.00  0.00    +0.000 A 
ATOM     10  C   UNL     1       0.420   2.126  19.300  0.00  0.00    +0.000 C 
ATOM     11  C   UNL     1       1.916   4.017  19.958  0.00  0.00    +0.000 A 
ATOM     12  C   UNL     1       3.103   4.746  19.852  0.00  0.00    +0.000 A 
ENDBRANCH   5   6
BRANCH   2  13
ATOM     13  C   UNL     1       7.797   7.443  17.531  0.00  0.00    +0.000 C 
ATOM     14  O   UNL     1       8.158   7.327  16.364  0.00  0.00    +0.000 OA
ATOM     15  N   UNL     1       8.066   8.576  18.258  0.00  0.00    +0.000 N 
ATOM     16  H   UNL     1       7.591   8.747  19.142  0.00  0.00    +0.000 HD
BRANCH  15  17
ATOM     17  C   UNL     1       8.658   9.720  17.585  0.00  0.00    +0.000 C 
BRANCH  17  18
ATOM     18  C   UNL     1       8.894  10.909  18.505  0.00  0.00    +0.000 C 
ATOM     19  O   UNL     1       8.601  12.068  18.237  0.00  0.00    +0.000 OA
BRANCH  18  20
ATOM     20  O   UNL     1       9.625  10.501  19.579  0.00  0.00    +0.000 OA
BRANCH  20  21
ATOM     21  C   UNL     1       9.900  11.523  20.542  0.00  0.00    +0.000 C 
BRANCH  21  22
ATOM     22  C   UNL     1      11.330  11.945  20.504  0.00  0.00    +0.000 C 
ATOM     23  C   UNL     1      12.207  11.703  19.303  0.00  0.00    +0.000 C 
ATOM     24  C   UNL     1      11.731  13.094  19.608  0.00  0.00    +0.000 C 
ENDBRANCH  21  22
ENDBRANCH  20  21
ENDBRANCH  18  20
ENDBRANCH  17  18
ENDBRANCH  15  17
ENDBRANCH   2  13
BRANCH   1  26
ATOM     25  C   UNL     1       3.702   7.456  17.384  0.00  0.00    +0.000 C 
ATOM     26  C   UNL     1       4.812   6.582  16.812  0.00  0.00    +0.000 C 
ENDBRANCH   1  26
TORSDOF 8
ENDMDL
