MODEL 1
REMARK VINA RESULT:      -8.5      0.000      0.000
REMARK  Name = 
REMARK  7 active torsions:
REMARK  status: ('A' for Active; 'I' for Inactive)
REMARK    1  A    between atoms: C_1  and  C_2
REMARK    2  A    between atoms: C_2  and  C_3
REMARK    3  A    between atoms: C_2  and  C_4
REMARK    4  A    between atoms: C_4  and  C_5
REMARK    5  A    between atoms: C_4  and  N_15
REMARK    6  A    between atoms: N_9  and  C_10
REMARK    7  A    between atoms: C_18  and  C_19
REMARK                            x       y       z     vdW  Elec       q    Type
REMARK                         _______ _______ _______ _____ _____    ______ ____
ROOT
ATOM      1  C   UNL     1       4.294   4.849  17.294  0.00  0.00    +0.000 C 
ENDROOT
BRANCH   1   2
ATOM      2  N   UNL     1       3.717   3.594  17.885  0.00  0.00    +0.000 NA
ATOM      3  C   UNL     1       4.149   3.368  19.272  0.00  0.00    +0.000 C 
ATOM      4  C   UNL     1       3.561   2.093  19.882  0.00  0.00    +0.000 C 
ATOM      5  C   UNL     1       2.037   2.123  19.839  0.00  0.00    +0.000 C 
ATOM      6  C   UNL     1       1.614   2.255  18.374  0.00  0.00    +0.000 C 
ATOM      7  C   UNL     1       2.272   3.447  17.668  0.00  0.00    +0.000 C 
BRANCH   5   8
ATOM      8  C   UNL     1       1.467   3.224  20.732  0.00  0.00    +0.000 C 
ATOM      9  N   UNL     1       1.879   3.187  22.036  0.00  0.00    +0.000 N 
ATOM     10  O   UNL     1       0.686   4.091  20.357  0.00  0.00    +0.000 OA
ATOM     11  H   UNL     1       2.355   2.393  22.436  0.00  0.00    +0.000 HD
ATOM     12  H   UNL     1       1.503   3.887  22.661  0.00  0.00    +0.000 HD
ENDBRANCH   5   8
ENDBRANCH   1   2
BRANCH   1  13
ATOM     13  C   UNL     1       5.800   4.694  17.232  0.00  0.00    +0.000 A 
ATOM     14  N   UNL     1       6.609   4.561  18.275  0.00  0.00    +0.000 NA
ATOM     15  N   UNL     1       7.877   4.441  17.782  0.00  0.00    +0.000 NA
ATOM     16  N   UNL     1       7.875   4.488  16.463  0.00  0.00    +0.000 NA
ATOM     17  N   UNL     1       6.581   4.641  16.103  0.00  0.00    +0.000 N 
BRANCH  17  18
ATOM     18  C   UNL     1       6.248   4.774  14.703  0.00  0.00    +0.000 C 
ATOM     19  C   UNL     1       7.481   4.994  13.824  0.00  0.00    +0.000 C 
ATOM     20  C   UNL     1       7.056   4.557  12.431  0.00  0.00    +0.000 C 
ATOM     21  C   UNL     1       5.950   3.526  12.623  0.00  0.00    +0.000 C 
ATOM     22  C   UNL     1       5.595   3.521  14.107  0.00  0.00    +0.000 C 
ENDBRANCH  17  18
ENDBRANCH   1  13
BRANCH   1  24
ATOM     23  C   UNL     1       4.452   7.432  17.157  0.00  0.00    +0.000 C 
ATOM     24  C   UNL     1       3.944   6.236  17.988  0.00  0.00    +0.000 C 
ATOM     25  C   UNL     1       2.456   6.495  18.238  0.00  0.00    +0.000 C 
ENDBRANCH   1  24
TORSDOF 5
ENDMDL
MODEL 2
REMARK VINA RESULT:      -7.9      1.506      2.222
REMARK  Name = 
REMARK  7 active torsions:
REMARK  status: ('A' for Active; 'I' for Inactive)
REMARK    1  A    between atoms: C_1  and  C_2
REMARK    2  A    between atoms: C_2  and  C_3
REMARK    3  A    between atoms: C_2  and  C_4
REMARK    4  A    between atoms: C_4  and  C_5
REMARK    5  A    between atoms: C_4  and  N_15
REMARK    6  A    between atoms: N_9  and  C_10
REMARK    7  A    between atoms: C_18  and  C_19
REMARK                            x       y       z     vdW  Elec       q    Type
REMARK                         _______ _______ _______ _____ _____    ______ ____
ROOT
ATOM      1  C   UNL     1       4.543   5.477  18.150  0.00  0.00    +0.000 C 
ENDROOT
BRANCH   1   2
ATOM      2  N   UNL     1       3.692   4.896  19.242  0.00  0.00    +0.000 NA
ATOM      3  C   UNL     1       2.253   5.075  18.998  0.00  0.00    +0.000 C 
ATOM      4  C   UNL     1       1.380   4.480  20.105  0.00  0.00    +0.000 C 
ATOM      5  C   UNL     1       1.668   2.993  20.285  0.00  0.00    +0.000 C 
ATOM      6  C   UNL     1       3.149   2.845  20.640  0.00  0.00    +0.000 C 
ATOM      7  C   UNL     1       4.077   3.533  19.631  0.00  0.00    +0.000 C 
BRANCH   5   8
ATOM      8  C   UNL     1       1.260   2.185  19.055  0.00  0.00    +0.000 C 
ATOM      9  N   UNL     1       2.237   1.379  18.538  0.00  0.00    +0.000 N 
ATOM     10  O   UNL     1       0.156   2.230  18.527  0.00  0.00    +0.000 OA
ATOM     11  H   UNL     1       3.206   1.453  18.808  0.00  0.00    +0.000 HD
ATOM     12  H   UNL     1       2.009   0.848  17.709  0.00  0.00    +0.000 HD
ENDBRANCH   5   8
ENDBRANCH   1   2
BRANCH   1  13
ATOM     13  C   UNL     1       5.997   5.223  18.496  0.00  0.00    +0.000 A 
ATOM     14  N   UNL     1       6.585   5.531  19.645  0.00  0.00    +0.000 NA
ATOM     15  N   UNL     1       7.886   5.126  19.546  0.00  0.00    +0.000 NA
ATOM     16  N   UNL     1       8.118   4.570  18.372  0.00  0.00    +0.000 NA
ATOM     17  N   UNL     1       6.943   4.618  17.705  0.00  0.00    +0.000 N 
BRANCH  17  18
ATOM     18  C   UNL     1       6.879   4.120  16.350  0.00  0.00    +0.000 C 
ATOM     19  C   UNL     1       5.443   3.857  15.889  0.00  0.00    +0.000 C 
ATOM     20  C   UNL     1       5.503   3.898  14.369  0.00  0.00    +0.000 C 
ATOM     21  C   UNL     1       6.679   4.797  14.010  0.00  0.00    +0.000 C 
ATOM     22  C   UNL     1       7.421   5.106  15.307  0.00  0.00    +0.000 C 
ENDBRANCH  17  18
ENDBRANCH   1  13
BRANCH   1  24
ATOM     23  C   UNL     1       4.782   7.315  16.338  0.00  0.00    +0.000 C 
ATOM     24  C   UNL     1       4.358   7.016  17.790  0.00  0.00    +0.000 C 
ATOM     25  C   UNL     1       2.936   7.562  17.938  0.00  0.00    +0.000 C 
ENDBRANCH   1  24
TORSDOF 5
ENDMDL
MODEL 3
REMARK VINA RESULT:      -7.8      1.116      1.147
REMARK  Name = 
REMARK  7 active torsions:
REMARK  status: ('A' for Active; 'I' for Inactive)
REMARK    1  A    between atoms: C_1  and  C_2
REMARK    2  A    between atoms: C_2  and  C_3
REMARK    3  A    between atoms: C_2  and  C_4
REMARK    4  A    between atoms: C_4  and  C_5
REMARK    5  A    between atoms: C_4  and  N_15
REMARK    6  A    between atoms: N_9  and  C_10
REMARK    7  A    between atoms: C_18  and  C_19
REMARK                            x       y       z     vdW  Elec       q    Type
REMARK                         _______ _______ _______ _____ _____    ______ ____
ROOT
ATOM      1  C   UNL     1       3.975   5.621  17.564  0.00  0.00    +0.000 C 
ENDROOT
BRANCH   1   2
ATOM      2  N   UNL     1       3.435   4.225  17.699  0.00  0.00    +0.000 NA
ATOM      3  C   UNL     1       4.167   3.426  18.693  0.00  0.00    +0.000 C 
ATOM      4  C   UNL     1       3.620   2.004  18.839  0.00  0.00    +0.000 C 
ATOM      5  C   UNL     1       2.142   2.027  19.216  0.00  0.00    +0.000 C 
ATOM      6  C   UNL     1       1.391   2.775  18.113  0.00  0.00    +0.000 C 
ATOM      7  C   UNL     1       1.973   4.165  17.830  0.00  0.00    +0.000 C 
BRANCH   5   8
ATOM      8  C   UNL     1       1.922   2.623  20.605  0.00  0.00    +0.000 C 
ATOM      9  N   UNL     1       0.714   3.240  20.789  0.00  0.00    +0.000 N 
ATOM     10  O   UNL     1       2.740   2.589  21.516  0.00  0.00    +0.000 OA
ATOM     11  H   UNL     1       0.095   3.467  20.026  0.00  0.00    +0.000 HD
ATOM     12  H   UNL     1       0.544   3.667  21.689  0.00  0.00    +0.000 HD
ENDBRANCH   5   8
ENDBRANCH   1   2
BRANCH   1  13
ATOM     13  C   UNL     1       5.489   5.549  17.599  0.00  0.00    +0.000 A 
ATOM     14  N   UNL     1       6.244   5.648  18.685  0.00  0.00    +0.000 NA
ATOM     15  N   UNL     1       7.542   5.521  18.279  0.00  0.00    +0.000 NA
ATOM     16  N   UNL     1       7.611   5.339  16.973  0.00  0.00    +0.000 NA
ATOM     17  N   UNL     1       6.333   5.349  16.534  0.00  0.00    +0.000 N 
BRANCH  17  18
ATOM     18  C   UNL     1       6.070   5.216  15.119  0.00  0.00    +0.000 C 
ATOM     19  C   UNL     1       7.352   5.219  14.281  0.00  0.00    +0.000 C 
ATOM     20  C   UNL     1       6.973   4.533  12.978  0.00  0.00    +0.000 C 
ATOM     21  C   UNL     1       5.817   3.597  13.306  0.00  0.00    +0.000 C 
ATOM     22  C   UNL     1       5.392   3.893  14.742  0.00  0.00    +0.000 C 
ENDBRANCH  17  18
ENDBRANCH   1  13
BRANCH   1  24
ATOM     23  C   UNL     1       2.697   7.849  17.910  0.00  0.00    +0.000 C 
ATOM     24  C   UNL     1       3.485   6.720  18.604  0.00  0.00    +0.000 C 
ATOM     25  C   UNL     1       2.586   6.208  19.733  0.00  0.00    +0.000 C 
ENDBRANCH   1  24
TORSDOF 5
ENDMDL
MODEL 4
REMARK VINA RESULT:      -7.7      1.040      1.562
REMARK  Name = 
REMARK  7 active torsions:
REMARK  status: ('A' for Active; 'I' for Inactive)
REMARK    1  A    between atoms: C_1  and  C_2
REMARK    2  A    between atoms: C_2  and  C_3
REMARK    3  A    between atoms: C_2  and  C_4
REMARK    4  A    between atoms: C_4  and  C_5
REMARK    5  A    between atoms: C_4  and  N_15
REMARK    6  A    between atoms: N_9  and  C_10
REMARK    7  A    between atoms: C_18  and  C_19
REMARK                            x       y       z     vdW  Elec       q    Type
REMARK                         _______ _______ _______ _____ _____    ______ ____
ROOT
ATOM      1  C   UNL     1       4.392   5.377  17.961  0.00  0.00    +0.000 C 
ENDROOT
BRANCH   1   2
ATOM      2  N   UNL     1       3.688   4.062  18.140  0.00  0.00    +0.000 NA
ATOM      3  C   UNL     1       4.037   3.397  19.404  0.00  0.00    +0.000 C 
ATOM      4  C   UNL     1       3.319   2.059  19.596  0.00  0.00    +0.000 C 
ATOM      5  C   UNL     1       1.806   2.241  19.535  0.00  0.00    +0.000 C 
ATOM      6  C   UNL     1       1.462   2.838  18.169  0.00  0.00    +0.000 C 
ATOM      7  C   UNL     1       2.247   4.119  17.862  0.00  0.00    +0.000 C 
BRANCH   5   8
ATOM      8  C   UNL     1       1.290   3.077  20.705  0.00  0.00    +0.000 C 
ATOM      9  N   UNL     1       1.672   2.641  21.945  0.00  0.00    +0.000 N 
ATOM     10  O   UNL     1       0.574   4.064  20.593  0.00  0.00    +0.000 OA
ATOM     11  H   UNL     1       2.088   1.736  22.101  0.00  0.00    +0.000 HD
ATOM     12  H   UNL     1       1.329   3.157  22.743  0.00  0.00    +0.000 HD
ENDBRANCH   5   8
ENDBRANCH   1   2
BRANCH   1  13
ATOM     13  C   UNL     1       5.806   5.232  18.490  0.00  0.00    +0.000 A 
ATOM     14  N   UNL     1       6.198   5.488  19.731  0.00  0.00    +0.000 NA
ATOM     15  N   UNL     1       7.537   5.221  19.788  0.00  0.00    +0.000 NA
ATOM     16  N   UNL     1       7.982   4.800  18.619  0.00  0.00    +0.000 NA
ATOM     17  N   UNL     1       6.909   4.797  17.797  0.00  0.00    +0.000 N 
BRANCH  17  18
ATOM     18  C   UNL     1       7.081   4.423  16.412  0.00  0.00    +0.000 C 
ATOM     19  C   UNL     1       5.939   3.542  15.896  0.00  0.00    +0.000 C 
ATOM     20  C   UNL     1       5.963   3.711  14.384  0.00  0.00    +0.000 C 
ATOM     21  C   UNL     1       6.568   5.083  14.115  0.00  0.00    +0.000 C 
ATOM     22  C   UNL     1       7.083   5.616  15.449  0.00  0.00    +0.000 C 
ENDBRANCH  17  18
ENDBRANCH   1  13
BRANCH   1  24
ATOM     23  C   UNL     1       3.177   7.621  17.512  0.00  0.00    +0.000 C 
ATOM     24  C   UNL     1       3.732   6.676  18.596  0.00  0.00    +0.000 C 
ATOM     25  C   UNL     1       2.577   6.423  19.568  0.00  0.00    +0.000 C 
ENDBRANCH   1  24
TORSDOF 5
ENDMDL
MODEL 5
REMARK VINA RESULT:      -7.6      1.974      3.127
REMARK  Name = 
REMARK  7 active torsions:
REMARK  status: ('A' for Active; 'I' for Inactive)
REMARK    1  A    between atoms: C_1  and  C_2
REMARK    2  A    between atoms: C_2  and  C_3
REMARK    3  A    between atoms: C_2  and  C_4
REMARK    4  A    between atoms: C_4  and  C_5
REMARK    5  A    between atoms: C_4  and  N_15
REMARK    6  A    between atoms: N_9  and  C_10
REMARK    7  A    between atoms: C_18  and  C_19
REMARK                            x       y       z     vdW  Elec       q    Type
REMARK                         _______ _______ _______ _____ _____    ______ ____
ROOT
ATOM      1  C   UNL     1       3.722   5.094  17.157  0.00  0.00    +0.000 C 
ENDROOT
BRANCH   1   2
ATOM      2  N   UNL     1       3.568   3.764  17.838  0.00  0.00    +0.000 NA
ATOM      3  C   UNL     1       4.217   3.722  19.157  0.00  0.00    +0.000 C 
ATOM      4  C   UNL     1       4.060   2.372  19.860  0.00  0.00    +0.000 C 
ATOM      5  C   UNL     1       2.586   2.013  20.023  0.00  0.00    +0.000 C 
ATOM      6  C   UNL     1       1.961   1.962  18.627  0.00  0.00    +0.000 C 
ATOM      7  C   UNL     1       2.194   3.245  17.821  0.00  0.00    +0.000 C 
BRANCH   5   8
ATOM      8  C   UNL     1       1.871   2.976  20.968  0.00  0.00    +0.000 C 
ATOM      9  N   UNL     1       0.654   3.425  20.530  0.00  0.00    +0.000 N 
ATOM     10  O   UNL     1       2.317   3.357  22.043  0.00  0.00    +0.000 OA
ATOM     11  H   UNL     1       0.336   3.302  19.582  0.00  0.00    +0.000 HD
ATOM     12  H   UNL     1       0.164   4.083  21.120  0.00  0.00    +0.000 HD
ENDBRANCH   5   8
ENDBRANCH   1   2
BRANCH   1  13
ATOM     13  C   UNL     1       4.980   5.050  16.311  0.00  0.00    +0.000 A 
ATOM     14  N   UNL     1       5.098   4.455  15.130  0.00  0.00    +0.000 NA
ATOM     15  N   UNL     1       6.382   4.660  14.710  0.00  0.00    +0.000 NA
ATOM     16  N   UNL     1       7.059   5.370  15.594  0.00  0.00    +0.000 NA
ATOM     17  N   UNL     1       6.193   5.626  16.599  0.00  0.00    +0.000 N 
BRANCH  17  18
ATOM     18  C   UNL     1       6.651   6.358  17.758  0.00  0.00    +0.000 C 
ATOM     19  C   UNL     1       7.598   5.535  18.636  0.00  0.00    +0.000 C 
ATOM     20  C   UNL     1       8.392   6.561  19.429  0.00  0.00    +0.000 C 
ATOM     21  C   UNL     1       8.419   7.829  18.586  0.00  0.00    +0.000 C 
ATOM     22  C   UNL     1       7.471   7.606  17.410  0.00  0.00    +0.000 C 
ENDBRANCH  17  18
ENDBRANCH   1  13
BRANCH   1  24
ATOM     23  C   UNL     1       3.382   7.661  17.249  0.00  0.00    +0.000 C 
ATOM     24  C   UNL     1       3.752   6.403  18.060  0.00  0.00    +0.000 C 
ATOM     25  C   UNL     1       2.817   6.390  19.272  0.00  0.00    +0.000 C 
ENDBRANCH   1  24
TORSDOF 5
ENDMDL
MODEL 6
REMARK VINA RESULT:      -7.6      1.386      1.773
REMARK  Name = 
REMARK  7 active torsions:
REMARK  status: ('A' for Active; 'I' for Inactive)
REMARK    1  A    between atoms: C_1  and  C_2
REMARK    2  A    between atoms: C_2  and  C_3
REMARK    3  A    between atoms: C_2  and  C_4
REMARK    4  A    between atoms: C_4  and  C_5
REMARK    5  A    between atoms: C_4  and  N_15
REMARK    6  A    between atoms: N_9  and  C_10
REMARK    7  A    between atoms: C_18  and  C_19
REMARK                            x       y       z     vdW  Elec       q    Type
REMARK                         _______ _______ _______ _____ _____    ______ ____
ROOT
ATOM      1  C   UNL     1       4.686   4.744  18.128  0.00  0.00    +0.000 C 
ENDROOT
BRANCH   1   2
ATOM      2  N   UNL     1       4.141   3.596  18.928  0.00  0.00    +0.000 NA
ATOM      3  C   UNL     1       3.312   4.034  20.060  0.00  0.00    +0.000 C 
ATOM      4  C   UNL     1       2.748   2.870  20.877  0.00  0.00    +0.000 C 
ATOM      5  C   UNL     1       1.925   1.936  19.995  0.00  0.00    +0.000 C 
ATOM      6  C   UNL     1       2.841   1.414  18.887  0.00  0.00    +0.000 C 
ATOM      7  C   UNL     1       3.537   2.536  18.109  0.00  0.00    +0.000 C 
BRANCH   5   8
ATOM      8  C   UNL     1       0.667   2.621  19.465  0.00  0.00    +0.000 C 
ATOM      9  N   UNL     1       0.209   3.664  20.223  0.00  0.00    +0.000 N 
ATOM     10  O   UNL     1       0.070   2.291  18.448  0.00  0.00    +0.000 OA
ATOM     11  H   UNL     1       0.541   3.848  21.157  0.00  0.00    +0.000 HD
ATOM     12  H   UNL     1      -0.635   4.126  19.914  0.00  0.00    +0.000 HD
ENDBRANCH   5   8
ENDBRANCH   1   2
BRANCH   1  13
ATOM     13  C   UNL     1       6.156   4.900  18.465  0.00  0.00    +0.000 A 
ATOM     14  N   UNL     1       6.646   5.273  19.641  0.00  0.00    +0.000 NA
ATOM     15  N   UNL     1       8.007   5.276  19.521  0.00  0.00    +0.000 NA
ATOM     16  N   UNL     1       8.373   4.909  18.306  0.00  0.00    +0.000 NA
ATOM     17  N   UNL     1       7.225   4.666  17.635  0.00  0.00    +0.000 N 
BRANCH  17  18
ATOM     18  C   UNL     1       7.288   4.282  16.243  0.00  0.00    +0.000 C 
ATOM     19  C   UNL     1       6.004   3.602  15.763  0.00  0.00    +0.000 C 
ATOM     20  C   UNL     1       6.004   3.779  14.252  0.00  0.00    +0.000 C 
ATOM     21  C   UNL     1       6.813   5.039  13.969  0.00  0.00    +0.000 C 
ATOM     22  C   UNL     1       7.451   5.470  15.287  0.00  0.00    +0.000 C 
ENDBRANCH  17  18
ENDBRANCH   1  13
BRANCH   1  24
ATOM     23  C   UNL     1       4.508   7.165  17.222  0.00  0.00    +0.000 C 
ATOM     24  C   UNL     1       3.972   6.159  18.260  0.00  0.00    +0.000 C 
ATOM     25  C   UNL     1       2.450   6.149  18.094  0.00  0.00    +0.000 C 
ENDBRANCH   1  24
TORSDOF 5
ENDMDL
MODEL 7
REMARK VINA RESULT:      -7.5      1.445      1.660
REMARK  Name = 
REMARK  7 active torsions:
REMARK  status: ('A' for Active; 'I' for Inactive)
REMARK    1  A    between atoms: C_1  and  C_2
REMARK    2  A    between atoms: C_2  and  C_3
REMARK    3  A    between atoms: C_2  and  C_4
REMARK    4  A    between atoms: C_4  and  C_5
REMARK    5  A    between atoms: C_4  and  N_15
REMARK    6  A    between atoms: N_9  and  C_10
REMARK    7  A    between atoms: C_18  and  C_19
REMARK                            x       y       z     vdW  Elec       q    Type
REMARK                         _______ _______ _______ _____ _____    ______ ____
ROOT
ATOM      1  C   UNL     1       4.001   5.889  17.364  0.00  0.00    +0.000 C 
ENDROOT
BRANCH   1   2
ATOM      2  N   UNL     1       3.960   4.452  17.797  0.00  0.00    +0.000 NA
ATOM      3  C   UNL     1       4.438   4.258  19.174  0.00  0.00    +0.000 C 
ATOM      4  C   UNL     1       4.395   2.796  19.624  0.00  0.00    +0.000 C 
ATOM      5  C   UNL     1       2.981   2.235  19.510  0.00  0.00    +0.000 C 
ATOM      6  C   UNL     1       2.549   2.354  18.047  0.00  0.00    +0.000 C 
ATOM      7  C   UNL     1       2.690   3.778  17.497  0.00  0.00    +0.000 C 
BRANCH   5   8
ATOM      8  C   UNL     1       2.020   2.920  20.479  0.00  0.00    +0.000 C 
ATOM      9  N   UNL     1       0.732   3.039  20.035  0.00  0.00    +0.000 N 
ATOM     10  O   UNL     1       2.335   3.358  21.579  0.00  0.00    +0.000 OA
ATOM     11  H   UNL     1       0.468   2.879  19.075  0.00  0.00    +0.000 HD
ATOM     12  H   UNL     1       0.074   3.510  20.641  0.00  0.00    +0.000 HD
ENDBRANCH   5   8
ENDBRANCH   1   2
BRANCH   1  13
ATOM     13  C   UNL     1       5.444   6.259  17.083  0.00  0.00    +0.000 A 
ATOM     14  N   UNL     1       6.117   7.246  17.661  0.00  0.00    +0.000 NA
ATOM     15  N   UNL     1       7.377   7.228  17.134  0.00  0.00    +0.000 NA
ATOM     16  N   UNL     1       7.505   6.253  16.252  0.00  0.00    +0.000 NA
ATOM     17  N   UNL     1       6.304   5.634  16.213  0.00  0.00    +0.000 N 
BRANCH  17  18
ATOM     18  C   UNL     1       6.104   4.536  15.296  0.00  0.00    +0.000 C 
ATOM     19  C   UNL     1       4.846   4.705  14.442  0.00  0.00    +0.000 C 
ATOM     20  C   UNL     1       5.079   3.833  13.217  0.00  0.00    +0.000 C 
ATOM     21  C   UNL     1       6.589   3.745  13.035  0.00  0.00    +0.000 C 
ATOM     22  C   UNL     1       7.228   4.387  14.263  0.00  0.00    +0.000 C 
ENDBRANCH  17  18
ENDBRANCH   1  13
BRANCH   1  24
ATOM     23  C   UNL     1       2.612   8.071  17.535  0.00  0.00    +0.000 C 
ATOM     24  C   UNL     1       3.365   6.983  18.328  0.00  0.00    +0.000 C 
ATOM     25  C   UNL     1       2.373   6.453  19.366  0.00  0.00    +0.000 C 
ENDBRANCH   1  24
TORSDOF 5
ENDMDL
MODEL 8
REMARK VINA RESULT:      -7.5      1.774      2.407
REMARK  Name = 
REMARK  7 active torsions:
REMARK  status: ('A' for Active; 'I' for Inactive)
REMARK    1  A    between atoms: C_1  and  C_2
REMARK    2  A    between atoms: C_2  and  C_3
REMARK    3  A    between atoms: C_2  and  C_4
REMARK    4  A    between atoms: C_4  and  C_5
REMARK    5  A    between atoms: C_4  and  N_15
REMARK    6  A    between atoms: N_9  and  C_10
REMARK    7  A    between atoms: C_18  and  C_19
REMARK                            x       y       z     vdW  Elec       q    Type
REMARK                         _______ _______ _______ _____ _____    ______ ____
ROOT
ATOM      1  C   UNL     1       3.412   6.028  18.139  0.00  0.00    +0.000 C 
ENDROOT
BRANCH   1   2
ATOM      2  N   UNL     1       2.626   4.820  18.560  0.00  0.00    +0.000 NA
ATOM      3  C   UNL     1       2.724   3.713  17.597  0.00  0.00    +0.000 C 
ATOM      4  C   UNL     1       1.929   2.476  18.022  0.00  0.00    +0.000 C 
ATOM      5  C   UNL     1       2.385   1.982  19.391  0.00  0.00    +0.000 C 
ATOM      6  C   UNL     1       2.174   3.119  20.392  0.00  0.00    +0.000 C 
ATOM      7  C   UNL     1       2.844   4.428  19.959  0.00  0.00    +0.000 C 
BRANCH   5   8
ATOM      8  C   UNL     1       3.823   1.468  19.357  0.00  0.00    +0.000 C 
ATOM      9  N   UNL     1       4.098   0.574  18.358  0.00  0.00    +0.000 N 
ATOM     10  O   UNL     1       4.698   1.793  20.150  0.00  0.00    +0.000 OA
ATOM     11  H   UNL     1       3.378   0.128  17.810  0.00  0.00    +0.000 HD
ATOM     12  H   UNL     1       5.034   0.195  18.320  0.00  0.00    +0.000 HD
ENDBRANCH   5   8
ENDBRANCH   1   2
BRANCH   1  13
ATOM     13  C   UNL     1       4.876   5.766  18.433  0.00  0.00    +0.000 A 
ATOM     14  N   UNL     1       5.427   5.715  19.639  0.00  0.00    +0.000 NA
ATOM     15  N   UNL     1       6.754   5.448  19.459  0.00  0.00    +0.000 NA
ATOM     16  N   UNL     1       7.039   5.324  18.176  0.00  0.00    +0.000 NA
ATOM     17  N   UNL     1       5.872   5.516  17.521  0.00  0.00    +0.000 N 
BRANCH  17  18
ATOM     18  C   UNL     1       5.860   5.488  16.076  0.00  0.00    +0.000 C 
ATOM     19  C   UNL     1       7.268   5.457  15.477  0.00  0.00    +0.000 C 
ATOM     20  C   UNL     1       7.091   4.878  14.082  0.00  0.00    +0.000 C 
ATOM     21  C   UNL     1       5.844   4.004  14.135  0.00  0.00    +0.000 C 
ATOM     22  C   UNL     1       5.188   4.240  15.492  0.00  0.00    +0.000 C 
ENDBRANCH  17  18
ENDBRANCH   1  13
BRANCH   1  24
ATOM     23  C   UNL     1       2.313   8.334  17.702  0.00  0.00    +0.000 C 
ATOM     24  C   UNL     1       3.007   7.440  18.749  0.00  0.00    +0.000 C 
ATOM     25  C   UNL     1       2.066   7.393  19.956  0.00  0.00    +0.000 C 
ENDBRANCH   1  24
TORSDOF 5
ENDMDL
MODEL 9
REMARK VINA RESULT:      -7.4      1.591      1.948
REMARK  Name = 
REMARK  7 active torsions:
REMARK  status: ('A' for Active; 'I' for Inactive)
REMARK    1  A    between atoms: C_1  and  C_2
REMARK    2  A    between atoms: C_2  and  C_3
REMARK    3  A    between atoms: C_2  and  C_4
REMARK    4  A    between atoms: C_4  and  C_5
REMARK    5  A    between atoms: C_4  and  N_15
REMARK    6  A    between atoms: N_9  and  C_10
REMARK    7  A    between atoms: C_18  and  C_19
REMARK                            x       y       z     vdW  Elec       q    Type
REMARK                         _______ _______ _______ _____ _____    ______ ____
ROOT
ATOM      1  C   UNL     1       4.115   5.714  17.330  0.00  0.00    +0.000 C 
ENDROOT
BRANCH   1   2
ATOM      2  N   UNL     1       3.214   4.688  17.956  0.00  0.00    +0.000 NA
ATOM      3  C   UNL     1       3.294   3.379  17.291  0.00  0.00    +0.000 C 
ATOM      4  C   UNL     1       2.382   2.327  17.926  0.00  0.00    +0.000 C 
ATOM      5  C   UNL     1       2.706   2.150  19.406  0.00  0.00    +0.000 C 
ATOM      6  C   UNL     1       2.514   3.504  20.092  0.00  0.00    +0.000 C 
ATOM      7  C   UNL     1       3.308   4.631  19.421  0.00  0.00    +0.000 C 
BRANCH   5   8
ATOM      8  C   UNL     1       4.101   1.563  19.613  0.00  0.00    +0.000 C 
ATOM      9  N   UNL     1       4.437   0.546  18.761  0.00  0.00    +0.000 N 
ATOM     10  O   UNL     1       4.892   1.932  20.472  0.00  0.00    +0.000 OA
ATOM     11  H   UNL     1       3.761   0.077  18.177  0.00  0.00    +0.000 HD
ATOM     12  H   UNL     1       5.343   0.117  18.885  0.00  0.00    +0.000 HD
ENDBRANCH   5   8
ENDBRANCH   1   2
BRANCH   1  13
ATOM     13  C   UNL     1       5.540   5.202  17.406  0.00  0.00    +0.000 A 
ATOM     14  N   UNL     1       6.212   4.945  18.521  0.00  0.00    +0.000 NA
ATOM     15  N   UNL     1       7.447   4.497  18.147  0.00  0.00    +0.000 NA
ATOM     16  N   UNL     1       7.555   4.461  16.831  0.00  0.00    +0.000 NA
ATOM     17  N   UNL     1       6.367   4.895  16.354  0.00  0.00    +0.000 N 
BRANCH  17  18
ATOM     18  C   UNL     1       6.181   5.015  14.926  0.00  0.00    +0.000 C 
ATOM     19  C   UNL     1       7.507   5.058  14.162  0.00  0.00    +0.000 C 
ATOM     20  C   UNL     1       7.162   4.624  12.746  0.00  0.00    +0.000 C 
ATOM     21  C   UNL     1       5.928   3.738  12.858  0.00  0.00    +0.000 C 
ATOM     22  C   UNL     1       5.440   3.827  14.301  0.00  0.00    +0.000 C 
ENDBRANCH  17  18
ENDBRANCH   1  13
BRANCH   1  24
ATOM     23  C   UNL     1       5.059   8.121  17.153  0.00  0.00    +0.000 C 
ATOM     24  C   UNL     1       4.069   7.200  17.894  0.00  0.00    +0.000 C 
ATOM     25  C   UNL     1       2.706   7.894  17.817  0.00  0.00    +0.000 C 
ENDBRANCH   1  24
TORSDOF 5
ENDMDL
