MODEL 1
REMARK VINA RESULT:      -8.2      0.000      0.000
REMARK  Name = 
REMARK  4 active torsions:
REMARK  status: ('A' for Active; 'I' for Inactive)
REMARK    1  A    between atoms: C_2  and  C_3
REMARK    2  A    between atoms: C_3  and  N_4
REMARK    3  A    between atoms: N_18  and  C_19
REMARK    4  A    between atoms: C_19  and  C_20
REMARK                            x       y       z     vdW  Elec       q    Type
REMARK                         _______ _______ _______ _____ _____    ______ ____
ROOT
ATOM      1  N   UNL     1       5.535   5.110  17.982  0.00  0.00    +0.000 N 
ATOM      2  C   UNL     1       4.725   4.148  17.384  0.00  0.00    +0.000 A 
ATOM      3  N   UNL     1       4.775   3.733  16.153  0.00  0.00    +0.000 NA
ATOM      4  C   UNL     1       5.785   4.354  15.411  0.00  0.00    +0.000 A 
ATOM      5  C   UNL     1       6.627   5.291  15.935  0.00  0.00    +0.000 A 
ATOM      6  O   UNL     1       7.518   5.720  15.004  0.00  0.00    +0.000 OA
ATOM      7  C   UNL     1       7.229   5.019  13.862  0.00  0.00    +0.000 A 
ATOM      8  C   UNL     1       7.908   5.132  12.652  0.00  0.00    +0.000 A 
ATOM      9  C   UNL     1       7.465   4.317  11.604  0.00  0.00    +0.000 A 
ATOM     10  C   UNL     1       6.391   3.438  11.773  0.00  0.00    +0.000 A 
ATOM     11  C   UNL     1       5.721   3.344  13.002  0.00  0.00    +0.000 A 
ATOM     12  C   UNL     1       6.151   4.152  14.069  0.00  0.00    +0.000 A 
ATOM     13  C   UNL     1       6.573   5.737  17.289  0.00  0.00    +0.000 A 
ATOM     14  O   UNL     1       7.331   6.551  17.813  0.00  0.00    +0.000 OA
ENDROOT
BRANCH   1  15
ATOM     15  C   UNL     1       5.334   5.457  19.376  0.00  0.00    +0.000 C 
BRANCH  15  17
ATOM     16  O   UNL     1       3.295   6.664  18.946  0.00  0.00    +0.000 OA
ATOM     17  C   UNL     1       3.865   5.796  19.601  0.00  0.00    +0.000 C 
ATOM     18  N   UNL     1       3.240   5.019  20.549  0.00  0.00    +0.000 N 
ATOM     19  H   UNL     1       3.656   4.119  20.789  0.00  0.00    +0.000 HD
BRANCH  18  20
ATOM     20  C   UNL     1       1.828   5.173  20.869  0.00  0.00    +0.000 C 
BRANCH  20  21
ATOM     21  C   UNL     1       0.982   4.058  20.251  0.00  0.00    +0.000 C 
ATOM     22  C   UNL     1       1.396   2.653  20.671  0.00  0.00    +0.000 C 
ATOM     23  C   UNL     1       1.044   1.833  19.457  0.00  0.00    +0.000 C 
ATOM     24  C   UNL     1       1.348   2.788  18.324  0.00  0.00    +0.000 C 
ATOM     25  O   UNL     1       1.083   4.109  18.813  0.00  0.00    +0.000 OA
ENDBRANCH  20  21
ENDBRANCH  18  20
ENDBRANCH  15  17
ENDBRANCH   1  15
TORSDOF 4
ENDMDL
MODEL 2
REMARK VINA RESULT:      -7.9      3.870      7.829
REMARK  Name = 
REMARK  4 active torsions:
REMARK  status: ('A' for Active; 'I' for Inactive)
REMARK    1  A    between atoms: C_2  and  C_3
REMARK    2  A    between atoms: C_3  and  N_4
REMARK    3  A    between atoms: N_18  and  C_19
REMARK    4  A    between atoms: C_19  and  C_20
REMARK                            x       y       z     vdW  Elec       q    Type
REMARK                         _______ _______ _______ _____ _____    ______ ____
ROOT
ATOM      1  N   UNL     1       2.609   7.268  18.671  0.00  0.00    +0.000 N 
ATOM      2  C   UNL     1       2.326   6.655  19.888  0.00  0.00    +0.000 A 
ATOM      3  N   UNL     1       1.646   7.153  20.879  0.00  0.00    +0.000 NA
ATOM      4  C   UNL     1       1.168   8.441  20.618  0.00  0.00    +0.000 A 
ATOM      5  C   UNL     1       1.393   9.095  19.442  0.00  0.00    +0.000 A 
ATOM      6  O   UNL     1       0.809  10.322  19.449  0.00  0.00    +0.000 OA
ATOM      7  C   UNL     1       0.190  10.432  20.667  0.00  0.00    +0.000 A 
ATOM      8  C   UNL     1      -0.548  11.530  21.100  0.00  0.00    +0.000 A 
ATOM      9  C   UNL     1      -1.113  11.443  22.378  0.00  0.00    +0.000 A 
ATOM     10  C   UNL     1      -0.936  10.307  23.173  0.00  0.00    +0.000 A 
ATOM     11  C   UNL     1      -0.186   9.213  22.715  0.00  0.00    +0.000 A 
ATOM     12  C   UNL     1       0.388   9.279  21.433  0.00  0.00    +0.000 A 
ATOM     13  C   UNL     1       2.131   8.542  18.355  0.00  0.00    +0.000 A 
ATOM     14  O   UNL     1       2.328   9.079  17.267  0.00  0.00    +0.000 OA
ENDROOT
BRANCH   1  15
ATOM     15  C   UNL     1       3.392   6.563  17.674  0.00  0.00    +0.000 C 
BRANCH  15  17
ATOM     16  O   UNL     1       4.849   5.317  19.133  0.00  0.00    +0.000 OA
ATOM     17  C   UNL     1       3.957   5.288  18.290  0.00  0.00    +0.000 C 
ATOM     18  N   UNL     1       3.350   4.131  17.859  0.00  0.00    +0.000 N 
ATOM     19  H   UNL     1       2.419   4.197  17.447  0.00  0.00    +0.000 HD
BRANCH  18  20
ATOM     20  C   UNL     1       3.730   2.820  18.367  0.00  0.00    +0.000 C 
BRANCH  20  21
ATOM     21  C   UNL     1       2.793   2.353  19.484  0.00  0.00    +0.000 C 
ATOM     22  C   UNL     1       1.392   2.947  19.414  0.00  0.00    +0.000 C 
ATOM     23  C   UNL     1       0.994   3.012  20.866  0.00  0.00    +0.000 C 
ATOM     24  C   UNL     1       2.305   3.336  21.546  0.00  0.00    +0.000 C 
ATOM     25  O   UNL     1       3.340   2.722  20.767  0.00  0.00    +0.000 OA
ENDBRANCH  20  21
ENDBRANCH  18  20
ENDBRANCH  15  17
ENDBRANCH   1  15
TORSDOF 4
ENDMDL
MODEL 3
REMARK VINA RESULT:      -7.9      3.917      8.132
REMARK  Name = 
REMARK  4 active torsions:
REMARK  status: ('A' for Active; 'I' for Inactive)
REMARK    1  A    between atoms: C_2  and  C_3
REMARK    2  A    between atoms: C_3  and  N_4
REMARK    3  A    between atoms: N_18  and  C_19
REMARK    4  A    between atoms: C_19  and  C_20
REMARK                            x       y       z     vdW  Elec       q    Type
REMARK                         _______ _______ _______ _____ _____    ______ ____
ROOT
ATOM      1  N   UNL     1       6.163   6.236  17.671  0.00  0.00    +0.000 N 
ATOM      2  C   UNL     1       4.940   6.900  17.645  0.00  0.00    +0.000 A 
ATOM      3  N   UNL     1       3.813   6.493  18.149  0.00  0.00    +0.000 NA
ATOM      4  C   UNL     1       3.918   5.251  18.783  0.00  0.00    +0.000 A 
ATOM      5  C   UNL     1       5.087   4.551  18.863  0.00  0.00    +0.000 A 
ATOM      6  O   UNL     1       4.913   3.387  19.541  0.00  0.00    +0.000 OA
ATOM      7  C   UNL     1       3.591   3.364  19.905  0.00  0.00    +0.000 A 
ATOM      8  C   UNL     1       2.973   2.351  20.634  0.00  0.00    +0.000 A 
ATOM      9  C   UNL     1       1.613   2.521  20.916  0.00  0.00    +0.000 A 
ATOM     10  C   UNL     1       0.918   3.652  20.480  0.00  0.00    +0.000 A 
ATOM     11  C   UNL     1       1.562   4.659  19.744  0.00  0.00    +0.000 A 
ATOM     12  C   UNL     1       2.929   4.510  19.453  0.00  0.00    +0.000 A 
ATOM     13  C   UNL     1       6.323   5.007  18.316  0.00  0.00    +0.000 A 
ATOM     14  O   UNL     1       7.405   4.429  18.394  0.00  0.00    +0.000 OA
ENDROOT
BRANCH   1  15
ATOM     15  C   UNL     1       7.325   6.840  17.049  0.00  0.00    +0.000 C 
BRANCH  15  17
ATOM     16  O   UNL     1       8.593   7.222  19.060  0.00  0.00    +0.000 OA
ATOM     17  C   UNL     1       8.049   7.707  18.072  0.00  0.00    +0.000 C 
ATOM     18  N   UNL     1       8.078   9.047  17.765  0.00  0.00    +0.000 N 
ATOM     19  H   UNL     1       7.924   9.325  16.795  0.00  0.00    +0.000 HD
BRANCH  18  20
ATOM     20  C   UNL     1       8.758  10.022  18.607  0.00  0.00    +0.000 C 
BRANCH  20  21
ATOM     21  C   UNL     1       9.467  11.092  17.773  0.00  0.00    +0.000 C 
ATOM     22  C   UNL     1      10.837  11.494  18.305  0.00  0.00    +0.000 C 
ATOM     23  C   UNL     1      10.936  12.939  17.890  0.00  0.00    +0.000 C 
ATOM     24  C   UNL     1       9.507  13.414  18.031  0.00  0.00    +0.000 C 
ATOM     25  O   UNL     1       8.666  12.291  17.736  0.00  0.00    +0.000 OA
ENDBRANCH  20  21
ENDBRANCH  18  20
ENDBRANCH  15  17
ENDBRANCH   1  15
TORSDOF 4
ENDMDL
MODEL 4
REMARK VINA RESULT:      -7.8      1.207      1.824
REMARK  Name = 
REMARK  4 active torsions:
REMARK  status: ('A' for Active; 'I' for Inactive)
REMARK    1  A    between atoms: C_2  and  C_3
REMARK    2  A    between atoms: C_3  and  N_4
REMARK    3  A    between atoms: N_18  and  C_19
REMARK    4  A    between atoms: C_19  and  C_20
REMARK                            x       y       z     vdW  Elec       q    Type
REMARK                         _______ _______ _______ _____ _____    ______ ____
ROOT
ATOM      1  N   UNL     1       5.927   5.219  18.025  0.00  0.00    +0.000 N 
ATOM      2  C   UNL     1       6.854   6.118  17.506  0.00  0.00    +0.000 A 
ATOM      3  N   UNL     1       7.318   6.155  16.292  0.00  0.00    +0.000 NA
ATOM      4  C   UNL     1       6.773   5.162  15.471  0.00  0.00    +0.000 A 
ATOM      5  C   UNL     1       5.848   4.259  15.907  0.00  0.00    +0.000 A 
ATOM      6  O   UNL     1       5.480   3.418  14.906  0.00  0.00    +0.000 OA
ATOM      7  C   UNL     1       6.192   3.817  13.805  0.00  0.00    +0.000 A 
ATOM      8  C   UNL     1       6.115   3.237  12.541  0.00  0.00    +0.000 A 
ATOM      9  C   UNL     1       6.918   3.800  11.542  0.00  0.00    +0.000 A 
ATOM     10  C   UNL     1       7.753   4.887  11.810  0.00  0.00    +0.000 A 
ATOM     11  C   UNL     1       7.815   5.453  13.093  0.00  0.00    +0.000 A 
ATOM     12  C   UNL     1       7.015   4.905  14.110  0.00  0.00    +0.000 A 
ATOM     13  C   UNL     1       5.336   4.228  17.238  0.00  0.00    +0.000 A 
ATOM     14  O   UNL     1       4.478   3.458  17.665  0.00  0.00    +0.000 OA
ENDROOT
BRANCH   1  15
ATOM     15  C   UNL     1       5.524   5.321  19.415  0.00  0.00    +0.000 C 
BRANCH  15  17
ATOM     16  O   UNL     1       3.614   6.620  18.730  0.00  0.00    +0.000 OA
ATOM     17  C   UNL     1       4.065   5.761  19.482  0.00  0.00    +0.000 C 
ATOM     18  N   UNL     1       3.309   5.083  20.410  0.00  0.00    +0.000 N 
ATOM     19  H   UNL     1       3.643   4.176  20.738  0.00  0.00    +0.000 HD
BRANCH  18  20
ATOM     20  C   UNL     1       1.887   5.341  20.588  0.00  0.00    +0.000 C 
BRANCH  20  21
ATOM     21  C   UNL     1       1.034   4.162  20.112  0.00  0.00    +0.000 C 
ATOM     22  C   UNL     1       1.449   2.815  20.693  0.00  0.00    +0.000 C 
ATOM     23  C   UNL     1       1.087   1.858  19.587  0.00  0.00    +0.000 C 
ATOM     24  C   UNL     1       1.383   2.672  18.347  0.00  0.00    +0.000 C 
ATOM     25  O   UNL     1       1.124   4.043  18.678  0.00  0.00    +0.000 OA
ENDBRANCH  20  21
ENDBRANCH  18  20
ENDBRANCH  15  17
ENDBRANCH   1  15
TORSDOF 4
ENDMDL
MODEL 5
REMARK VINA RESULT:      -7.7      3.908      7.716
REMARK  Name = 
REMARK  4 active torsions:
REMARK  status: ('A' for Active; 'I' for Inactive)
REMARK    1  A    between atoms: C_2  and  C_3
REMARK    2  A    between atoms: C_3  and  N_4
REMARK    3  A    between atoms: N_18  and  C_19
REMARK    4  A    between atoms: C_19  and  C_20
REMARK                            x       y       z     vdW  Elec       q    Type
REMARK                         _______ _______ _______ _____ _____    ______ ____
ROOT
ATOM      1  N   UNL     1       6.066   6.318  17.055  0.00  0.00    +0.000 N 
ATOM      2  C   UNL     1       4.899   7.002  17.383  0.00  0.00    +0.000 A 
ATOM      3  N   UNL     1       3.770   6.489  17.773  0.00  0.00    +0.000 NA
ATOM      4  C   UNL     1       3.809   5.094  17.863  0.00  0.00    +0.000 A 
ATOM      5  C   UNL     1       4.922   4.359  17.574  0.00  0.00    +0.000 A 
ATOM      6  O   UNL     1       4.691   3.033  17.756  0.00  0.00    +0.000 OA
ATOM      7  C   UNL     1       3.391   2.938  18.182  0.00  0.00    +0.000 A 
ATOM      8  C   UNL     1       2.733   1.754  18.504  0.00  0.00    +0.000 A 
ATOM      9  C   UNL     1       1.406   1.870  18.933  0.00  0.00    +0.000 A 
ATOM     10  C   UNL     1       0.781   3.117  19.027  0.00  0.00    +0.000 A 
ATOM     11  C   UNL     1       1.465   4.296  18.694  0.00  0.00    +0.000 A 
ATOM     12  C   UNL     1       2.800   4.202  18.264  0.00  0.00    +0.000 A 
ATOM     13  C   UNL     1       6.162   4.928  17.155  0.00  0.00    +0.000 A 
ATOM     14  O   UNL     1       7.198   4.310  16.919  0.00  0.00    +0.000 OA
ENDROOT
BRANCH   1  15
ATOM     15  C   UNL     1       7.240   7.056  16.630  0.00  0.00    +0.000 C 
BRANCH  15  17
ATOM     16  O   UNL     1       8.248   6.998  18.816  0.00  0.00    +0.000 OA
ATOM     17  C   UNL     1       7.911   7.676  17.850  0.00  0.00    +0.000 C 
ATOM     18  N   UNL     1       8.145   9.028  17.746  0.00  0.00    +0.000 N 
ATOM     19  H   UNL     1       8.164   9.446  16.816  0.00  0.00    +0.000 HD
BRANCH  18  20
ATOM     20  C   UNL     1       8.812   9.783  18.798  0.00  0.00    +0.000 C 
BRANCH  20  21
ATOM     21  C   UNL     1       9.652  10.928  18.226  0.00  0.00    +0.000 C 
ATOM     22  C   UNL     1      10.642  11.532  19.215  0.00  0.00    +0.000 C 
ATOM     23  C   UNL     1      10.715  12.968  18.765  0.00  0.00    +0.000 C 
ATOM     24  C   UNL     1       9.299  13.235  18.308  0.00  0.00    +0.000 C 
ATOM     25  O   UNL     1       8.787  11.999  17.794  0.00  0.00    +0.000 OA
ENDBRANCH  20  21
ENDBRANCH  18  20
ENDBRANCH  15  17
ENDBRANCH   1  15
TORSDOF 4
ENDMDL
MODEL 6
REMARK VINA RESULT:      -7.6      3.845      7.898
REMARK  Name = 
REMARK  4 active torsions:
REMARK  status: ('A' for Active; 'I' for Inactive)
REMARK    1  A    between atoms: C_2  and  C_3
REMARK    2  A    between atoms: C_3  and  N_4
REMARK    3  A    between atoms: N_18  and  C_19
REMARK    4  A    between atoms: C_19  and  C_20
REMARK                            x       y       z     vdW  Elec       q    Type
REMARK                         _______ _______ _______ _____ _____    ______ ____
ROOT
ATOM      1  N   UNL     1       6.661   6.083  17.840  0.00  0.00    +0.000 N 
ATOM      2  C   UNL     1       6.755   5.562  19.128  0.00  0.00    +0.000 A 
ATOM      3  N   UNL     1       5.830   4.931  19.789  0.00  0.00    +0.000 NA
ATOM      4  C   UNL     1       4.644   4.786  19.063  0.00  0.00    +0.000 A 
ATOM      5  C   UNL     1       4.487   5.256  17.791  0.00  0.00    +0.000 A 
ATOM      6  O   UNL     1       3.246   4.971  17.317  0.00  0.00    +0.000 OA
ATOM      7  C   UNL     1       2.611   4.291  18.323  0.00  0.00    +0.000 A 
ATOM      8  C   UNL     1       1.313   3.790  18.264  0.00  0.00    +0.000 A 
ATOM      9  C   UNL     1       0.850   3.111  19.397  0.00  0.00    +0.000 A 
ATOM     10  C   UNL     1       1.656   2.953  20.528  0.00  0.00    +0.000 A 
ATOM     11  C   UNL     1       2.960   3.469  20.564  0.00  0.00    +0.000 A 
ATOM     12  C   UNL     1       3.447   4.151  19.436  0.00  0.00    +0.000 A 
ATOM     13  C   UNL     1       5.507   5.940  17.066  0.00  0.00    +0.000 A 
ATOM     14  O   UNL     1       5.423   6.349  15.910  0.00  0.00    +0.000 OA
ENDROOT
BRANCH   1  15
ATOM     15  C   UNL     1       7.798   6.767  17.255  0.00  0.00    +0.000 C 
BRANCH  15  17
ATOM     16  O   UNL     1       6.954   9.022  17.315  0.00  0.00    +0.000 OA
ATOM     17  C   UNL     1       7.797   8.222  17.710  0.00  0.00    +0.000 C 
ATOM     18  N   UNL     1       8.778   8.534  18.624  0.00  0.00    +0.000 N 
ATOM     19  H   UNL     1       9.203   7.775  19.156  0.00  0.00    +0.000 HD
BRANCH  18  20
ATOM     20  C   UNL     1       8.906   9.865  19.199  0.00  0.00    +0.000 C 
BRANCH  20  21
ATOM     21  C   UNL     1       9.685  10.807  18.277  0.00  0.00    +0.000 C 
ATOM     22  C   UNL     1      10.863  11.505  18.947  0.00  0.00    +0.000 C 
ATOM     23  C   UNL     1      10.924  12.818  18.210  0.00  0.00    +0.000 C 
ATOM     24  C   UNL     1       9.464  13.109  17.948  0.00  0.00    +0.000 C 
ATOM     25  O   UNL     1       8.810  11.844  17.786  0.00  0.00    +0.000 OA
ENDBRANCH  20  21
ENDBRANCH  18  20
ENDBRANCH  15  17
ENDBRANCH   1  15
TORSDOF 4
ENDMDL
MODEL 7
REMARK VINA RESULT:      -7.6      1.874      7.066
REMARK  Name = 
REMARK  4 active torsions:
REMARK  status: ('A' for Active; 'I' for Inactive)
REMARK    1  A    between atoms: C_2  and  C_3
REMARK    2  A    between atoms: C_3  and  N_4
REMARK    3  A    between atoms: N_18  and  C_19
REMARK    4  A    between atoms: C_19  and  C_20
REMARK                            x       y       z     vdW  Elec       q    Type
REMARK                         _______ _______ _______ _____ _____    ______ ____
ROOT
ATOM      1  N   UNL     1       5.708   5.643  17.403  0.00  0.00    +0.000 N 
ATOM      2  C   UNL     1       4.402   5.940  17.022  0.00  0.00    +0.000 A 
ATOM      3  N   UNL     1       3.305   5.492  17.559  0.00  0.00    +0.000 NA
ATOM      4  C   UNL     1       3.540   4.635  18.639  0.00  0.00    +0.000 A 
ATOM      5  C   UNL     1       4.791   4.313  19.078  0.00  0.00    +0.000 A 
ATOM      6  O   UNL     1       4.732   3.475  20.145  0.00  0.00    +0.000 OA
ATOM      7  C   UNL     1       3.397   3.275  20.387  0.00  0.00    +0.000 A 
ATOM      8  C   UNL     1       2.872   2.487  21.407  0.00  0.00    +0.000 A 
ATOM      9  C   UNL     1       1.476   2.421  21.494  0.00  0.00    +0.000 A 
ATOM     10  C   UNL     1       0.660   3.112  20.594  0.00  0.00    +0.000 A 
ATOM     11  C   UNL     1       1.214   3.898  19.572  0.00  0.00    +0.000 A 
ATOM     12  C   UNL     1       2.613   3.981  19.469  0.00  0.00    +0.000 A 
ATOM     13  C   UNL     1       5.991   4.814  18.491  0.00  0.00    +0.000 A 
ATOM     14  O   UNL     1       7.135   4.581  18.874  0.00  0.00    +0.000 OA
ENDROOT
BRANCH   1  15
ATOM     15  C   UNL     1       6.820   6.233  16.683  0.00  0.00    +0.000 C 
BRANCH  15  17
ATOM     16  O   UNL     1       7.926   4.238  15.909  0.00  0.00    +0.000 OA
ATOM     17  C   UNL     1       7.302   5.255  15.618  0.00  0.00    +0.000 C 
ATOM     18  N   UNL     1       6.937   5.586  14.334  0.00  0.00    +0.000 N 
ATOM     19  H   UNL     1       6.152   6.223  14.202  0.00  0.00    +0.000 HD
BRANCH  18  20
ATOM     20  C   UNL     1       7.276   4.749  13.191  0.00  0.00    +0.000 C 
BRANCH  20  21
ATOM     21  C   UNL     1       6.307   3.573  13.044  0.00  0.00    +0.000 C 
ATOM     22  C   UNL     1       6.638   2.629  11.895  0.00  0.00    +0.000 C 
ATOM     23  C   UNL     1       5.278   2.132  11.480  0.00  0.00    +0.000 C 
ATOM     24  C   UNL     1       4.409   3.349  11.702  0.00  0.00    +0.000 C 
ATOM     25  O   UNL     1       4.973   4.067  12.807  0.00  0.00    +0.000 OA
ENDBRANCH  20  21
ENDBRANCH  18  20
ENDBRANCH  15  17
ENDBRANCH   1  15
TORSDOF 4
ENDMDL
MODEL 8
REMARK VINA RESULT:      -7.6      3.665      7.795
REMARK  Name = 
REMARK  4 active torsions:
REMARK  status: ('A' for Active; 'I' for Inactive)
REMARK    1  A    between atoms: C_2  and  C_3
REMARK    2  A    between atoms: C_3  and  N_4
REMARK    3  A    between atoms: N_18  and  C_19
REMARK    4  A    between atoms: C_19  and  C_20
REMARK                            x       y       z     vdW  Elec       q    Type
REMARK                         _______ _______ _______ _____ _____    ______ ____
ROOT
ATOM      1  N   UNL     1       6.483   5.817  17.706  0.00  0.00    +0.000 N 
ATOM      2  C   UNL     1       5.506   5.692  16.722  0.00  0.00    +0.000 A 
ATOM      3  N   UNL     1       4.320   5.176  16.854  0.00  0.00    +0.000 NA
ATOM      4  C   UNL     1       4.061   4.733  18.154  0.00  0.00    +0.000 A 
ATOM      5  C   UNL     1       4.964   4.840  19.172  0.00  0.00    +0.000 A 
ATOM      6  O   UNL     1       4.454   4.344  20.329  0.00  0.00    +0.000 OA
ATOM      7  C   UNL     1       3.185   3.923  20.025  0.00  0.00    +0.000 A 
ATOM      8  C   UNL     1       2.286   3.356  20.925  0.00  0.00    +0.000 A 
ATOM      9  C   UNL     1       1.030   3.002  20.420  0.00  0.00    +0.000 A 
ATOM     10  C   UNL     1       0.705   3.209  19.076  0.00  0.00    +0.000 A 
ATOM     11  C   UNL     1       1.628   3.780  18.188  0.00  0.00    +0.000 A 
ATOM     12  C   UNL     1       2.895   4.146  18.676  0.00  0.00    +0.000 A 
ATOM     13  C   UNL     1       6.261   5.414  19.024  0.00  0.00    +0.000 A 
ATOM     14  O   UNL     1       7.092   5.563  19.918  0.00  0.00    +0.000 OA
ENDROOT
BRANCH   1  15
ATOM     15  C   UNL     1       7.763   6.417  17.379  0.00  0.00    +0.000 C 
BRANCH  15  17
ATOM     16  O   UNL     1       6.892   8.658  17.241  0.00  0.00    +0.000 OA
ATOM     17  C   UNL     1       7.726   7.900  17.728  0.00  0.00    +0.000 C 
ATOM     18  N   UNL     1       8.661   8.289  18.659  0.00  0.00    +0.000 N 
ATOM     19  H   UNL     1       9.071   7.575  19.262  0.00  0.00    +0.000 HD
BRANCH  18  20
ATOM     20  C   UNL     1       8.750   9.660  19.143  0.00  0.00    +0.000 C 
BRANCH  20  21
ATOM     21  C   UNL     1       9.438  10.575  18.127  0.00  0.00    +0.000 C 
ATOM     22  C   UNL     1      10.662  11.303  18.669  0.00  0.00    +0.000 C 
ATOM     23  C   UNL     1      10.647  12.591  17.887  0.00  0.00    +0.000 C 
ATOM     24  C   UNL     1       9.167  12.863  17.742  0.00  0.00    +0.000 C 
ATOM     25  O   UNL     1       8.514  11.588  17.679  0.00  0.00    +0.000 OA
ENDBRANCH  20  21
ENDBRANCH  18  20
ENDBRANCH  15  17
ENDBRANCH   1  15
TORSDOF 4
ENDMDL
MODEL 9
REMARK VINA RESULT:      -7.5      3.353      6.379
REMARK  Name = 
REMARK  4 active torsions:
REMARK  status: ('A' for Active; 'I' for Inactive)
REMARK    1  A    between atoms: C_2  and  C_3
REMARK    2  A    between atoms: C_3  and  N_4
REMARK    3  A    between atoms: N_18  and  C_19
REMARK    4  A    between atoms: C_19  and  C_20
REMARK                            x       y       z     vdW  Elec       q    Type
REMARK                         _______ _______ _______ _____ _____    ______ ____
ROOT
ATOM      1  N   UNL     1       4.089   6.087  18.323  0.00  0.00    +0.000 N 
ATOM      2  C   UNL     1       3.449   5.913  19.547  0.00  0.00    +0.000 A 
ATOM      3  N   UNL     1       2.545   6.682  20.078  0.00  0.00    +0.000 NA
ATOM      4  C   UNL     1       2.219   7.775  19.270  0.00  0.00    +0.000 A 
ATOM      5  C   UNL     1       2.792   7.999  18.052  0.00  0.00    +0.000 A 
ATOM      6  O   UNL     1       2.287   9.121  17.475  0.00  0.00    +0.000 OA
ATOM      7  C   UNL     1       1.359   9.607  18.360  0.00  0.00    +0.000 A 
ATOM      8  C   UNL     1       0.581  10.746  18.167  0.00  0.00    +0.000 A 
ATOM      9  C   UNL     1      -0.320  11.071  19.187  0.00  0.00    +0.000 A 
ATOM     10  C   UNL     1      -0.425  10.286  20.339  0.00  0.00    +0.000 A 
ATOM     11  C   UNL     1       0.372   9.144  20.511  0.00  0.00    +0.000 A 
ATOM     12  C   UNL     1       1.282   8.798  19.497  0.00  0.00    +0.000 A 
ATOM     13  C   UNL     1       3.777   7.148  17.470  0.00  0.00    +0.000 A 
ATOM     14  O   UNL     1       4.294   7.291  16.364  0.00  0.00    +0.000 OA
ENDROOT
BRANCH   1  15
ATOM     15  C   UNL     1       5.085   5.127  17.887  0.00  0.00    +0.000 C 
BRANCH  15  17
ATOM     16  O   UNL     1       5.324   3.321  19.463  0.00  0.00    +0.000 OA
ATOM     17  C   UNL     1       4.750   3.758  18.469  0.00  0.00    +0.000 C 
ATOM     18  N   UNL     1       3.733   3.097  17.821  0.00  0.00    +0.000 N 
ATOM     19  H   UNL     1       3.087   3.642  17.250  0.00  0.00    +0.000 HD
BRANCH  18  20
ATOM     20  C   UNL     1       3.252   1.795  18.259  0.00  0.00    +0.000 C 
BRANCH  20  21
ATOM     21  C   UNL     1       2.037   1.922  19.182  0.00  0.00    +0.000 C 
ATOM     22  C   UNL     1       1.144   3.119  18.879  0.00  0.00    +0.000 C 
ATOM     23  C   UNL     1       0.597   3.470  20.239  0.00  0.00    +0.000 C 
ATOM     24  C   UNL     1       1.766   3.157  21.146  0.00  0.00    +0.000 C 
ATOM     25  O   UNL     1       2.475   2.064  20.549  0.00  0.00    +0.000 OA
ENDBRANCH  20  21
ENDBRANCH  18  20
ENDBRANCH  15  17
ENDBRANCH   1  15
TORSDOF 4
ENDMDL
