MODEL 1
REMARK VINA RESULT:      -7.8      0.000      0.000
REMARK  Name = 
REMARK  7 active torsions:
REMARK  status: ('A' for Active; 'I' for Inactive)
REMARK    1  A    between atoms: C_1  and  S_2
REMARK    2  A    between atoms: S_2  and  N_5
REMARK    3  A    between atoms: C_11  and  C_13
REMARK    4  A    between atoms: C_16  and  C_17
REMARK    5  A    between atoms: C_18  and  C_19
REMARK    6  A    between atoms: C_30  and  C_31
REMARK    7  A    between atoms: C_31  and  N_32
REMARK                            x       y       z     vdW  Elec       q    Type
REMARK                         _______ _______ _______ _____ _____    ______ ____
ROOT
ATOM      1  N   UNL     1      -2.870  14.490  23.863  0.00  0.00    +0.000 N 
ATOM      2  C   UNL     1      -1.806  14.102  22.915  0.00  0.00    +0.000 C 
ATOM      3  C   UNL     1      -2.479  13.134  21.883  0.00  0.00    +0.000 C 
ATOM      4  C   UNL     1      -1.971  11.692  22.071  0.00  0.00    +0.000 C 
ATOM      5  C   UNL     1      -0.506  11.534  21.656  0.00  0.00    +0.000 C 
ATOM      6  N   UNL     1      -0.295  12.002  20.290  0.00  0.00    +0.000 N 
ATOM      7  C   UNL     1       0.355  11.282  19.267  0.00  0.00    +0.000 C 
ATOM      8  O   UNL     1       0.383  11.738  18.121  0.00  0.00    +0.000 OA
ATOM      9  C   UNL     1      -0.748  13.367  20.015  0.00  0.00    +0.000 C 
ATOM     10  C   UNL     1      -2.208  13.577  20.429  0.00  0.00    +0.000 C 
ATOM     11  C   UNL     1      -3.951  13.260  22.252  0.00  0.00    +0.000 A 
ATOM     12  C   UNL     1      -5.048  12.635  21.657  0.00  0.00    +0.000 A 
ATOM     13  C   UNL     1      -6.337  12.852  22.179  0.00  0.00    +0.000 A 
ATOM     14  C   UNL     1      -6.493  13.705  23.288  0.00  0.00    +0.000 A 
ATOM     15  C   UNL     1      -5.390  14.316  23.891  0.00  0.00    +0.000 A 
ATOM     16  C   UNL     1      -4.131  14.085  23.366  0.00  0.00    +0.000 A 
ENDROOT
BRANCH   7  17
ATOM     17  C   UNL     1       0.948   9.979  19.546  0.00  0.00    +0.000 A 
ATOM     18  C   UNL     1       0.912   9.235  20.719  0.00  0.00    +0.000 A 
ATOM     19  C   UNL     1       1.635   8.043  20.481  0.00  0.00    +0.000 A 
ATOM     20  C   UNL     1       2.037   8.101  19.170  0.00  0.00    +0.000 A 
ATOM     21  O   UNL     1       1.600   9.249  18.580  0.00  0.00    +0.000 OA
BRANCH  20  22
ATOM     22  C   UNL     1       2.811   7.201  18.392  0.00  0.00    +0.000 C 
ATOM     23  C   UNL     1       3.521   6.488  17.739  0.00  0.00    +0.000 C 
BRANCH  23  24
ATOM     24  C   UNL     1       4.392   5.656  16.963  0.00  0.00    +0.000 A 
ATOM     25  C   UNL     1       5.147   6.211  15.925  0.00  0.00    +0.000 A 
ATOM     26  C   UNL     1       5.988   5.399  15.159  0.00  0.00    +0.000 A 
ATOM     27  C   UNL     1       6.082   4.035  15.433  0.00  0.00    +0.000 A 
ATOM     28  C   UNL     1       5.341   3.483  16.478  0.00  0.00    +0.000 A 
ATOM     29  C   UNL     1       4.498   4.293  17.243  0.00  0.00    +0.000 A 
ENDBRANCH  23  24
ENDBRANCH  20  22
ENDBRANCH   7  17
BRANCH   1  31
ATOM     30  C   UNL     1      -0.864  15.993  24.841  0.00  0.00    +0.000 C 
ATOM     31  S   UNL     1      -2.576  15.582  25.086  0.00  0.00    +0.000 S 
ATOM     32  O   UNL     1      -2.650  14.859  26.341  0.00  0.00    +0.000 OA
ATOM     33  O   UNL     1      -3.351  16.788  24.889  0.00  0.00    +0.000 OA
ENDBRANCH   1  31
BRANCH  13  34
ATOM     34  C   UNL     1      -7.542  12.146  21.604  0.00  0.00    +0.000 C 
BRANCH  34  35
ATOM     35  N   UNL     1      -7.182  10.885  20.969  0.00  0.00    +0.000 NA
ATOM     36  H   UNL     1      -6.166  10.820  20.926  0.00  0.00    +0.000 HD
ATOM     37  H   UNL     1      -7.505  10.901  20.002  0.00  0.00    +0.000 HD
ENDBRANCH  34  35
ENDBRANCH  13  34
TORSDOF 6
ENDMDL
MODEL 2
REMARK VINA RESULT:      -7.7      2.444      3.887
REMARK  Name = 
REMARK  7 active torsions:
REMARK  status: ('A' for Active; 'I' for Inactive)
REMARK    1  A    between atoms: C_1  and  S_2
REMARK    2  A    between atoms: S_2  and  N_5
REMARK    3  A    between atoms: C_11  and  C_13
REMARK    4  A    between atoms: C_16  and  C_17
REMARK    5  A    between atoms: C_18  and  C_19
REMARK    6  A    between atoms: C_30  and  C_31
REMARK    7  A    between atoms: C_31  and  N_32
REMARK                            x       y       z     vdW  Elec       q    Type
REMARK                         _______ _______ _______ _____ _____    ______ ____
ROOT
ATOM      1  N   UNL     1      -4.895  13.816  22.320  0.00  0.00    +0.000 N 
ATOM      2  C   UNL     1      -3.966  12.667  22.299  0.00  0.00    +0.000 C 
ATOM      3  C   UNL     1      -2.541  13.268  22.050  0.00  0.00    +0.000 C 
ATOM      4  C   UNL     1      -2.030  12.905  20.643  0.00  0.00    +0.000 C 
ATOM      5  C   UNL     1      -1.708  11.414  20.510  0.00  0.00    +0.000 C 
ATOM      6  N   UNL     1      -0.776  10.983  21.547  0.00  0.00    +0.000 N 
ATOM      7  C   UNL     1       0.414  10.260  21.330  0.00  0.00    +0.000 C 
ATOM      8  O   UNL     1       1.178  10.041  22.274  0.00  0.00    +0.000 OA
ATOM      9  C   UNL     1      -1.178  11.287  22.921  0.00  0.00    +0.000 C 
ATOM     10  C   UNL     1      -1.525  12.769  23.099  0.00  0.00    +0.000 C 
ATOM     11  C   UNL     1      -2.806  14.762  22.180  0.00  0.00    +0.000 A 
ATOM     12  C   UNL     1      -1.895  15.813  22.074  0.00  0.00    +0.000 A 
ATOM     13  C   UNL     1      -2.352  17.140  22.183  0.00  0.00    +0.000 A 
ATOM     14  C   UNL     1      -3.721  17.378  22.406  0.00  0.00    +0.000 A 
ATOM     15  C   UNL     1      -4.633  16.322  22.495  0.00  0.00    +0.000 A 
ATOM     16  C   UNL     1      -4.164  15.026  22.379  0.00  0.00    +0.000 A 
ENDROOT
BRANCH   7  17
ATOM     17  C   UNL     1       0.772   9.814  19.989  0.00  0.00    +0.000 A 
ATOM     18  C   UNL     1       0.194  10.153  18.771  0.00  0.00    +0.000 A 
ATOM     19  C   UNL     1       0.901   9.457  17.763  0.00  0.00    +0.000 A 
ATOM     20  C   UNL     1       1.895   8.765  18.409  0.00  0.00    +0.000 A 
ATOM     21  O   UNL     1       1.853   8.997  19.750  0.00  0.00    +0.000 OA
BRANCH  20  22
ATOM     22  C   UNL     1       2.890   7.883  17.912  0.00  0.00    +0.000 C 
ATOM     23  C   UNL     1       3.751   7.125  17.563  0.00  0.00    +0.000 C 
BRANCH  23  24
ATOM     24  C   UNL     1       4.786   6.213  17.175  0.00  0.00    +0.000 A 
ATOM     25  C   UNL     1       4.463   4.902  16.809  0.00  0.00    +0.000 A 
ATOM     26  C   UNL     1       5.473   4.009  16.443  0.00  0.00    +0.000 A 
ATOM     27  C   UNL     1       6.804   4.424  16.436  0.00  0.00    +0.000 A 
ATOM     28  C   UNL     1       7.127   5.735  16.786  0.00  0.00    +0.000 A 
ATOM     29  C   UNL     1       6.119   6.629  17.154  0.00  0.00    +0.000 A 
ENDBRANCH  23  24
ENDBRANCH  20  22
ENDBRANCH   7  17
BRANCH   1  31
ATOM     30  C   UNL     1      -7.289  14.336  21.209  0.00  0.00    +0.000 C 
ATOM     31  S   UNL     1      -6.517  13.606  22.634  0.00  0.00    +0.000 S 
ATOM     32  O   UNL     1      -6.854  14.451  23.763  0.00  0.00    +0.000 OA
ATOM     33  O   UNL     1      -6.855  12.199  22.647  0.00  0.00    +0.000 OA
ENDBRANCH   1  31
BRANCH  13  34
ATOM     34  C   UNL     1      -1.409  18.308  22.012  0.00  0.00    +0.000 C 
BRANCH  34  35
ATOM     35  N   UNL     1      -0.122  18.067  22.651  0.00  0.00    +0.000 NA
ATOM     36  H   UNL     1       0.557  18.727  22.275  0.00  0.00    +0.000 HD
ATOM     37  H   UNL     1       0.208  17.139  22.386  0.00  0.00    +0.000 HD
ENDBRANCH  34  35
ENDBRANCH  13  34
TORSDOF 6
ENDMDL
MODEL 3
REMARK VINA RESULT:      -7.6      3.875      4.842
REMARK  Name = 
REMARK  7 active torsions:
REMARK  status: ('A' for Active; 'I' for Inactive)
REMARK    1  A    between atoms: C_1  and  S_2
REMARK    2  A    between atoms: S_2  and  N_5
REMARK    3  A    between atoms: C_11  and  C_13
REMARK    4  A    between atoms: C_16  and  C_17
REMARK    5  A    between atoms: C_18  and  C_19
REMARK    6  A    between atoms: C_30  and  C_31
REMARK    7  A    between atoms: C_31  and  N_32
REMARK                            x       y       z     vdW  Elec       q    Type
REMARK                         _______ _______ _______ _____ _____    ______ ____
ROOT
ATOM      1  N   UNL     1       1.564  16.376  20.084  0.00  0.00    +0.000 N 
ATOM      2  C   UNL     1       1.243  15.097  19.417  0.00  0.00    +0.000 C 
ATOM      3  C   UNL     1       0.453  14.248  20.470  0.00  0.00    +0.000 C 
ATOM      4  C   UNL     1       1.299  13.058  20.961  0.00  0.00    +0.000 C 
ATOM      5  C   UNL     1       1.499  12.000  19.873  0.00  0.00    +0.000 C 
ATOM      6  N   UNL     1       0.220  11.558  19.328  0.00  0.00    +0.000 N 
ATOM      7  C   UNL     1      -0.192  10.218  19.186  0.00  0.00    +0.000 C 
ATOM      8  O   UNL     1      -1.340   9.967  18.808  0.00  0.00    +0.000 OA
ATOM      9  C   UNL     1      -0.655  12.623  18.835  0.00  0.00    +0.000 C 
ATOM     10  C   UNL     1      -0.874  13.715  19.888  0.00  0.00    +0.000 C 
ATOM     11  C   UNL     1       0.220  15.264  21.580  0.00  0.00    +0.000 A 
ATOM     12  C   UNL     1      -0.457  15.086  22.786  0.00  0.00    +0.000 A 
ATOM     13  C   UNL     1      -0.524  16.149  23.707  0.00  0.00    +0.000 A 
ATOM     14  C   UNL     1       0.088  17.375  23.385  0.00  0.00    +0.000 A 
ATOM     15  C   UNL     1       0.778  17.544  22.182  0.00  0.00    +0.000 A 
ATOM     16  C   UNL     1       0.839  16.485  21.294  0.00  0.00    +0.000 A 
ENDROOT
BRANCH   7  17
ATOM     17  C   UNL     1       0.712   9.128  19.532  0.00  0.00    +0.000 A 
ATOM     18  C   UNL     1       0.831   8.438  20.732  0.00  0.00    +0.000 A 
ATOM     19  C   UNL     1       1.852   7.473  20.561  0.00  0.00    +0.000 A 
ATOM     20  C   UNL     1       2.272   7.595  19.260  0.00  0.00    +0.000 A 
ATOM     21  O   UNL     1       1.570   8.567  18.614  0.00  0.00    +0.000 OA
BRANCH  20  22
ATOM     22  C   UNL     1       3.283   6.908  18.540  0.00  0.00    +0.000 C 
ATOM     23  C   UNL     1       4.130   6.377  17.877  0.00  0.00    +0.000 C 
BRANCH  23  24
ATOM     24  C   UNL     1       5.139   5.766  17.064  0.00  0.00    +0.000 A 
ATOM     25  C   UNL     1       6.181   5.049  17.661  0.00  0.00    +0.000 A 
ATOM     26  C   UNL     1       7.172   4.463  16.870  0.00  0.00    +0.000 A 
ATOM     27  C   UNL     1       7.121   4.585  15.482  0.00  0.00    +0.000 A 
ATOM     28  C   UNL     1       6.075   5.286  14.883  0.00  0.00    +0.000 A 
ATOM     29  C   UNL     1       5.083   5.874  15.673  0.00  0.00    +0.000 A 
ENDBRANCH  23  24
ENDBRANCH  20  22
ENDBRANCH   7  17
BRANCH   1  31
ATOM     30  C   UNL     1       2.907  16.787  17.790  0.00  0.00    +0.000 C 
ATOM     31  S   UNL     1       2.347  17.599  19.269  0.00  0.00    +0.000 S 
ATOM     32  O   UNL     1       3.534  17.937  20.028  0.00  0.00    +0.000 OA
ATOM     33  O   UNL     1       1.410  18.631  18.877  0.00  0.00    +0.000 OA
ENDBRANCH   1  31
BRANCH  13  34
ATOM     34  C   UNL     1      -1.193  15.977  25.050  0.00  0.00    +0.000 C 
BRANCH  34  35
ATOM     35  N   UNL     1      -0.870  17.067  25.962  0.00  0.00    +0.000 NA
ATOM     36  H   UNL     1      -0.182  16.734  26.636  0.00  0.00    +0.000 HD
ATOM     37  H   UNL     1      -1.703  17.302  26.501  0.00  0.00    +0.000 HD
ENDBRANCH  34  35
ENDBRANCH  13  34
TORSDOF 6
ENDMDL
MODEL 4
REMARK VINA RESULT:      -7.6      2.419      3.900
REMARK  Name = 
REMARK  7 active torsions:
REMARK  status: ('A' for Active; 'I' for Inactive)
REMARK    1  A    between atoms: C_1  and  S_2
REMARK    2  A    between atoms: S_2  and  N_5
REMARK    3  A    between atoms: C_11  and  C_13
REMARK    4  A    between atoms: C_16  and  C_17
REMARK    5  A    between atoms: C_18  and  C_19
REMARK    6  A    between atoms: C_30  and  C_31
REMARK    7  A    between atoms: C_31  and  N_32
REMARK                            x       y       z     vdW  Elec       q    Type
REMARK                         _______ _______ _______ _____ _____    ______ ____
ROOT
ATOM      1  N   UNL     1      -4.731  13.951  22.109  0.00  0.00    +0.000 N 
ATOM      2  C   UNL     1      -3.871  12.750  22.061  0.00  0.00    +0.000 C 
ATOM      3  C   UNL     1      -2.396  13.276  22.080  0.00  0.00    +0.000 C 
ATOM      4  C   UNL     1      -1.715  13.049  20.716  0.00  0.00    +0.000 C 
ATOM      5  C   UNL     1      -1.458  11.567  20.435  0.00  0.00    +0.000 C 
ATOM      6  N   UNL     1      -0.702  10.950  21.519  0.00  0.00    +0.000 N 
ATOM      7  C   UNL     1       0.467  10.176  21.368  0.00  0.00    +0.000 C 
ATOM      8  O   UNL     1       1.080   9.792  22.367  0.00  0.00    +0.000 OA
ATOM      9  C   UNL     1      -1.273  11.113  22.857  0.00  0.00    +0.000 C 
ATOM     10  C   UNL     1      -1.562  12.584  23.179  0.00  0.00    +0.000 C 
ATOM     11  C   UNL     1      -2.596  14.758  22.365  0.00  0.00    +0.000 A 
ATOM     12  C   UNL     1      -1.624  15.748  22.515  0.00  0.00    +0.000 A 
ATOM     13  C   UNL     1      -2.020  17.081  22.734  0.00  0.00    +0.000 A 
ATOM     14  C   UNL     1      -3.393  17.385  22.806  0.00  0.00    +0.000 A 
ATOM     15  C   UNL     1      -4.363  16.393  22.638  0.00  0.00    +0.000 A 
ATOM     16  C   UNL     1      -3.952  15.090  22.418  0.00  0.00    +0.000 A 
ENDROOT
BRANCH   7  17
ATOM     17  C   UNL     1       0.981   9.871  20.038  0.00  0.00    +0.000 A 
ATOM     18  C   UNL     1       0.793  10.563  18.848  0.00  0.00    +0.000 A 
ATOM     19  C   UNL     1       1.499   9.864  17.841  0.00  0.00    +0.000 A 
ATOM     20  C   UNL     1       2.113   8.811  18.472  0.00  0.00    +0.000 A 
ATOM     21  O   UNL     1       1.839   8.821  19.806  0.00  0.00    +0.000 OA
BRANCH  20  22
ATOM     22  C   UNL     1       2.929   7.767  17.963  0.00  0.00    +0.000 C 
ATOM     23  C   UNL     1       3.574   6.883  17.472  0.00  0.00    +0.000 C 
BRANCH  23  24
ATOM     24  C   UNL     1       4.327   5.829  16.861  0.00  0.00    +0.000 A 
ATOM     25  C   UNL     1       4.140   4.506  17.273  0.00  0.00    +0.000 A 
ATOM     26  C   UNL     1       4.883   3.478  16.687  0.00  0.00    +0.000 A 
ATOM     27  C   UNL     1       5.808   3.768  15.685  0.00  0.00    +0.000 A 
ATOM     28  C   UNL     1       5.985   5.085  15.262  0.00  0.00    +0.000 A 
ATOM     29  C   UNL     1       5.244   6.115  15.848  0.00  0.00    +0.000 A 
ENDBRANCH  23  24
ENDBRANCH  20  22
ENDBRANCH   7  17
BRANCH   1  31
ATOM     30  C   UNL     1      -6.744  14.231  23.873  0.00  0.00    +0.000 C 
ATOM     31  S   UNL     1      -6.390  13.818  22.180  0.00  0.00    +0.000 S 
ATOM     32  O   UNL     1      -6.722  12.416  22.020  0.00  0.00    +0.000 OA
ATOM     33  O   UNL     1      -7.017  14.819  21.342  0.00  0.00    +0.000 OA
ENDBRANCH   1  31
BRANCH  13  34
ATOM     34  C   UNL     1      -1.002  18.191  22.839  0.00  0.00    +0.000 C 
BRANCH  34  35
ATOM     35  N   UNL     1      -0.532  18.625  21.530  0.00  0.00    +0.000 NA
ATOM     36  H   UNL     1      -0.430  19.638  21.540  0.00  0.00    +0.000 HD
ATOM     37  H   UNL     1      -1.253  18.419  20.838  0.00  0.00    +0.000 HD
ENDBRANCH  34  35
ENDBRANCH  13  34
TORSDOF 6
ENDMDL
MODEL 5
REMARK VINA RESULT:      -7.6      2.583      3.857
REMARK  Name = 
REMARK  7 active torsions:
REMARK  status: ('A' for Active; 'I' for Inactive)
REMARK    1  A    between atoms: C_1  and  S_2
REMARK    2  A    between atoms: S_2  and  N_5
REMARK    3  A    between atoms: C_11  and  C_13
REMARK    4  A    between atoms: C_16  and  C_17
REMARK    5  A    between atoms: C_18  and  C_19
REMARK    6  A    between atoms: C_30  and  C_31
REMARK    7  A    between atoms: C_31  and  N_32
REMARK                            x       y       z     vdW  Elec       q    Type
REMARK                         _______ _______ _______ _____ _____    ______ ____
ROOT
ATOM      1  N   UNL     1      -5.413  13.866  22.066  0.00  0.00    +0.000 N 
ATOM      2  C   UNL     1      -4.454  12.742  22.069  0.00  0.00    +0.000 C 
ATOM      3  C   UNL     1      -3.028  13.390  22.098  0.00  0.00    +0.000 C 
ATOM      4  C   UNL     1      -2.304  13.185  20.754  0.00  0.00    +0.000 C 
ATOM      5  C   UNL     1      -1.918  11.721  20.521  0.00  0.00    +0.000 C 
ATOM      6  N   UNL     1      -1.134  11.201  21.637  0.00  0.00    +0.000 N 
ATOM      7  C   UNL     1       0.098  10.525  21.529  0.00  0.00    +0.000 C 
ATOM      8  O   UNL     1       0.721  10.222  22.550  0.00  0.00    +0.000 OA
ATOM      9  C   UNL     1      -1.744  11.353  22.959  0.00  0.00    +0.000 C 
ATOM     10  C   UNL     1      -2.161  12.802  23.232  0.00  0.00    +0.000 C 
ATOM     11  C   UNL     1      -3.357  14.858  22.336  0.00  0.00    +0.000 A 
ATOM     12  C   UNL     1      -2.475  15.930  22.475  0.00  0.00    +0.000 A 
ATOM     13  C   UNL     1      -2.986  17.230  22.647  0.00  0.00    +0.000 A 
ATOM     14  C   UNL     1      -4.381  17.419  22.685  0.00  0.00    +0.000 A 
ATOM     15  C   UNL     1      -5.261  16.344  22.530  0.00  0.00    +0.000 A 
ATOM     16  C   UNL     1      -4.738  15.076  22.355  0.00  0.00    +0.000 A 
ENDROOT
BRANCH   7  17
ATOM     17  C   UNL     1       0.663  10.228  20.218  0.00  0.00    +0.000 A 
ATOM     18  C   UNL     1       0.551  10.946  19.034  0.00  0.00    +0.000 A 
ATOM     19  C   UNL     1       1.280  10.244  18.047  0.00  0.00    +0.000 A 
ATOM     20  C   UNL     1       1.831   9.161  18.684  0.00  0.00    +0.000 A 
ATOM     21  O   UNL     1       1.497   9.155  20.005  0.00  0.00    +0.000 OA
BRANCH  20  22
ATOM     22  C   UNL     1       2.637   8.100  18.192  0.00  0.00    +0.000 C 
ATOM     23  C   UNL     1       3.258   7.180  17.739  0.00  0.00    +0.000 C 
BRANCH  23  24
ATOM     24  C   UNL     1       3.975   6.073  17.180  0.00  0.00    +0.000 A 
ATOM     25  C   UNL     1       5.033   6.300  16.293  0.00  0.00    +0.000 A 
ATOM     26  C   UNL     1       5.725   5.220  15.738  0.00  0.00    +0.000 A 
ATOM     27  C   UNL     1       5.367   3.915  16.072  0.00  0.00    +0.000 A 
ATOM     28  C   UNL     1       4.323   3.687  16.968  0.00  0.00    +0.000 A 
ATOM     29  C   UNL     1       3.629   4.765  17.523  0.00  0.00    +0.000 A 
ENDBRANCH  23  24
ENDBRANCH  20  22
ENDBRANCH   7  17
BRANCH   1  31
ATOM     30  C   UNL     1      -7.434  13.777  23.839  0.00  0.00    +0.000 C 
ATOM     31  S   UNL     1      -7.055  13.596  22.111  0.00  0.00    +0.000 S 
ATOM     32  O   UNL     1      -7.276  12.201  21.785  0.00  0.00    +0.000 OA
ATOM     33  O   UNL     1      -7.762  14.636  21.394  0.00  0.00    +0.000 OA
ENDBRANCH   1  31
BRANCH  13  34
ATOM     34  C   UNL     1      -2.067  18.425  22.738  0.00  0.00    +0.000 C 
BRANCH  34  35
ATOM     35  N   UNL     1      -0.664  18.034  22.732  0.00  0.00    +0.000 NA
ATOM     36  H   UNL     1      -0.234  18.373  21.873  0.00  0.00    +0.000 HD
ATOM     37  H   UNL     1      -0.607  17.017  22.695  0.00  0.00    +0.000 HD
ENDBRANCH  34  35
ENDBRANCH  13  34
TORSDOF 6
ENDMDL
MODEL 6
REMARK VINA RESULT:      -7.5      2.212      4.051
REMARK  Name = 
REMARK  7 active torsions:
REMARK  status: ('A' for Active; 'I' for Inactive)
REMARK    1  A    between atoms: C_1  and  S_2
REMARK    2  A    between atoms: S_2  and  N_5
REMARK    3  A    between atoms: C_11  and  C_13
REMARK    4  A    between atoms: C_16  and  C_17
REMARK    5  A    between atoms: C_18  and  C_19
REMARK    6  A    between atoms: C_30  and  C_31
REMARK    7  A    between atoms: C_31  and  N_32
REMARK                            x       y       z     vdW  Elec       q    Type
REMARK                         _______ _______ _______ _____ _____    ______ ____
ROOT
ATOM      1  N   UNL     1      -3.953  14.182  22.381  0.00  0.00    +0.000 N 
ATOM      2  C   UNL     1      -3.361  12.844  22.177  0.00  0.00    +0.000 C 
ATOM      3  C   UNL     1      -1.812  13.032  22.316  0.00  0.00    +0.000 C 
ATOM      4  C   UNL     1      -1.113  12.859  20.954  0.00  0.00    +0.000 C 
ATOM      5  C   UNL     1      -1.155  11.410  20.460  0.00  0.00    +0.000 C 
ATOM      6  N   UNL     1      -0.610  10.499  21.460  0.00  0.00    +0.000 N 
ATOM      7  C   UNL     1       0.378   9.521  21.227  0.00  0.00    +0.000 C 
ATOM      8  O   UNL     1       0.837   8.876  22.174  0.00  0.00    +0.000 OA
ATOM      9  C   UNL     1      -1.214  10.591  22.791  0.00  0.00    +0.000 C 
ATOM     10  C   UNL     1      -1.208  12.028  23.322  0.00  0.00    +0.000 C 
ATOM     11  C   UNL     1      -1.715  14.467  22.815  0.00  0.00    +0.000 A 
ATOM     12  C   UNL     1      -0.568  15.193  23.140  0.00  0.00    +0.000 A 
ATOM     13  C   UNL     1      -0.690  16.535  23.546  0.00  0.00    +0.000 A 
ATOM     14  C   UNL     1      -1.971  17.115  23.623  0.00  0.00    +0.000 A 
ATOM     15  C   UNL     1      -3.115  16.388  23.282  0.00  0.00    +0.000 A 
ATOM     16  C   UNL     1      -2.973  15.073  22.879  0.00  0.00    +0.000 A 
ENDROOT
BRANCH   7  17
ATOM     17  C   UNL     1       0.896   9.303  19.882  0.00  0.00    +0.000 A 
ATOM     18  C   UNL     1       0.473   9.860  18.681  0.00  0.00    +0.000 A 
ATOM     19  C   UNL     1       1.297   9.330  17.661  0.00  0.00    +0.000 A 
ATOM     20  C   UNL     1       2.202   8.514  18.292  0.00  0.00    +0.000 A 
ATOM     21  O   UNL     1       1.995   8.513  19.638  0.00  0.00    +0.000 OA
BRANCH  20  22
ATOM     22  C   UNL     1       3.247   7.705  17.773  0.00  0.00    +0.000 C 
ATOM     23  C   UNL     1       4.125   6.980  17.396  0.00  0.00    +0.000 C 
BRANCH  23  24
ATOM     24  C   UNL     1       5.168   6.096  16.971  0.00  0.00    +0.000 A 
ATOM     25  C   UNL     1       6.082   5.592  17.902  0.00  0.00    +0.000 A 
ATOM     26  C   UNL     1       7.108   4.739  17.487  0.00  0.00    +0.000 A 
ATOM     27  C   UNL     1       7.219   4.383  16.143  0.00  0.00    +0.000 A 
ATOM     28  C   UNL     1       6.300   4.872  15.215  0.00  0.00    +0.000 A 
ATOM     29  C   UNL     1       5.274   5.726  15.629  0.00  0.00    +0.000 A 
ENDBRANCH  23  24
ENDBRANCH  20  22
ENDBRANCH   7  17
BRANCH   1  31
ATOM     30  C   UNL     1      -5.827  15.704  21.193  0.00  0.00    +0.000 C 
ATOM     31  S   UNL     1      -5.604  14.402  22.384  0.00  0.00    +0.000 S 
ATOM     32  O   UNL     1      -5.966  14.957  23.673  0.00  0.00    +0.000 OA
ATOM     33  O   UNL     1      -6.275  13.223  21.879  0.00  0.00    +0.000 OA
ENDBRANCH   1  31
BRANCH  13  34
ATOM     34  C   UNL     1       0.530  17.375  23.846  0.00  0.00    +0.000 C 
BRANCH  34  35
ATOM     35  N   UNL     1       1.115  17.041  25.138  0.00  0.00    +0.000 NA
ATOM     36  H   UNL     1       0.953  16.053  25.324  0.00  0.00    +0.000 HD
ATOM     37  H   UNL     1       0.617  17.552  25.865  0.00  0.00    +0.000 HD
ENDBRANCH  34  35
ENDBRANCH  13  34
TORSDOF 6
ENDMDL
MODEL 7
REMARK VINA RESULT:      -7.4      2.851      3.711
REMARK  Name = 
REMARK  7 active torsions:
REMARK  status: ('A' for Active; 'I' for Inactive)
REMARK    1  A    between atoms: C_1  and  S_2
REMARK    2  A    between atoms: S_2  and  N_5
REMARK    3  A    between atoms: C_11  and  C_13
REMARK    4  A    between atoms: C_16  and  C_17
REMARK    5  A    between atoms: C_18  and  C_19
REMARK    6  A    between atoms: C_30  and  C_31
REMARK    7  A    between atoms: C_31  and  N_32
REMARK                            x       y       z     vdW  Elec       q    Type
REMARK                         _______ _______ _______ _____ _____    ______ ____
ROOT
ATOM      1  N   UNL     1      -5.393  13.236  22.534  0.00  0.00    +0.000 N 
ATOM      2  C   UNL     1      -4.035  12.655  22.556  0.00  0.00    +0.000 C 
ATOM      3  C   UNL     1      -3.162  13.561  21.623  0.00  0.00    +0.000 C 
ATOM      4  C   UNL     1      -2.782  12.813  20.330  0.00  0.00    +0.000 C 
ATOM      5  C   UNL     1      -1.789  11.677  20.589  0.00  0.00    +0.000 C 
ATOM      6  N   UNL     1      -0.607  12.162  21.294  0.00  0.00    +0.000 N 
ATOM      7  C   UNL     1       0.729  11.930  20.910  0.00  0.00    +0.000 C 
ATOM      8  O   UNL     1       1.646  12.479  21.526  0.00  0.00    +0.000 OA
ATOM      9  C   UNL     1      -0.870  12.888  22.537  0.00  0.00    +0.000 C 
ATOM     10  C   UNL     1      -1.873  14.029  22.331  0.00  0.00    +0.000 C 
ATOM     11  C   UNL     1      -4.108  14.720  21.340  0.00  0.00    +0.000 A 
ATOM     12  C   UNL     1      -3.873  15.859  20.569  0.00  0.00    +0.000 A 
ATOM     13  C   UNL     1      -4.903  16.802  20.394  0.00  0.00    +0.000 A 
ATOM     14  C   UNL     1      -6.150  16.578  21.008  0.00  0.00    +0.000 A 
ATOM     15  C   UNL     1      -6.386  15.427  21.766  0.00  0.00    +0.000 A 
ATOM     16  C   UNL     1      -5.362  14.510  21.921  0.00  0.00    +0.000 A 
ENDROOT
BRANCH   7  17
ATOM     17  C   UNL     1       1.030  11.089  19.758  0.00  0.00    +0.000 A 
ATOM     18  C   UNL     1       1.040  11.423  18.409  0.00  0.00    +0.000 A 
ATOM     19  C   UNL     1       1.394  10.257  17.691  0.00  0.00    +0.000 A 
ATOM     20  C   UNL     1       1.622   9.288  18.635  0.00  0.00    +0.000 A 
ATOM     21  O   UNL     1       1.440   9.783  19.891  0.00  0.00    +0.000 OA
BRANCH  20  22
ATOM     22  C   UNL     1       1.982   7.921  18.499  0.00  0.00    +0.000 C 
ATOM     23  C   UNL     1       2.251   6.766  18.318  0.00  0.00    +0.000 C 
BRANCH  23  24
ATOM     24  C   UNL     1       2.560   5.389  18.073  0.00  0.00    +0.000 A 
ATOM     25  C   UNL     1       1.618   4.398  18.368  0.00  0.00    +0.000 A 
ATOM     26  C   UNL     1       1.922   3.053  18.142  0.00  0.00    +0.000 A 
ATOM     27  C   UNL     1       3.163   2.697  17.615  0.00  0.00    +0.000 A 
ATOM     28  C   UNL     1       4.098   3.685  17.306  0.00  0.00    +0.000 A 
ATOM     29  C   UNL     1       3.796   5.030  17.533  0.00  0.00    +0.000 A 
ENDBRANCH  23  24
ENDBRANCH  20  22
ENDBRANCH   7  17
BRANCH   1  31
ATOM     30  C   UNL     1      -7.326  14.045  24.221  0.00  0.00    +0.000 C 
ATOM     31  S   UNL     1      -6.616  12.599  23.468  0.00  0.00    +0.000 S 
ATOM     32  O   UNL     1      -5.997  11.841  24.537  0.00  0.00    +0.000 OA
ATOM     33  O   UNL     1      -7.631  11.994  22.633  0.00  0.00    +0.000 OA
ENDBRANCH   1  31
BRANCH  13  34
ATOM     34  C   UNL     1      -4.710  18.017  19.517  0.00  0.00    +0.000 C 
BRANCH  34  35
ATOM     35  N   UNL     1      -3.409  18.013  18.861  0.00  0.00    +0.000 NA
ATOM     36  H   UNL     1      -2.862  17.235  19.227  0.00  0.00    +0.000 HD
ATOM     37  H   UNL     1      -2.906  18.860  19.125  0.00  0.00    +0.000 HD
ENDBRANCH  34  35
ENDBRANCH  13  34
TORSDOF 6
ENDMDL
MODEL 8
REMARK VINA RESULT:      -7.4      3.119      4.115
REMARK  Name = 
REMARK  7 active torsions:
REMARK  status: ('A' for Active; 'I' for Inactive)
REMARK    1  A    between atoms: C_1  and  S_2
REMARK    2  A    between atoms: S_2  and  N_5
REMARK    3  A    between atoms: C_11  and  C_13
REMARK    4  A    between atoms: C_16  and  C_17
REMARK    5  A    between atoms: C_18  and  C_19
REMARK    6  A    between atoms: C_30  and  C_31
REMARK    7  A    between atoms: C_31  and  N_32
REMARK                            x       y       z     vdW  Elec       q    Type
REMARK                         _______ _______ _______ _____ _____    ______ ____
ROOT
ATOM      1  N   UNL     1      -5.262  13.677  21.051  0.00  0.00    +0.000 N 
ATOM      2  C   UNL     1      -4.198  12.691  21.332  0.00  0.00    +0.000 C 
ATOM      3  C   UNL     1      -2.845  13.414  21.017  0.00  0.00    +0.000 C 
ATOM      4  C   UNL     1      -2.189  12.826  19.753  0.00  0.00    +0.000 C 
ATOM      5  C   UNL     1      -1.675  11.400  19.976  0.00  0.00    +0.000 C 
ATOM      6  N   UNL     1      -0.776  11.340  21.123  0.00  0.00    +0.000 N 
ATOM      7  C   UNL     1       0.508  10.757  21.129  0.00  0.00    +0.000 C 
ATOM      8  O   UNL     1       1.221  10.858  22.131  0.00  0.00    +0.000 OA
ATOM      9  C   UNL     1      -1.314  11.878  22.374  0.00  0.00    +0.000 C 
ATOM     10  C   UNL     1      -1.855  13.301  22.196  0.00  0.00    +0.000 C 
ATOM     11  C   UNL     1      -3.302  14.848  20.793  0.00  0.00    +0.000 A 
ATOM     12  C   UNL     1      -2.523  15.967  20.493  0.00  0.00    +0.000 A 
ATOM     13  C   UNL     1      -3.149  17.210  20.278  0.00  0.00    +0.000 A 
ATOM     14  C   UNL     1      -4.550  17.299  20.380  0.00  0.00    +0.000 A 
ATOM     15  C   UNL     1      -5.327  16.172  20.665  0.00  0.00    +0.000 A 
ATOM     16  C   UNL     1      -4.694  14.960  20.866  0.00  0.00    +0.000 A 
ENDROOT
BRANCH   7  17
ATOM     17  C   UNL     1       1.017  10.083  19.941  0.00  0.00    +0.000 A 
ATOM     18  C   UNL     1       1.220  10.594  18.665  0.00  0.00    +0.000 A 
ATOM     19  C   UNL     1       1.729   9.542  17.868  0.00  0.00    +0.000 A 
ATOM     20  C   UNL     1       1.848   8.460  18.704  0.00  0.00    +0.000 A 
ATOM     21  O   UNL     1       1.455   8.779  19.968  0.00  0.00    +0.000 OA
BRANCH  20  22
ATOM     22  C   UNL     1       2.279   7.131  18.452  0.00  0.00    +0.000 C 
ATOM     23  C   UNL     1       2.575   5.993  18.217  0.00  0.00    +0.000 C 
BRANCH  23  24
ATOM     24  C   UNL     1       2.898   4.628  17.927  0.00  0.00    +0.000 A 
ATOM     25  C   UNL     1       4.132   4.308  17.350  0.00  0.00    +0.000 A 
ATOM     26  C   UNL     1       4.444   2.979  17.055  0.00  0.00    +0.000 A 
ATOM     27  C   UNL     1       3.529   1.966  17.340  0.00  0.00    +0.000 A 
ATOM     28  C   UNL     1       2.304   2.281  17.929  0.00  0.00    +0.000 A 
ATOM     29  C   UNL     1       1.990   3.610  18.224  0.00  0.00    +0.000 A 
ENDBRANCH  23  24
ENDBRANCH  20  22
ENDBRANCH   7  17
BRANCH   1  31
ATOM     30  C   UNL     1      -7.188  14.156  22.867  0.00  0.00    +0.000 C 
ATOM     31  S   UNL     1      -6.864  13.319  21.332  0.00  0.00    +0.000 S 
ATOM     32  O   UNL     1      -6.949  11.899  21.612  0.00  0.00    +0.000 OA
ATOM     33  O   UNL     1      -7.705  13.917  20.318  0.00  0.00    +0.000 OA
ENDBRANCH   1  31
BRANCH  13  34
ATOM     34  C   UNL     1      -2.349  18.430  19.889  0.00  0.00    +0.000 C 
BRANCH  34  35
ATOM     35  N   UNL     1      -2.327  18.630  18.446  0.00  0.00    +0.000 NA
ATOM     36  H   UNL     1      -1.359  18.617  18.130  0.00  0.00    +0.000 HD
ATOM     37  H   UNL     1      -2.680  19.563  18.238  0.00  0.00    +0.000 HD
ENDBRANCH  34  35
ENDBRANCH  13  34
TORSDOF 6
ENDMDL
MODEL 9
REMARK VINA RESULT:      -7.4      1.956      2.324
REMARK  Name = 
REMARK  7 active torsions:
REMARK  status: ('A' for Active; 'I' for Inactive)
REMARK    1  A    between atoms: C_1  and  S_2
REMARK    2  A    between atoms: S_2  and  N_5
REMARK    3  A    between atoms: C_11  and  C_13
REMARK    4  A    between atoms: C_16  and  C_17
REMARK    5  A    between atoms: C_18  and  C_19
REMARK    6  A    between atoms: C_30  and  C_31
REMARK    7  A    between atoms: C_31  and  N_32
REMARK                            x       y       z     vdW  Elec       q    Type
REMARK                         _______ _______ _______ _____ _____    ______ ____
ROOT
ATOM      1  N   UNL     1      -1.375  15.836  21.881  0.00  0.00    +0.000 N 
ATOM      2  C   UNL     1      -0.903  14.908  20.832  0.00  0.00    +0.000 C 
ATOM      3  C   UNL     1      -1.748  13.600  21.000  0.00  0.00    +0.000 C 
ATOM      4  C   UNL     1      -0.876  12.448  21.532  0.00  0.00    +0.000 C 
ATOM      5  C   UNL     1       0.144  11.966  20.497  0.00  0.00    +0.000 C 
ATOM      6  N   UNL     1      -0.511  11.606  19.243  0.00  0.00    +0.000 N 
ATOM      7  C   UNL     1      -0.333  10.397  18.542  0.00  0.00    +0.000 C 
ATOM      8  O   UNL     1      -1.020  10.161  17.545  0.00  0.00    +0.000 OA
ATOM      9  C   UNL     1      -1.364  12.643  18.659  0.00  0.00    +0.000 C 
ATOM     10  C   UNL     1      -2.394  13.168  19.666  0.00  0.00    +0.000 C 
ATOM     11  C   UNL     1      -2.790  14.031  22.023  0.00  0.00    +0.000 A 
ATOM     12  C   UNL     1      -3.839  13.282  22.556  0.00  0.00    +0.000 A 
ATOM     13  C   UNL     1      -4.674  13.855  23.533  0.00  0.00    +0.000 A 
ATOM     14  C   UNL     1      -4.437  15.180  23.946  0.00  0.00    +0.000 A 
ATOM     15  C   UNL     1      -3.375  15.922  23.421  0.00  0.00    +0.000 A 
ATOM     16  C   UNL     1      -2.562  15.337  22.467  0.00  0.00    +0.000 A 
ENDROOT
BRANCH   7  17
ATOM     17  C   UNL     1       0.621   9.402  19.019  0.00  0.00    +0.000 A 
ATOM     18  C   UNL     1       0.798   8.907  20.305  0.00  0.00    +0.000 A 
ATOM     19  C   UNL     1       1.849   7.961  20.248  0.00  0.00    +0.000 A 
ATOM     20  C   UNL     1       2.228   7.897  18.931  0.00  0.00    +0.000 A 
ATOM     21  O   UNL     1       1.473   8.736  18.169  0.00  0.00    +0.000 OA
BRANCH  20  22
ATOM     22  C   UNL     1       3.244   7.141  18.290  0.00  0.00    +0.000 C 
ATOM     23  C   UNL     1       4.056   6.492  17.692  0.00  0.00    +0.000 C 
BRANCH  23  24
ATOM     24  C   UNL     1       5.006   5.715  16.953  0.00  0.00    +0.000 A 
ATOM     25  C   UNL     1       6.288   6.219  16.713  0.00  0.00    +0.000 A 
ATOM     26  C   UNL     1       7.212   5.467  15.982  0.00  0.00    +0.000 A 
ATOM     27  C   UNL     1       6.859   4.209  15.496  0.00  0.00    +0.000 A 
ATOM     28  C   UNL     1       5.586   3.697  15.747  0.00  0.00    +0.000 A 
ATOM     29  C   UNL     1       4.661   4.449  16.477  0.00  0.00    +0.000 A 
ENDBRANCH  23  24
ENDBRANCH  20  22
ENDBRANCH   7  17
BRANCH   1  31
ATOM     30  C   UNL     1      -2.019  18.353  21.183  0.00  0.00    +0.000 C 
ATOM     31  S   UNL     1      -0.771  17.383  21.997  0.00  0.00    +0.000 S 
ATOM     32  O   UNL     1       0.412  17.452  21.162  0.00  0.00    +0.000 OA
ATOM     33  O   UNL     1      -0.716  17.806  23.380  0.00  0.00    +0.000 OA
ENDBRANCH   1  31
BRANCH  13  34
ATOM     34  C   UNL     1      -5.782  13.058  24.181  0.00  0.00    +0.000 C 
BRANCH  34  35
ATOM     35  N   UNL     1      -5.264  11.941  24.961  0.00  0.00    +0.000 NA
ATOM     36  H   UNL     1      -5.902  11.153  24.864  0.00  0.00    +0.000 HD
ATOM     37  H   UNL     1      -5.277  12.196  25.948  0.00  0.00    +0.000 HD
ENDBRANCH  34  35
ENDBRANCH  13  34
TORSDOF 6
ENDMDL
