MODEL 1
REMARK VINA RESULT:      -7.2      0.000      0.000
REMARK  Name = 
REMARK  8 active torsions:
REMARK  status: ('A' for Active; 'I' for Inactive)
REMARK    1  A    between atoms: C_1  and  C_2
REMARK    2  A    between atoms: C_2  and  O_3
REMARK    3  A    between atoms: O_3  and  C_4
REMARK    4  A    between atoms: C_4  and  C_6
REMARK    5  A    between atoms: C_11  and  C_13
REMARK    6  A    between atoms: C_18  and  N_19
REMARK    7  A    between atoms: N_19  and  S_20
REMARK    8  A    between atoms: S_20  and  C_23
REMARK                            x       y       z     vdW  Elec       q    Type
REMARK                         _______ _______ _______ _____ _____    ______ ____
ROOT
ATOM      1  C   UNL     1       2.718   3.719  18.980  0.00  0.00    +0.000 A 
ATOM      2  C   UNL     1       2.492   2.425  19.479  0.00  0.00    +0.000 A 
ATOM      3  C   UNL     1       1.981   2.211  20.754  0.00  0.00    +0.000 A 
ATOM      4  C   UNL     1       1.808   3.291  21.606  0.00  0.00    +0.000 A 
ATOM      5  C   UNL     1       2.187   4.568  21.187  0.00  0.00    +0.000 A 
ATOM      6  C   UNL     1       2.659   4.798  19.886  0.00  0.00    +0.000 A 
ENDROOT
BRANCH   1  12
ATOM      7  C   UNL     1       6.762   4.371  17.935  0.00  0.00    +0.000 C 
ATOM      8  C   UNL     1       7.226   4.541  16.489  0.00  0.00    +0.000 C 
ATOM      9  C   UNL     1       6.083   4.954  15.556  0.00  0.00    +0.000 C 
ATOM     10  C   UNL     1       4.785   4.153  15.757  0.00  0.00    +0.000 C 
ATOM     11  N   UNL     1       4.440   3.953  17.168  0.00  0.00    +0.000 N 
ATOM     12  C   UNL     1       3.072   3.833  17.528  0.00  0.00    +0.000 C 
ATOM     13  O   UNL     1       2.152   3.884  16.715  0.00  0.00    +0.000 OA
ATOM     14  C   UNL     1       5.550   3.446  17.985  0.00  0.00    +0.000 C 
BRANCH   7  15
ATOM     15  C   UNL     1       6.521   5.722  18.593  0.00  0.00    +0.000 C 
ATOM     16  O   UNL     1       5.920   5.909  19.642  0.00  0.00    +0.000 OA
BRANCH  15  17
ATOM     17  O   UNL     1       6.976   6.719  17.784  0.00  0.00    +0.000 OA
BRANCH  17  19
ATOM     18  C   UNL     1       8.018   8.865  17.799  0.00  0.00    +0.000 C 
ATOM     19  C   UNL     1       8.111   7.435  18.304  0.00  0.00    +0.000 C 
ENDBRANCH  17  19
ENDBRANCH  15  17
ENDBRANCH   7  15
ENDBRANCH   1  12
BRANCH   6  20
ATOM     20  N   UNL     1       3.162   6.109  19.628  0.00  0.00    +0.000 N 
ATOM     21  H   UNL     1       4.181   6.214  19.594  0.00  0.00    +0.000 HD
BRANCH  20  22
ATOM     22  S   UNL     1       2.379   7.172  18.598  0.00  0.00    +0.000 S 
ATOM     23  O   UNL     1       3.402   7.882  17.863  0.00  0.00    +0.000 OA
ATOM     24  O   UNL     1       1.296   6.472  17.925  0.00  0.00    +0.000 OA
BRANCH  22  25
ATOM     25  C   UNL     1       1.644   8.365  19.710  0.00  0.00    +0.000 A 
ATOM     26  C   UNL     1       1.523   8.063  21.071  0.00  0.00    +0.000 A 
ATOM     27  C   UNL     1       0.938   8.999  21.934  0.00  0.00    +0.000 A 
ATOM     28  C   UNL     1       0.498  10.220  21.427  0.00  0.00    +0.000 A 
ATOM     29  F   UNL     1      -0.070  11.110  22.253  0.00  0.00    +0.000 F 
ATOM     30  C   UNL     1       0.643  10.534  20.080  0.00  0.00    +0.000 A 
ATOM     31  C   UNL     1       1.219   9.603  19.211  0.00  0.00    +0.000 A 
ENDBRANCH  22  25
ENDBRANCH  20  22
ENDBRANCH   6  20
TORSDOF 7
ENDMDL
MODEL 2
REMARK VINA RESULT:      -7.1      5.413     10.550
REMARK  Name = 
REMARK  8 active torsions:
REMARK  status: ('A' for Active; 'I' for Inactive)
REMARK    1  A    between atoms: C_1  and  C_2
REMARK    2  A    between atoms: C_2  and  O_3
REMARK    3  A    between atoms: O_3  and  C_4
REMARK    4  A    between atoms: C_4  and  C_6
REMARK    5  A    between atoms: C_11  and  C_13
REMARK    6  A    between atoms: C_18  and  N_19
REMARK    7  A    between atoms: N_19  and  S_20
REMARK    8  A    between atoms: S_20  and  C_23
REMARK                            x       y       z     vdW  Elec       q    Type
REMARK                         _______ _______ _______ _____ _____    ______ ____
ROOT
ATOM      1  C   UNL     1      -1.084  12.031  20.219  0.00  0.00    +0.000 A 
ATOM      2  C   UNL     1      -2.117  12.477  19.377  0.00  0.00    +0.000 A 
ATOM      3  C   UNL     1      -2.681  11.653  18.410  0.00  0.00    +0.000 A 
ATOM      4  C   UNL     1      -2.131  10.402  18.179  0.00  0.00    +0.000 A 
ATOM      5  C   UNL     1      -0.996  10.005  18.890  0.00  0.00    +0.000 A 
ATOM      6  C   UNL     1      -0.450  10.812  19.899  0.00  0.00    +0.000 A 
ENDROOT
BRANCH   1  12
ATOM      7  C   UNL     1      -3.808  12.531  23.412  0.00  0.00    +0.000 C 
ATOM      8  C   UNL     1      -3.533  13.455  24.596  0.00  0.00    +0.000 C 
ATOM      9  C   UNL     1      -2.477  14.517  24.275  0.00  0.00    +0.000 C 
ATOM     10  C   UNL     1      -1.237  13.971  23.544  0.00  0.00    +0.000 C 
ATOM     11  N   UNL     1      -1.566  13.025  22.472  0.00  0.00    +0.000 N 
ATOM     12  C   UNL     1      -0.699  12.930  21.353  0.00  0.00    +0.000 C 
ATOM     13  O   UNL     1       0.325  13.600  21.232  0.00  0.00    +0.000 OA
ATOM     14  C   UNL     1      -2.496  11.964  22.880  0.00  0.00    +0.000 C 
BRANCH   7  15
ATOM     15  C   UNL     1      -4.636  13.239  22.348  0.00  0.00    +0.000 C 
ATOM     16  O   UNL     1      -4.426  14.359  21.906  0.00  0.00    +0.000 OA
BRANCH  15  17
ATOM     17  O   UNL     1      -5.727  12.485  22.034  0.00  0.00    +0.000 OA
BRANCH  17  19
ATOM     18  C   UNL     1      -7.576  12.202  23.514  0.00  0.00    +0.000 C 
ATOM     19  C   UNL     1      -6.984  13.070  22.416  0.00  0.00    +0.000 C 
ENDBRANCH  17  19
ENDBRANCH  15  17
ENDBRANCH   7  15
ENDBRANCH   1  12
BRANCH   6  20
ATOM     20  N   UNL     1       0.795  10.374  20.443  0.00  0.00    +0.000 N 
ATOM     21  H   UNL     1       1.465  11.102  20.709  0.00  0.00    +0.000 HD
BRANCH  20  22
ATOM     22  S   UNL     1       0.908   9.020  21.422  0.00  0.00    +0.000 S 
ATOM     23  O   UNL     1       1.912   9.302  22.423  0.00  0.00    +0.000 OA
ATOM     24  O   UNL     1      -0.430   8.579  21.780  0.00  0.00    +0.000 OA
BRANCH  22  25
ATOM     25  C   UNL     1       1.615   7.782  20.341  0.00  0.00    +0.000 A 
ATOM     26  C   UNL     1       2.116   8.157  19.089  0.00  0.00    +0.000 A 
ATOM     27  C   UNL     1       2.659   7.180  18.245  0.00  0.00    +0.000 A 
ATOM     28  C   UNL     1       2.706   5.854  18.668  0.00  0.00    +0.000 A 
ATOM     29  F   UNL     1       3.217   4.919  17.855  0.00  0.00    +0.000 F 
ATOM     30  C   UNL     1       2.234   5.483  19.923  0.00  0.00    +0.000 A 
ATOM     31  C   UNL     1       1.684   6.450  20.769  0.00  0.00    +0.000 A 
ENDBRANCH  22  25
ENDBRANCH  20  22
ENDBRANCH   6  20
TORSDOF 7
ENDMDL
MODEL 3
REMARK VINA RESULT:      -6.9      5.703     10.695
REMARK  Name = 
REMARK  8 active torsions:
REMARK  status: ('A' for Active; 'I' for Inactive)
REMARK    1  A    between atoms: C_1  and  C_2
REMARK    2  A    between atoms: C_2  and  O_3
REMARK    3  A    between atoms: O_3  and  C_4
REMARK    4  A    between atoms: C_4  and  C_6
REMARK    5  A    between atoms: C_11  and  C_13
REMARK    6  A    between atoms: C_18  and  N_19
REMARK    7  A    between atoms: N_19  and  S_20
REMARK    8  A    between atoms: S_20  and  C_23
REMARK                            x       y       z     vdW  Elec       q    Type
REMARK                         _______ _______ _______ _____ _____    ______ ____
ROOT
ATOM      1  C   UNL     1      -2.293  12.292  19.470  0.00  0.00    +0.000 A 
ATOM      2  C   UNL     1      -3.594  12.523  18.990  0.00  0.00    +0.000 A 
ATOM      3  C   UNL     1      -4.287  11.562  18.262  0.00  0.00    +0.000 A 
ATOM      4  C   UNL     1      -3.639  10.395  17.889  0.00  0.00    +0.000 A 
ATOM      5  C   UNL     1      -2.292  10.220  18.213  0.00  0.00    +0.000 A 
ATOM      6  C   UNL     1      -1.600  11.164  18.986  0.00  0.00    +0.000 A 
ENDROOT
BRANCH   1  12
ATOM      7  C   UNL     1      -3.945  12.588  23.350  0.00  0.00    +0.000 C 
ATOM      8  C   UNL     1      -3.472  13.618  24.374  0.00  0.00    +0.000 C 
ATOM      9  C   UNL     1      -2.753  14.802  23.720  0.00  0.00    +0.000 C 
ATOM     10  C   UNL     1      -1.727  14.400  22.645  0.00  0.00    +0.000 C 
ATOM     11  N   UNL     1      -2.212  13.348  21.746  0.00  0.00    +0.000 N 
ATOM     12  C   UNL     1      -1.729  13.311  20.412  0.00  0.00    +0.000 C 
ATOM     13  O   UNL     1      -0.915  14.117  19.965  0.00  0.00    +0.000 OA
ATOM     14  C   UNL     1      -2.787  12.189  22.442  0.00  0.00    +0.000 C 
BRANCH   7  15
ATOM     15  C   UNL     1      -5.163  13.093  22.590  0.00  0.00    +0.000 C 
ATOM     16  O   UNL     1      -5.737  14.156  22.784  0.00  0.00    +0.000 OA
BRANCH  15  17
ATOM     17  O   UNL     1      -5.601  12.133  21.727  0.00  0.00    +0.000 OA
BRANCH  17  19
ATOM     18  C   UNL     1      -7.346  11.230  20.374  0.00  0.00    +0.000 C 
ATOM     19  C   UNL     1      -7.033  12.035  21.624  0.00  0.00    +0.000 C 
ENDBRANCH  17  19
ENDBRANCH  15  17
ENDBRANCH   7  15
ENDBRANCH   1  12
BRANCH   6  20
ATOM     20  N   UNL     1      -0.194  10.953  19.116  0.00  0.00    +0.000 N 
ATOM     21  H   UNL     1       0.417  11.721  18.822  0.00  0.00    +0.000 HD
BRANCH  20  22
ATOM     22  S   UNL     1       0.457  10.073  20.384  0.00  0.00    +0.000 S 
ATOM     23  O   UNL     1       1.386  10.943  21.071  0.00  0.00    +0.000 OA
ATOM     24  O   UNL     1      -0.614   9.387  21.087  0.00  0.00    +0.000 OA
BRANCH  22  25
ATOM     25  C   UNL     1       1.450   8.832  19.563  0.00  0.00    +0.000 A 
ATOM     26  C   UNL     1       1.858   9.032  18.239  0.00  0.00    +0.000 A 
ATOM     27  C   UNL     1       2.626   8.051  17.600  0.00  0.00    +0.000 A 
ATOM     28  C   UNL     1       2.986   6.898  18.295  0.00  0.00    +0.000 A 
ATOM     29  F   UNL     1       3.713   5.956  17.679  0.00  0.00    +0.000 F 
ATOM     30  C   UNL     1       2.605   6.709  19.620  0.00  0.00    +0.000 A 
ATOM     31  C   UNL     1       1.832   7.680  20.262  0.00  0.00    +0.000 A 
ENDBRANCH  22  25
ENDBRANCH  20  22
ENDBRANCH   6  20
TORSDOF 7
ENDMDL
MODEL 4
REMARK VINA RESULT:      -6.9      5.106     10.176
REMARK  Name = 
REMARK  8 active torsions:
REMARK  status: ('A' for Active; 'I' for Inactive)
REMARK    1  A    between atoms: C_1  and  C_2
REMARK    2  A    between atoms: C_2  and  O_3
REMARK    3  A    between atoms: O_3  and  C_4
REMARK    4  A    between atoms: C_4  and  C_6
REMARK    5  A    between atoms: C_11  and  C_13
REMARK    6  A    between atoms: C_18  and  N_19
REMARK    7  A    between atoms: N_19  and  S_20
REMARK    8  A    between atoms: S_20  and  C_23
REMARK                            x       y       z     vdW  Elec       q    Type
REMARK                         _______ _______ _______ _____ _____    ______ ____
ROOT
ATOM      1  C   UNL     1      -0.682  12.045  19.442  0.00  0.00    +0.000 A 
ATOM      2  C   UNL     1      -1.594  12.463  18.457  0.00  0.00    +0.000 A 
ATOM      3  C   UNL     1      -2.137  11.573  17.537  0.00  0.00    +0.000 A 
ATOM      4  C   UNL     1      -1.675  10.267  17.503  0.00  0.00    +0.000 A 
ATOM      5  C   UNL     1      -0.645   9.876  18.362  0.00  0.00    +0.000 A 
ATOM      6  C   UNL     1      -0.126  10.755  19.324  0.00  0.00    +0.000 A 
ENDROOT
BRANCH   1  12
ATOM      7  C   UNL     1      -3.142  12.314  22.868  0.00  0.00    +0.000 C 
ATOM      8  C   UNL     1      -2.894  13.323  23.988  0.00  0.00    +0.000 C 
ATOM      9  C   UNL     1      -2.034  14.505  23.528  0.00  0.00    +0.000 C 
ATOM     10  C   UNL     1      -0.802  14.102  22.698  0.00  0.00    +0.000 C 
ATOM     11  N   UNL     1      -1.090  13.070  21.697  0.00  0.00    +0.000 N 
ATOM     12  C   UNL     1      -0.325  13.043  20.501  0.00  0.00    +0.000 C 
ATOM     13  O   UNL     1       0.576  13.842  20.257  0.00  0.00    +0.000 OA
ATOM     14  C   UNL     1      -1.817  11.910  22.230  0.00  0.00    +0.000 C 
BRANCH   7  15
ATOM     15  C   UNL     1      -4.158  12.849  21.868  0.00  0.00    +0.000 C 
ATOM     16  O   UNL     1      -3.933  13.670  20.990  0.00  0.00    +0.000 OA
BRANCH  15  17
ATOM     17  O   UNL     1      -5.397  12.362  22.162  0.00  0.00    +0.000 OA
BRANCH  17  19
ATOM     18  C   UNL     1      -6.975  12.679  23.922  0.00  0.00    +0.000 C 
ATOM     19  C   UNL     1      -6.296  13.330  22.729  0.00  0.00    +0.000 C 
ENDBRANCH  17  19
ENDBRANCH  15  17
ENDBRANCH   7  15
ENDBRANCH   1  12
BRANCH   6  20
ATOM     20  N   UNL     1       1.024  10.295  20.033  0.00  0.00    +0.000 N 
ATOM     21  H   UNL     1       1.722  11.000  20.288  0.00  0.00    +0.000 HD
BRANCH  20  22
ATOM     22  S   UNL     1       0.938   9.053  21.153  0.00  0.00    +0.000 S 
ATOM     23  O   UNL     1       1.859   9.378  22.219  0.00  0.00    +0.000 OA
ATOM     24  O   UNL     1      -0.459   8.743  21.413  0.00  0.00    +0.000 OA
BRANCH  22  25
ATOM     25  C   UNL     1       1.650   7.659  20.285  0.00  0.00    +0.000 A 
ATOM     26  C   UNL     1       1.589   6.382  20.854  0.00  0.00    +0.000 A 
ATOM     27  C   UNL     1       2.159   5.299  20.173  0.00  0.00    +0.000 A 
ATOM     28  C   UNL     1       2.764   5.506  18.935  0.00  0.00    +0.000 A 
ATOM     29  F   UNL     1       3.317   4.469  18.290  0.00  0.00    +0.000 F 
ATOM     30  C   UNL     1       2.802   6.770  18.355  0.00  0.00    +0.000 A 
ATOM     31  C   UNL     1       2.242   7.857  19.032  0.00  0.00    +0.000 A 
ENDBRANCH  22  25
ENDBRANCH  20  22
ENDBRANCH   6  20
TORSDOF 7
ENDMDL
MODEL 5
REMARK VINA RESULT:      -6.9      5.038     10.095
REMARK  Name = 
REMARK  8 active torsions:
REMARK  status: ('A' for Active; 'I' for Inactive)
REMARK    1  A    between atoms: C_1  and  C_2
REMARK    2  A    between atoms: C_2  and  O_3
REMARK    3  A    between atoms: O_3  and  C_4
REMARK    4  A    between atoms: C_4  and  C_6
REMARK    5  A    between atoms: C_11  and  C_13
REMARK    6  A    between atoms: C_18  and  N_19
REMARK    7  A    between atoms: N_19  and  S_20
REMARK    8  A    between atoms: S_20  and  C_23
REMARK                            x       y       z     vdW  Elec       q    Type
REMARK                         _______ _______ _______ _____ _____    ______ ____
ROOT
ATOM      1  C   UNL     1      -0.692  12.049  19.687  0.00  0.00    +0.000 A 
ATOM      2  C   UNL     1      -1.618  12.562  18.763  0.00  0.00    +0.000 A 
ATOM      3  C   UNL     1      -2.179  11.768  17.770  0.00  0.00    +0.000 A 
ATOM      4  C   UNL     1      -1.723  10.470  17.601  0.00  0.00    +0.000 A 
ATOM      5  C   UNL     1      -0.682   9.994  18.402  0.00  0.00    +0.000 A 
ATOM      6  C   UNL     1      -0.144  10.774  19.436  0.00  0.00    +0.000 A 
ENDROOT
BRANCH   1  12
ATOM      7  C   UNL     1      -3.447  12.536  22.855  0.00  0.00    +0.000 C 
ATOM      8  C   UNL     1      -3.180  13.450  24.050  0.00  0.00    +0.000 C 
ATOM      9  C   UNL     1      -2.116  14.509  23.748  0.00  0.00    +0.000 C 
ATOM     10  C   UNL     1      -0.871  13.963  23.026  0.00  0.00    +0.000 C 
ATOM     11  N   UNL     1      -1.193  13.028  21.943  0.00  0.00    +0.000 N 
ATOM     12  C   UNL     1      -0.314  12.938  20.832  0.00  0.00    +0.000 C 
ATOM     13  O   UNL     1       0.713  13.605  20.727  0.00  0.00    +0.000 OA
ATOM     14  C   UNL     1      -2.132  11.968  22.333  0.00  0.00    +0.000 C 
BRANCH   7  15
ATOM     15  C   UNL     1      -4.261  13.256  21.789  0.00  0.00    +0.000 C 
ATOM     16  O   UNL     1      -4.810  14.341  21.919  0.00  0.00    +0.000 OA
BRANCH  15  17
ATOM     17  O   UNL     1      -4.390  12.460  20.690  0.00  0.00    +0.000 OA
BRANCH  17  19
ATOM     18  C   UNL     1      -5.727  11.737  18.852  0.00  0.00    +0.000 C 
ATOM     19  C   UNL     1      -5.750  12.204  20.298  0.00  0.00    +0.000 C 
ENDBRANCH  17  19
ENDBRANCH  15  17
ENDBRANCH   7  15
ENDBRANCH   1  12
BRANCH   6  20
ATOM     20  N   UNL     1       1.016  10.244  20.078  0.00  0.00    +0.000 N 
ATOM     21  H   UNL     1       1.762  10.909  20.305  0.00  0.00    +0.000 HD
BRANCH  20  22
ATOM     22  S   UNL     1       0.922   8.992  21.186  0.00  0.00    +0.000 S 
ATOM     23  O   UNL     1       1.836   9.307  22.261  0.00  0.00    +0.000 OA
ATOM     24  O   UNL     1      -0.476   8.680  21.434  0.00  0.00    +0.000 OA
BRANCH  22  25
ATOM     25  C   UNL     1       1.640   7.607  20.310  0.00  0.00    +0.000 A 
ATOM     26  C   UNL     1       2.277   7.816  19.081  0.00  0.00    +0.000 A 
ATOM     27  C   UNL     1       2.827   6.724  18.398  0.00  0.00    +0.000 A 
ATOM     28  C   UNL     1       2.745   5.451  18.956  0.00  0.00    +0.000 A 
ATOM     29  F   UNL     1       3.264   4.406  18.295  0.00  0.00    +0.000 F 
ATOM     30  C   UNL     1       2.137   5.244  20.190  0.00  0.00    +0.000 A 
ATOM     31  C   UNL     1       1.579   6.327  20.875  0.00  0.00    +0.000 A 
ENDBRANCH  22  25
ENDBRANCH  20  22
ENDBRANCH   6  20
TORSDOF 7
ENDMDL
MODEL 6
REMARK VINA RESULT:      -6.9      5.435     10.516
REMARK  Name = 
REMARK  8 active torsions:
REMARK  status: ('A' for Active; 'I' for Inactive)
REMARK    1  A    between atoms: C_1  and  C_2
REMARK    2  A    between atoms: C_2  and  O_3
REMARK    3  A    between atoms: O_3  and  C_4
REMARK    4  A    between atoms: C_4  and  C_6
REMARK    5  A    between atoms: C_11  and  C_13
REMARK    6  A    between atoms: C_18  and  N_19
REMARK    7  A    between atoms: N_19  and  S_20
REMARK    8  A    between atoms: S_20  and  C_23
REMARK                            x       y       z     vdW  Elec       q    Type
REMARK                         _______ _______ _______ _____ _____    ______ ____
ROOT
ATOM      1  C   UNL     1      -1.070  12.007  20.397  0.00  0.00    +0.000 A 
ATOM      2  C   UNL     1      -2.103  12.554  19.615  0.00  0.00    +0.000 A 
ATOM      3  C   UNL     1      -2.674  11.850  18.561  0.00  0.00    +0.000 A 
ATOM      4  C   UNL     1      -2.131  10.632  18.185  0.00  0.00    +0.000 A 
ATOM      5  C   UNL     1      -0.996  10.150  18.842  0.00  0.00    +0.000 A 
ATOM      6  C   UNL     1      -0.444  10.831  19.936  0.00  0.00    +0.000 A 
ENDROOT
BRANCH   1  12
ATOM      7  C   UNL     1      -4.097  13.135  23.123  0.00  0.00    +0.000 C 
ATOM      8  C   UNL     1      -3.812  13.946  24.386  0.00  0.00    +0.000 C 
ATOM      9  C   UNL     1      -2.489  14.712  24.301  0.00  0.00    +0.000 C 
ATOM     10  C   UNL     1      -1.314  13.882  23.755  0.00  0.00    +0.000 C 
ATOM     11  N   UNL     1      -1.675  13.063  22.593  0.00  0.00    +0.000 N 
ATOM     12  C   UNL     1      -0.678  12.767  21.627  0.00  0.00    +0.000 C 
ATOM     13  O   UNL     1       0.484  13.161  21.712  0.00  0.00    +0.000 OA
ATOM     14  C   UNL     1      -2.893  12.264  22.784  0.00  0.00    +0.000 C 
BRANCH   7  15
ATOM     15  C   UNL     1      -4.530  14.041  21.980  0.00  0.00    +0.000 C 
ATOM     16  O   UNL     1      -3.875  14.958  21.505  0.00  0.00    +0.000 OA
BRANCH  15  17
ATOM     17  O   UNL     1      -5.816  13.757  21.626  0.00  0.00    +0.000 OA
BRANCH  17  19
ATOM     18  C   UNL     1      -7.384  11.963  21.515  0.00  0.00    +0.000 C 
ATOM     19  C   UNL     1      -6.005  12.437  21.087  0.00  0.00    +0.000 C 
ENDBRANCH  17  19
ENDBRANCH  15  17
ENDBRANCH   7  15
ENDBRANCH   1  12
BRANCH   6  20
ATOM     20  N   UNL     1       0.800  10.327  20.421  0.00  0.00    +0.000 N 
ATOM     21  H   UNL     1       1.516  11.019  20.665  0.00  0.00    +0.000 HD
BRANCH  20  22
ATOM     22  S   UNL     1       0.889   8.957  21.381  0.00  0.00    +0.000 S 
ATOM     23  O   UNL     1       1.849   9.232  22.426  0.00  0.00    +0.000 OA
ATOM     24  O   UNL     1      -0.458   8.497  21.678  0.00  0.00    +0.000 OA
BRANCH  22  25
ATOM     25  C   UNL     1       1.652   7.746  20.308  0.00  0.00    +0.000 A 
ATOM     26  C   UNL     1       1.766   6.416  20.732  0.00  0.00    +0.000 A 
ATOM     27  C   UNL     1       2.375   5.477  19.890  0.00  0.00    +0.000 A 
ATOM     28  C   UNL     1       2.844   5.875  18.640  0.00  0.00    +0.000 A 
ATOM     29  F   UNL     1       3.434   4.976  17.840  0.00  0.00    +0.000 F 
ATOM     30  C   UNL     1       2.706   7.189  18.205  0.00  0.00    +0.000 A 
ATOM     31  C   UNL     1       2.107   8.135  19.042  0.00  0.00    +0.000 A 
ENDBRANCH  22  25
ENDBRANCH  20  22
ENDBRANCH   6  20
TORSDOF 7
ENDMDL
MODEL 7
REMARK VINA RESULT:      -6.8      5.247      7.779
REMARK  Name = 
REMARK  8 active torsions:
REMARK  status: ('A' for Active; 'I' for Inactive)
REMARK    1  A    between atoms: C_1  and  C_2
REMARK    2  A    between atoms: C_2  and  O_3
REMARK    3  A    between atoms: O_3  and  C_4
REMARK    4  A    between atoms: C_4  and  C_6
REMARK    5  A    between atoms: C_11  and  C_13
REMARK    6  A    between atoms: C_18  and  N_19
REMARK    7  A    between atoms: N_19  and  S_20
REMARK    8  A    between atoms: S_20  and  C_23
REMARK                            x       y       z     vdW  Elec       q    Type
REMARK                         _______ _______ _______ _____ _____    ______ ____
ROOT
ATOM      1  C   UNL     1       0.772  10.099  19.039  0.00  0.00    +0.000 A 
ATOM      2  C   UNL     1       1.258   9.461  17.885  0.00  0.00    +0.000 A 
ATOM      3  C   UNL     1       1.905   8.233  17.945  0.00  0.00    +0.000 A 
ATOM      4  C   UNL     1       2.195   7.678  19.181  0.00  0.00    +0.000 A 
ATOM      5  C   UNL     1       1.870   8.378  20.345  0.00  0.00    +0.000 A 
ATOM      6  C   UNL     1       1.175   9.596  20.293  0.00  0.00    +0.000 A 
ENDROOT
BRANCH   1  12
ATOM      7  C   UNL     1       2.629  13.895  18.950  0.00  0.00    +0.000 C 
ATOM      8  C   UNL     1       1.845  15.196  18.786  0.00  0.00    +0.000 C 
ATOM      9  C   UNL     1       0.368  15.038  19.164  0.00  0.00    +0.000 C 
ATOM     10  C   UNL     1      -0.297  13.774  18.591  0.00  0.00    +0.000 C 
ATOM     11  N   UNL     1       0.542  12.576  18.705  0.00  0.00    +0.000 N 
ATOM     12  C   UNL     1      -0.086  11.310  18.833  0.00  0.00    +0.000 C 
ATOM     13  O   UNL     1      -1.306  11.159  18.852  0.00  0.00    +0.000 OA
ATOM     14  C   UNL     1       1.915  12.764  18.218  0.00  0.00    +0.000 C 
BRANCH   7  15
ATOM     15  C   UNL     1       2.889  13.596  20.419  0.00  0.00    +0.000 C 
ATOM     16  O   UNL     1       2.292  12.772  21.098  0.00  0.00    +0.000 OA
BRANCH  15  17
ATOM     17  O   UNL     1       3.818  14.464  20.911  0.00  0.00    +0.000 OA
BRANCH  17  19
ATOM     18  C   UNL     1       3.546  16.604  21.929  0.00  0.00    +0.000 C 
ATOM     19  C   UNL     1       3.440  15.103  22.143  0.00  0.00    +0.000 C 
ENDBRANCH  17  19
ENDBRANCH  15  17
ENDBRANCH   7  15
ENDBRANCH   1  12
BRANCH   6  20
ATOM     20  N   UNL     1       1.041  10.290  21.532  0.00  0.00    +0.000 N 
ATOM     21  H   UNL     1       1.258  11.292  21.526  0.00  0.00    +0.000 HD
BRANCH  20  22
ATOM     22  S   UNL     1      -0.155   9.907  22.640  0.00  0.00    +0.000 S 
ATOM     23  O   UNL     1      -1.019   8.932  22.011  0.00  0.00    +0.000 OA
ATOM     24  O   UNL     1       0.456   9.668  23.937  0.00  0.00    +0.000 OA
BRANCH  22  25
ATOM     25  C   UNL     1      -1.111  11.415  22.759  0.00  0.00    +0.000 A 
ATOM     26  C   UNL     1      -0.612  12.600  22.205  0.00  0.00    +0.000 A 
ATOM     27  C   UNL     1      -1.361  13.778  22.312  0.00  0.00    +0.000 A 
ATOM     28  C   UNL     1      -2.597  13.751  22.955  0.00  0.00    +0.000 A 
ATOM     29  F   UNL     1      -3.308  14.882  23.064  0.00  0.00    +0.000 F 
ATOM     30  C   UNL     1      -3.108  12.569  23.482  0.00  0.00    +0.000 A 
ATOM     31  C   UNL     1      -2.363  11.391  23.386  0.00  0.00    +0.000 A 
ENDBRANCH  22  25
ENDBRANCH  20  22
ENDBRANCH   6  20
TORSDOF 7
ENDMDL
MODEL 8
REMARK VINA RESULT:      -6.8      4.645      8.760
REMARK  Name = 
REMARK  8 active torsions:
REMARK  status: ('A' for Active; 'I' for Inactive)
REMARK    1  A    between atoms: C_1  and  C_2
REMARK    2  A    between atoms: C_2  and  O_3
REMARK    3  A    between atoms: O_3  and  C_4
REMARK    4  A    between atoms: C_4  and  C_6
REMARK    5  A    between atoms: C_11  and  C_13
REMARK    6  A    between atoms: C_18  and  N_19
REMARK    7  A    between atoms: N_19  and  S_20
REMARK    8  A    between atoms: S_20  and  C_23
REMARK                            x       y       z     vdW  Elec       q    Type
REMARK                         _______ _______ _______ _____ _____    ______ ____
ROOT
ATOM      1  C   UNL     1      -1.625  11.649  19.889  0.00  0.00    +0.000 A 
ATOM      2  C   UNL     1      -2.683  12.007  19.036  0.00  0.00    +0.000 A 
ATOM      3  C   UNL     1      -3.039  11.227  17.942  0.00  0.00    +0.000 A 
ATOM      4  C   UNL     1      -2.256  10.135  17.604  0.00  0.00    +0.000 A 
ATOM      5  C   UNL     1      -1.101   9.860  18.340  0.00  0.00    +0.000 A 
ATOM      6  C   UNL     1      -0.762  10.615  19.473  0.00  0.00    +0.000 A 
ENDROOT
BRANCH   1  12
ATOM      7  C   UNL     1       0.819  15.096  19.789  0.00  0.00    +0.000 C 
ATOM      8  C   UNL     1       1.081  15.960  21.021  0.00  0.00    +0.000 C 
ATOM      9  C   UNL     1       0.816  15.207  22.328  0.00  0.00    +0.000 C 
ATOM     10  C   UNL     1      -0.496  14.402  22.337  0.00  0.00    +0.000 C 
ATOM     11  N   UNL     1      -0.728  13.660  21.093  0.00  0.00    +0.000 N 
ATOM     12  C   UNL     1      -1.467  12.449  21.145  0.00  0.00    +0.000 C 
ATOM     13  O   UNL     1      -1.931  11.985  22.184  0.00  0.00    +0.000 OA
ATOM     14  C   UNL     1      -0.569  14.471  19.879  0.00  0.00    +0.000 C 
BRANCH   7  15
ATOM     15  C   UNL     1       1.931  14.074  19.593  0.00  0.00    +0.000 C 
ATOM     16  O   UNL     1       1.794  12.859  19.596  0.00  0.00    +0.000 OA
BRANCH  15  17
ATOM     17  O   UNL     1       3.135  14.709  19.524  0.00  0.00    +0.000 OA
BRANCH  17  19
ATOM     18  C   UNL     1       3.608  15.637  17.378  0.00  0.00    +0.000 C 
ATOM     19  C   UNL     1       3.866  14.465  18.310  0.00  0.00    +0.000 C 
ENDBRANCH  17  19
ENDBRANCH  15  17
ENDBRANCH   7  15
ENDBRANCH   1  12
BRANCH   6  20
ATOM     20  N   UNL     1       0.517  10.340  20.045  0.00  0.00    +0.000 N 
ATOM     21  H   UNL     1       1.118  11.147  20.242  0.00  0.00    +0.000 HD
BRANCH  20  22
ATOM     22  S   UNL     1       0.751   9.093  21.138  0.00  0.00    +0.000 S 
ATOM     23  O   UNL     1       1.693   9.567  22.127  0.00  0.00    +0.000 OA
ATOM     24  O   UNL     1      -0.541   8.540  21.511  0.00  0.00    +0.000 OA
BRANCH  22  25
ATOM     25  C   UNL     1       1.615   7.855  20.179  0.00  0.00    +0.000 A 
ATOM     26  C   UNL     1       1.756   6.558  20.684  0.00  0.00    +0.000 A 
ATOM     27  C   UNL     1       2.444   5.598  19.931  0.00  0.00    +0.000 A 
ATOM     28  C   UNL     1       2.964   5.943  18.686  0.00  0.00    +0.000 A 
ATOM     29  F   UNL     1       3.630   5.025  17.972  0.00  0.00    +0.000 F 
ATOM     30  C   UNL     1       2.801   7.224  18.169  0.00  0.00    +0.000 A 
ATOM     31  C   UNL     1       2.123   8.191  18.917  0.00  0.00    +0.000 A 
ENDBRANCH  22  25
ENDBRANCH  20  22
ENDBRANCH   6  20
TORSDOF 7
ENDMDL
MODEL 9
REMARK VINA RESULT:      -6.8      4.571      8.660
REMARK  Name = 
REMARK  8 active torsions:
REMARK  status: ('A' for Active; 'I' for Inactive)
REMARK    1  A    between atoms: C_1  and  C_2
REMARK    2  A    between atoms: C_2  and  O_3
REMARK    3  A    between atoms: O_3  and  C_4
REMARK    4  A    between atoms: C_4  and  C_6
REMARK    5  A    between atoms: C_11  and  C_13
REMARK    6  A    between atoms: C_18  and  N_19
REMARK    7  A    between atoms: N_19  and  S_20
REMARK    8  A    between atoms: S_20  and  C_23
REMARK                            x       y       z     vdW  Elec       q    Type
REMARK                         _______ _______ _______ _____ _____    ______ ____
ROOT
ATOM      1  C   UNL     1      -1.672  11.650  19.337  0.00  0.00    +0.000 A 
ATOM      2  C   UNL     1      -2.678  11.902  18.389  0.00  0.00    +0.000 A 
ATOM      3  C   UNL     1      -2.885  11.061  17.301  0.00  0.00    +0.000 A 
ATOM      4  C   UNL     1      -2.001  10.020  17.069  0.00  0.00    +0.000 A 
ATOM      5  C   UNL     1      -0.894   9.855  17.906  0.00  0.00    +0.000 A 
ATOM      6  C   UNL     1      -0.705  10.670  19.032  0.00  0.00    +0.000 A 
ENDROOT
BRANCH   1  12
ATOM      7  C   UNL     1       1.129  14.803  19.622  0.00  0.00    +0.000 C 
ATOM      8  C   UNL     1       1.238  15.704  20.851  0.00  0.00    +0.000 C 
ATOM      9  C   UNL     1       0.630  15.062  22.101  0.00  0.00    +0.000 C 
ATOM     10  C   UNL     1      -0.742  14.403  21.867  0.00  0.00    +0.000 C 
ATOM     11  N   UNL     1      -0.805  13.620  20.629  0.00  0.00    +0.000 N 
ATOM     12  C   UNL     1      -1.676  12.501  20.570  0.00  0.00    +0.000 C 
ATOM     13  O   UNL     1      -2.390  12.150  21.508  0.00  0.00    +0.000 OA
ATOM     14  C   UNL     1      -0.313  14.338  19.446  0.00  0.00    +0.000 C 
BRANCH   7  15
ATOM     15  C   UNL     1       2.130  13.659  19.695  0.00  0.00    +0.000 C 
ATOM     16  O   UNL     1       2.367  12.977  20.682  0.00  0.00    +0.000 OA
BRANCH  15  17
ATOM     17  O   UNL     1       2.816  13.569  18.520  0.00  0.00    +0.000 OA
BRANCH  17  19
ATOM     18  C   UNL     1       4.716  14.902  17.970  0.00  0.00    +0.000 C 
ATOM     19  C   UNL     1       3.198  14.836  17.957  0.00  0.00    +0.000 C 
ENDBRANCH  17  19
ENDBRANCH  15  17
ENDBRANCH   7  15
ENDBRANCH   1  12
BRANCH   6  20
ATOM     20  N   UNL     1       0.537  10.510  19.716  0.00  0.00    +0.000 N 
ATOM     21  H   UNL     1       1.074  11.363  19.905  0.00  0.00    +0.000 HD
BRANCH  20  22
ATOM     22  S   UNL     1       0.754   9.348  20.902  0.00  0.00    +0.000 S 
ATOM     23  O   UNL     1       1.697   9.887  21.857  0.00  0.00    +0.000 OA
ATOM     24  O   UNL     1      -0.545   8.837  21.310  0.00  0.00    +0.000 OA
BRANCH  22  25
ATOM     25  C   UNL     1       1.610   8.032  20.045  0.00  0.00    +0.000 A 
ATOM     26  C   UNL     1       2.167   8.271  18.783  0.00  0.00    +0.000 A 
ATOM     27  C   UNL     1       2.827   7.232  18.115  0.00  0.00    +0.000 A 
ATOM     28  C   UNL     1       2.931   5.981  18.720  0.00  0.00    +0.000 A 
ATOM     29  F   UNL     1       3.554   4.986  18.074  0.00  0.00    +0.000 F 
ATOM     30  C   UNL     1       2.403   5.749  19.986  0.00  0.00    +0.000 A 
ATOM     31  C   UNL     1       1.736   6.778  20.656  0.00  0.00    +0.000 A 
ENDBRANCH  22  25
ENDBRANCH  20  22
ENDBRANCH   6  20
TORSDOF 7
ENDMDL
