MODEL 1
REMARK VINA RESULT:      -8.3      0.000      0.000
REMARK  Name = 
REMARK  9 active torsions:
REMARK  status: ('A' for Active; 'I' for Inactive)
REMARK    1  A    between atoms: C_1  and  O_2
REMARK    2  A    between atoms: O_2  and  C_3
REMARK    3  A    between atoms: C_6  and  C_7
REMARK    4  A    between atoms: N_9  and  C_10
REMARK    5  A    between atoms: C_17  and  C_18
REMARK    6  A    between atoms: N_20  and  N_21
REMARK    7  A    between atoms: N_21  and  C_22
REMARK    8  A    between atoms: C_22  and  N_24
REMARK    9  A    between atoms: N_24  and  C_25
REMARK                            x       y       z     vdW  Elec       q    Type
REMARK                         _______ _______ _______ _____ _____    ______ ____
ROOT
ATOM      1  C   UNL     1       5.384   6.084  16.982  0.00  0.00    +0.000 A 
ATOM      2  N   UNL     1       5.107   5.581  15.766  0.00  0.00    +0.000 NA
ATOM      3  N   UNL     1       6.304   5.354  15.179  0.00  0.00    +0.000 N 
ATOM      4  C   UNL     1       7.337   5.794  15.967  0.00  0.00    +0.000 A 
ATOM      5  C   UNL     1       6.787   6.298  17.130  0.00  0.00    +0.000 A 
ENDROOT
BRANCH   1   9
ATOM      6  C   UNL     1       2.310   6.701  19.912  0.00  0.00    +0.000 A 
ATOM      7  C   UNL     1       2.444   7.571  18.834  0.00  0.00    +0.000 A 
ATOM      8  C   UNL     1       3.431   7.360  17.869  0.00  0.00    +0.000 A 
ATOM      9  C   UNL     1       4.305   6.269  17.962  0.00  0.00    +0.000 A 
ATOM     10  C   UNL     1       4.173   5.405  19.059  0.00  0.00    +0.000 A 
ATOM     11  C   UNL     1       3.182   5.619  20.029  0.00  0.00    +0.000 A 
BRANCH   6  13
ATOM     12  C   UNL     1       1.061   8.432  20.927  0.00  0.00    +0.000 C 
ATOM     13  O   UNL     1       1.335   7.043  20.806  0.00  0.00    +0.000 OA
ENDBRANCH   6  13
ENDBRANCH   1   9
BRANCH   3  14
ATOM     14  C   UNL     1       6.396   4.696  13.920  0.00  0.00    +0.000 A 
ATOM     15  C   UNL     1       5.413   3.768  13.550  0.00  0.00    +0.000 A 
ATOM     16  C   UNL     1       5.515   3.081  12.338  0.00  0.00    +0.000 A 
ATOM     17  C   UNL     1       6.599   3.309  11.493  0.00  0.00    +0.000 A 
ATOM     18  C   UNL     1       7.576   4.238  11.849  0.00  0.00    +0.000 A 
ATOM     19  C   UNL     1       7.476   4.936  13.055  0.00  0.00    +0.000 A 
ENDBRANCH   3  14
BRANCH   5  20
ATOM     20  C   UNL     1       7.518   6.887  18.235  0.00  0.00    +0.000 C 
ATOM     21  O   UNL     1       7.849   6.263  19.241  0.00  0.00    +0.000 OA
ATOM     22  N   UNL     1       7.873   8.215  18.048  0.00  0.00    +0.000 N 
ATOM     23  H   UNL     1       7.803   8.645  17.130  0.00  0.00    +0.000 HD
BRANCH  22  24
ATOM     24  N   UNL     1       8.874   8.711  18.880  0.00  0.00    +0.000 N 
ATOM     25  H   UNL     1       9.398   8.018  19.422  0.00  0.00    +0.000 HD
BRANCH  24  26
ATOM     26  C   UNL     1       9.076  10.050  19.107  0.00  0.00    +0.000 C 
ATOM     27  S   UNL     1       9.342  10.743  20.603  0.00  0.00    +0.000 S 
BRANCH  26  28
ATOM     28  N   UNL     1       9.076  10.825  17.973  0.00  0.00    +0.000 N 
ATOM     29  H   UNL     1       8.664  10.407  17.144  0.00  0.00    +0.000 HD
BRANCH  28  30
ATOM     30  C   UNL     1       9.828  12.003  17.779  0.00  0.00    +0.000 A 
ATOM     31  C   UNL     1       9.268  13.279  17.922  0.00  0.00    +0.000 A 
ATOM     32  C   UNL     1      10.045  14.425  17.757  0.00  0.00    +0.000 A 
ATOM     33  C   UNL     1      11.396  14.303  17.444  0.00  0.00    +0.000 A 
ATOM     34  C   UNL     1      11.967  13.037  17.318  0.00  0.00    +0.000 A 
ATOM     35  C   UNL     1      11.194  11.887  17.504  0.00  0.00    +0.000 A 
ENDBRANCH  28  30
ENDBRANCH  26  28
ENDBRANCH  24  26
ENDBRANCH  22  24
ENDBRANCH   5  20
TORSDOF 8
ENDMDL
MODEL 2
REMARK VINA RESULT:      -8.3      1.076      1.877
REMARK  Name = 
REMARK  9 active torsions:
REMARK  status: ('A' for Active; 'I' for Inactive)
REMARK    1  A    between atoms: C_1  and  O_2
REMARK    2  A    between atoms: O_2  and  C_3
REMARK    3  A    between atoms: C_6  and  C_7
REMARK    4  A    between atoms: N_9  and  C_10
REMARK    5  A    between atoms: C_17  and  C_18
REMARK    6  A    between atoms: N_20  and  N_21
REMARK    7  A    between atoms: N_21  and  C_22
REMARK    8  A    between atoms: C_22  and  N_24
REMARK    9  A    between atoms: N_24  and  C_25
REMARK                            x       y       z     vdW  Elec       q    Type
REMARK                         _______ _______ _______ _____ _____    ______ ____
ROOT
ATOM      1  C   UNL     1       5.594   5.289  17.358  0.00  0.00    +0.000 A 
ATOM      2  N   UNL     1       5.326   4.828  16.124  0.00  0.00    +0.000 NA
ATOM      3  N   UNL     1       6.442   5.053  15.395  0.00  0.00    +0.000 N 
ATOM      4  C   UNL     1       7.383   5.737  16.124  0.00  0.00    +0.000 A 
ATOM      5  C   UNL     1       6.866   5.934  17.389  0.00  0.00    +0.000 A 
ENDROOT
BRANCH   1   9
ATOM      6  C   UNL     1       2.766   4.486  20.484  0.00  0.00    +0.000 A 
ATOM      7  C   UNL     1       3.669   3.507  20.080  0.00  0.00    +0.000 A 
ATOM      8  C   UNL     1       4.603   3.774  19.077  0.00  0.00    +0.000 A 
ATOM      9  C   UNL     1       4.654   5.029  18.458  0.00  0.00    +0.000 A 
ATOM     10  C   UNL     1       3.731   6.006  18.861  0.00  0.00    +0.000 A 
ATOM     11  C   UNL     1       2.791   5.736  19.868  0.00  0.00    +0.000 A 
BRANCH   6  13
ATOM     12  C   UNL     1       1.498   2.715  21.405  0.00  0.00    +0.000 C 
ATOM     13  O   UNL     1       1.878   4.084  21.443  0.00  0.00    +0.000 OA
ENDBRANCH   6  13
ENDBRANCH   1   9
BRANCH   3  14
ATOM     14  C   UNL     1       6.565   4.569  14.062  0.00  0.00    +0.000 A 
ATOM     15  C   UNL     1       7.576   5.075  13.232  0.00  0.00    +0.000 A 
ATOM     16  C   UNL     1       7.679   4.643  11.908  0.00  0.00    +0.000 A 
ATOM     17  C   UNL     1       6.775   3.712  11.402  0.00  0.00    +0.000 A 
ATOM     18  C   UNL     1       5.773   3.197  12.224  0.00  0.00    +0.000 A 
ATOM     19  C   UNL     1       5.669   3.617  13.552  0.00  0.00    +0.000 A 
ENDBRANCH   3  14
BRANCH   5  20
ATOM     20  C   UNL     1       7.518   6.633  18.479  0.00  0.00    +0.000 C 
ATOM     21  O   UNL     1       7.734   6.128  19.578  0.00  0.00    +0.000 OA
ATOM     22  N   UNL     1       7.939   7.918  18.169  0.00  0.00    +0.000 N 
ATOM     23  H   UNL     1       7.967   8.235  17.205  0.00  0.00    +0.000 HD
BRANCH  22  24
ATOM     24  N   UNL     1       8.881   8.484  19.025  0.00  0.00    +0.000 N 
ATOM     25  H   UNL     1       9.384   7.836  19.639  0.00  0.00    +0.000 HD
BRANCH  24  26
ATOM     26  C   UNL     1       9.046   9.838  19.181  0.00  0.00    +0.000 C 
ATOM     27  S   UNL     1       9.195  10.627  20.645  0.00  0.00    +0.000 S 
BRANCH  26  28
ATOM     28  N   UNL     1       9.116  10.541  18.003  0.00  0.00    +0.000 N 
ATOM     29  H   UNL     1       8.804  10.051  17.169  0.00  0.00    +0.000 HD
BRANCH  28  30
ATOM     30  C   UNL     1       9.826  11.744  17.800  0.00  0.00    +0.000 A 
ATOM     31  C   UNL     1       9.193  12.993  17.796  0.00  0.00    +0.000 A 
ATOM     32  C   UNL     1       9.926  14.167  17.627  0.00  0.00    +0.000 A 
ATOM     33  C   UNL     1      11.307  14.100  17.458  0.00  0.00    +0.000 A 
ATOM     34  C   UNL     1      11.949  12.861  17.480  0.00  0.00    +0.000 A 
ATOM     35  C   UNL     1      11.216  11.685  17.670  0.00  0.00    +0.000 A 
ENDBRANCH  28  30
ENDBRANCH  26  28
ENDBRANCH  24  26
ENDBRANCH  22  24
ENDBRANCH   5  20
TORSDOF 8
ENDMDL
MODEL 3
REMARK VINA RESULT:      -8.2      0.283      1.243
REMARK  Name = 
REMARK  9 active torsions:
REMARK  status: ('A' for Active; 'I' for Inactive)
REMARK    1  A    between atoms: C_1  and  O_2
REMARK    2  A    between atoms: O_2  and  C_3
REMARK    3  A    between atoms: C_6  and  C_7
REMARK    4  A    between atoms: N_9  and  C_10
REMARK    5  A    between atoms: C_17  and  C_18
REMARK    6  A    between atoms: N_20  and  N_21
REMARK    7  A    between atoms: N_21  and  C_22
REMARK    8  A    between atoms: C_22  and  N_24
REMARK    9  A    between atoms: N_24  and  C_25
REMARK                            x       y       z     vdW  Elec       q    Type
REMARK                         _______ _______ _______ _____ _____    ______ ____
ROOT
ATOM      1  C   UNL     1       5.483   6.105  17.013  0.00  0.00    +0.000 A 
ATOM      2  N   UNL     1       5.179   5.595  15.807  0.00  0.00    +0.000 NA
ATOM      3  N   UNL     1       6.362   5.300  15.222  0.00  0.00    +0.000 N 
ATOM      4  C   UNL     1       7.417   5.703  16.001  0.00  0.00    +0.000 A 
ATOM      5  C   UNL     1       6.895   6.253  17.156  0.00  0.00    +0.000 A 
ENDROOT
BRANCH   1   9
ATOM      6  C   UNL     1       2.291   6.770  19.804  0.00  0.00    +0.000 A 
ATOM      7  C   UNL     1       3.172   5.706  19.978  0.00  0.00    +0.000 A 
ATOM      8  C   UNL     1       4.223   5.500  19.081  0.00  0.00    +0.000 A 
ATOM      9  C   UNL     1       4.416   6.359  17.992  0.00  0.00    +0.000 A 
ATOM     10  C   UNL     1       3.516   7.420  17.815  0.00  0.00    +0.000 A 
ATOM     11  C   UNL     1       2.459   7.626  18.715  0.00  0.00    +0.000 A 
BRANCH   6  13
ATOM     12  C   UNL     1       0.987   8.129  21.233  0.00  0.00    +0.000 C 
ATOM     13  O   UNL     1       1.283   6.835  20.724  0.00  0.00    +0.000 OA
ENDBRANCH   6  13
ENDBRANCH   1   9
BRANCH   3  14
ATOM     14  C   UNL     1       6.419   4.616  13.975  0.00  0.00    +0.000 A 
ATOM     15  C   UNL     1       7.442   4.919  13.065  0.00  0.00    +0.000 A 
ATOM     16  C   UNL     1       7.484   4.289  11.820  0.00  0.00    +0.000 A 
ATOM     17  C   UNL     1       6.507   3.359  11.471  0.00  0.00    +0.000 A 
ATOM     18  C   UNL     1       5.493   3.043  12.375  0.00  0.00    +0.000 A 
ATOM     19  C   UNL     1       5.449   3.663  13.626  0.00  0.00    +0.000 A 
ENDBRANCH   3  14
BRANCH   5  20
ATOM     20  C   UNL     1       7.655   6.826  18.249  0.00  0.00    +0.000 C 
ATOM     21  O   UNL     1       8.095   6.168  19.189  0.00  0.00    +0.000 OA
ATOM     22  N   UNL     1       7.905   8.184  18.127  0.00  0.00    +0.000 N 
ATOM     23  H   UNL     1       7.744   8.663  17.246  0.00  0.00    +0.000 HD
BRANCH  22  24
ATOM     24  N   UNL     1       8.923   8.701  18.926  0.00  0.00    +0.000 N 
ATOM     25  H   UNL     1       9.435   8.025  19.501  0.00  0.00    +0.000 HD
BRANCH  24  26
ATOM     26  C   UNL     1       9.156  10.045  19.081  0.00  0.00    +0.000 C 
ATOM     27  S   UNL     1       9.313  10.831  20.546  0.00  0.00    +0.000 S 
BRANCH  26  28
ATOM     28  N   UNL     1       9.289  10.738  17.903  0.00  0.00    +0.000 N 
ATOM     29  H   UNL     1       9.279  10.183  17.053  0.00  0.00    +0.000 HD
BRANCH  28  30
ATOM     30  C   UNL     1       9.714  12.079  17.778  0.00  0.00    +0.000 A 
ATOM     31  C   UNL     1       8.853  13.159  18.013  0.00  0.00    +0.000 A 
ATOM     32  C   UNL     1       9.310  14.473  17.914  0.00  0.00    +0.000 A 
ATOM     33  C   UNL     1      10.639  14.717  17.576  0.00  0.00    +0.000 A 
ATOM     34  C   UNL     1      11.508  13.648  17.360  0.00  0.00    +0.000 A 
ATOM     35  C   UNL     1      11.055  12.330  17.479  0.00  0.00    +0.000 A 
ENDBRANCH  28  30
ENDBRANCH  26  28
ENDBRANCH  24  26
ENDBRANCH  22  24
ENDBRANCH   5  20
TORSDOF 8
ENDMDL
MODEL 4
REMARK VINA RESULT:      -8.1      1.708      2.168
REMARK  Name = 
REMARK  9 active torsions:
REMARK  status: ('A' for Active; 'I' for Inactive)
REMARK    1  A    between atoms: C_1  and  O_2
REMARK    2  A    between atoms: O_2  and  C_3
REMARK    3  A    between atoms: C_6  and  C_7
REMARK    4  A    between atoms: N_9  and  C_10
REMARK    5  A    between atoms: C_17  and  C_18
REMARK    6  A    between atoms: N_20  and  N_21
REMARK    7  A    between atoms: N_21  and  C_22
REMARK    8  A    between atoms: C_22  and  N_24
REMARK    9  A    between atoms: N_24  and  C_25
REMARK                            x       y       z     vdW  Elec       q    Type
REMARK                         _______ _______ _______ _____ _____    ______ ____
ROOT
ATOM      1  C   UNL     1       5.393   5.099  17.266  0.00  0.00    +0.000 A 
ATOM      2  N   UNL     1       5.058   4.637  16.049  0.00  0.00    +0.000 NA
ATOM      3  N   UNL     1       6.140   4.842  15.264  0.00  0.00    +0.000 N 
ATOM      4  C   UNL     1       7.125   5.516  15.942  0.00  0.00    +0.000 A 
ATOM      5  C   UNL     1       6.674   5.726  17.230  0.00  0.00    +0.000 A 
ENDROOT
BRANCH   1   9
ATOM      6  C   UNL     1       2.709   4.359  20.532  0.00  0.00    +0.000 A 
ATOM      7  C   UNL     1       3.513   3.337  20.031  0.00  0.00    +0.000 A 
ATOM      8  C   UNL     1       4.400   3.582  18.982  0.00  0.00    +0.000 A 
ATOM      9  C   UNL     1       4.505   4.858  18.412  0.00  0.00    +0.000 A 
ATOM     10  C   UNL     1       3.682   5.878  18.912  0.00  0.00    +0.000 A 
ATOM     11  C   UNL     1       2.789   5.631  19.966  0.00  0.00    +0.000 A 
BRANCH   6  13
ATOM     12  C   UNL     1       1.578   2.587  21.613  0.00  0.00    +0.000 C 
ATOM     13  O   UNL     1       1.854   3.978  21.528  0.00  0.00    +0.000 OA
ENDBRANCH   6  13
ENDBRANCH   1   9
BRANCH   3  14
ATOM     14  C   UNL     1       6.189   4.351  13.929  0.00  0.00    +0.000 A 
ATOM     15  C   UNL     1       5.093   3.648  13.409  0.00  0.00    +0.000 A 
ATOM     16  C   UNL     1       5.147   3.122  12.116  0.00  0.00    +0.000 A 
ATOM     17  C   UNL     1       6.291   3.286  11.339  0.00  0.00    +0.000 A 
ATOM     18  C   UNL     1       7.381   3.993  11.845  0.00  0.00    +0.000 A 
ATOM     19  C   UNL     1       7.332   4.531  13.134  0.00  0.00    +0.000 A 
ENDBRANCH   3  14
BRANCH   5  20
ATOM     20  C   UNL     1       7.389   6.421  18.283  0.00  0.00    +0.000 C 
ATOM     21  O   UNL     1       7.774   5.877  19.316  0.00  0.00    +0.000 OA
ATOM     22  N   UNL     1       7.662   7.753  18.012  0.00  0.00    +0.000 N 
ATOM     23  H   UNL     1       7.550   8.123  17.073  0.00  0.00    +0.000 HD
BRANCH  22  24
ATOM     24  N   UNL     1       8.648   8.354  18.792  0.00  0.00    +0.000 N 
ATOM     25  H   UNL     1       9.136   7.745  19.454  0.00  0.00    +0.000 HD
BRANCH  24  26
ATOM     26  C   UNL     1       8.876   9.708  18.814  0.00  0.00    +0.000 C 
ATOM     27  S   UNL     1       8.251  10.806  17.723  0.00  0.00    +0.000 S 
BRANCH  26  28
ATOM     28  N   UNL     1       9.664  10.134  19.855  0.00  0.00    +0.000 N 
ATOM     29  H   UNL     1       9.651   9.560  20.692  0.00  0.00    +0.000 HD
BRANCH  28  30
ATOM     30  C   UNL     1      10.252  11.412  19.975  0.00  0.00    +0.000 A 
ATOM     31  C   UNL     1       9.694  12.418  20.775  0.00  0.00    +0.000 A 
ATOM     32  C   UNL     1      10.316  13.660  20.901  0.00  0.00    +0.000 A 
ATOM     33  C   UNL     1      11.507  13.907  20.222  0.00  0.00    +0.000 A 
ATOM     34  C   UNL     1      12.080  12.905  19.440  0.00  0.00    +0.000 A 
ATOM     35  C   UNL     1      11.467  11.653  19.329  0.00  0.00    +0.000 A 
ENDBRANCH  28  30
ENDBRANCH  26  28
ENDBRANCH  24  26
ENDBRANCH  22  24
ENDBRANCH   5  20
TORSDOF 8
ENDMDL
MODEL 5
REMARK VINA RESULT:      -7.9      2.979      6.511
REMARK  Name = 
REMARK  9 active torsions:
REMARK  status: ('A' for Active; 'I' for Inactive)
REMARK    1  A    between atoms: C_1  and  O_2
REMARK    2  A    between atoms: O_2  and  C_3
REMARK    3  A    between atoms: C_6  and  C_7
REMARK    4  A    between atoms: N_9  and  C_10
REMARK    5  A    between atoms: C_17  and  C_18
REMARK    6  A    between atoms: N_20  and  N_21
REMARK    7  A    between atoms: N_21  and  C_22
REMARK    8  A    between atoms: C_22  and  N_24
REMARK    9  A    between atoms: N_24  and  C_25
REMARK                            x       y       z     vdW  Elec       q    Type
REMARK                         _______ _______ _______ _____ _____    ______ ____
ROOT
ATOM      1  C   UNL     1       6.866   5.814  16.928  0.00  0.00    +0.000 A 
ATOM      2  N   UNL     1       7.100   5.595  15.623  0.00  0.00    +0.000 NA
ATOM      3  N   UNL     1       6.313   4.553  15.275  0.00  0.00    +0.000 N 
ATOM      4  C   UNL     1       5.650   4.044  16.365  0.00  0.00    +0.000 A 
ATOM      5  C   UNL     1       5.999   4.812  17.459  0.00  0.00    +0.000 A 
ENDROOT
BRANCH   1   9
ATOM      6  C   UNL     1       8.595   9.285  18.766  0.00  0.00    +0.000 A 
ATOM      7  C   UNL     1       7.771   9.412  17.650  0.00  0.00    +0.000 A 
ATOM      8  C   UNL     1       7.192   8.285  17.064  0.00  0.00    +0.000 A 
ATOM      9  C   UNL     1       7.424   7.005  17.585  0.00  0.00    +0.000 A 
ATOM     10  C   UNL     1       8.266   6.884  18.699  0.00  0.00    +0.000 A 
ATOM     11  C   UNL     1       8.849   8.017  19.287  0.00  0.00    +0.000 A 
BRANCH   6  13
ATOM     12  C   UNL     1       9.829  11.235  18.251  0.00  0.00    +0.000 C 
ATOM     13  O   UNL     1       9.133  10.459  19.217  0.00  0.00    +0.000 OA
ENDBRANCH   6  13
ENDBRANCH   1   9
BRANCH   3  14
ATOM     14  C   UNL     1       6.205   4.127  13.922  0.00  0.00    +0.000 A 
ATOM     15  C   UNL     1       7.280   4.329  13.044  0.00  0.00    +0.000 A 
ATOM     16  C   UNL     1       7.170   3.957  11.702  0.00  0.00    +0.000 A 
ATOM     17  C   UNL     1       5.991   3.389  11.226  0.00  0.00    +0.000 A 
ATOM     18  C   UNL     1       4.921   3.174  12.095  0.00  0.00    +0.000 A 
ATOM     19  C   UNL     1       5.026   3.535  13.441  0.00  0.00    +0.000 A 
ENDBRANCH   3  14
BRANCH   5  20
ATOM     20  C   UNL     1       5.545   4.614  18.821  0.00  0.00    +0.000 C 
ATOM     21  O   UNL     1       6.121   5.076  19.803  0.00  0.00    +0.000 OA
ATOM     22  N   UNL     1       4.361   3.900  18.936  0.00  0.00    +0.000 N 
ATOM     23  H   UNL     1       3.779   3.730  18.121  0.00  0.00    +0.000 HD
BRANCH  22  24
ATOM     24  N   UNL     1       3.693   4.002  20.154  0.00  0.00    +0.000 N 
ATOM     25  H   UNL     1       4.106   3.494  20.941  0.00  0.00    +0.000 HD
BRANCH  24  26
ATOM     26  C   UNL     1       2.468   4.607  20.299  0.00  0.00    +0.000 C 
ATOM     27  S   UNL     1       0.994   3.861  20.063  0.00  0.00    +0.000 S 
BRANCH  26  28
ATOM     28  N   UNL     1       2.527   5.920  20.697  0.00  0.00    +0.000 N 
ATOM     29  H   UNL     1       2.608   6.083  21.696  0.00  0.00    +0.000 HD
BRANCH  28  30
ATOM     30  C   UNL     1       2.207   7.039  19.899  0.00  0.00    +0.000 A 
ATOM     31  C   UNL     1       1.517   8.147  20.409  0.00  0.00    +0.000 A 
ATOM     32  C   UNL     1       1.244   9.253  19.604  0.00  0.00    +0.000 A 
ATOM     33  C   UNL     1       1.661   9.259  18.275  0.00  0.00    +0.000 A 
ATOM     34  C   UNL     1       2.366   8.169  17.764  0.00  0.00    +0.000 A 
ATOM     35  C   UNL     1       2.658   7.069  18.576  0.00  0.00    +0.000 A 
ENDBRANCH  28  30
ENDBRANCH  26  28
ENDBRANCH  24  26
ENDBRANCH  22  24
ENDBRANCH   5  20
TORSDOF 8
ENDMDL
MODEL 6
REMARK VINA RESULT:      -7.9      1.558      2.058
REMARK  Name = 
REMARK  9 active torsions:
REMARK  status: ('A' for Active; 'I' for Inactive)
REMARK    1  A    between atoms: C_1  and  O_2
REMARK    2  A    between atoms: O_2  and  C_3
REMARK    3  A    between atoms: C_6  and  C_7
REMARK    4  A    between atoms: N_9  and  C_10
REMARK    5  A    between atoms: C_17  and  C_18
REMARK    6  A    between atoms: N_20  and  N_21
REMARK    7  A    between atoms: N_21  and  C_22
REMARK    8  A    between atoms: C_22  and  N_24
REMARK    9  A    between atoms: N_24  and  C_25
REMARK                            x       y       z     vdW  Elec       q    Type
REMARK                         _______ _______ _______ _____ _____    ______ ____
ROOT
ATOM      1  C   UNL     1       5.362   5.951  16.951  0.00  0.00    +0.000 A 
ATOM      2  N   UNL     1       5.079   5.439  15.741  0.00  0.00    +0.000 NA
ATOM      3  N   UNL     1       6.273   5.206  15.150  0.00  0.00    +0.000 N 
ATOM      4  C   UNL     1       7.310   5.651  15.931  0.00  0.00    +0.000 A 
ATOM      5  C   UNL     1       6.765   6.164  17.092  0.00  0.00    +0.000 A 
ENDROOT
BRANCH   1   9
ATOM      6  C   UNL     1       2.302   6.589  19.892  0.00  0.00    +0.000 A 
ATOM      7  C   UNL     1       2.468   7.485  18.839  0.00  0.00    +0.000 A 
ATOM      8  C   UNL     1       3.450   7.267  17.870  0.00  0.00    +0.000 A 
ATOM      9  C   UNL     1       4.286   6.145  17.934  0.00  0.00    +0.000 A 
ATOM     10  C   UNL     1       4.123   5.255  19.006  0.00  0.00    +0.000 A 
ATOM     11  C   UNL     1       3.136   5.475  19.980  0.00  0.00    +0.000 A 
BRANCH   6  13
ATOM     12  C   UNL     1       1.266   8.319  21.126  0.00  0.00    +0.000 C 
ATOM     13  O   UNL     1       1.336   6.939  20.794  0.00  0.00    +0.000 OA
ENDBRANCH   6  13
ENDBRANCH   1   9
BRANCH   3  14
ATOM     14  C   UNL     1       6.359   4.537  13.896  0.00  0.00    +0.000 A 
ATOM     15  C   UNL     1       7.453   4.784  13.054  0.00  0.00    +0.000 A 
ATOM     16  C   UNL     1       7.528   4.169  11.802  0.00  0.00    +0.000 A 
ATOM     17  C   UNL     1       6.513   3.314  11.379  0.00  0.00    +0.000 A 
ATOM     18  C   UNL     1       5.427   3.055  12.216  0.00  0.00    +0.000 A 
ATOM     19  C   UNL     1       5.350   3.658  13.473  0.00  0.00    +0.000 A 
ENDBRANCH   3  14
BRANCH   5  20
ATOM     20  C   UNL     1       7.501   6.762  18.189  0.00  0.00    +0.000 C 
ATOM     21  O   UNL     1       7.885   6.133  19.172  0.00  0.00    +0.000 OA
ATOM     22  N   UNL     1       7.796   8.106  18.020  0.00  0.00    +0.000 N 
ATOM     23  H   UNL     1       7.683   8.551  17.114  0.00  0.00    +0.000 HD
BRANCH  22  24
ATOM     24  N   UNL     1       8.798   8.627  18.835  0.00  0.00    +0.000 N 
ATOM     25  H   UNL     1       9.296   7.956  19.427  0.00  0.00    +0.000 HD
BRANCH  24  26
ATOM     26  C   UNL     1       9.031   9.973  18.984  0.00  0.00    +0.000 C 
ATOM     27  S   UNL     1       8.684  11.141  17.843  0.00  0.00    +0.000 S 
BRANCH  26  28
ATOM     28  N   UNL     1       9.568  10.325  20.198  0.00  0.00    +0.000 N 
ATOM     29  H   UNL     1       9.630   9.587  20.893  0.00  0.00    +0.000 HD
BRANCH  28  30
ATOM     30  C   UNL     1       9.770  11.644  20.659  0.00  0.00    +0.000 A 
ATOM     31  C   UNL     1      10.783  12.466  20.147  0.00  0.00    +0.000 A 
ATOM     32  C   UNL     1      10.938  13.776  20.598  0.00  0.00    +0.000 A 
ATOM     33  C   UNL     1      10.076  14.278  21.571  0.00  0.00    +0.000 A 
ATOM     34  C   UNL     1       9.053  13.473  22.072  0.00  0.00    +0.000 A 
ATOM     35  C   UNL     1       8.885  12.166  21.606  0.00  0.00    +0.000 A 
ENDBRANCH  28  30
ENDBRANCH  26  28
ENDBRANCH  24  26
ENDBRANCH  22  24
ENDBRANCH   5  20
TORSDOF 8
ENDMDL
MODEL 7
REMARK VINA RESULT:      -7.9      1.911      2.694
REMARK  Name = 
REMARK  9 active torsions:
REMARK  status: ('A' for Active; 'I' for Inactive)
REMARK    1  A    between atoms: C_1  and  O_2
REMARK    2  A    between atoms: O_2  and  C_3
REMARK    3  A    between atoms: C_6  and  C_7
REMARK    4  A    between atoms: N_9  and  C_10
REMARK    5  A    between atoms: C_17  and  C_18
REMARK    6  A    between atoms: N_20  and  N_21
REMARK    7  A    between atoms: N_21  and  C_22
REMARK    8  A    between atoms: C_22  and  N_24
REMARK    9  A    between atoms: N_24  and  C_25
REMARK                            x       y       z     vdW  Elec       q    Type
REMARK                         _______ _______ _______ _____ _____    ______ ____
ROOT
ATOM      1  C   UNL     1       5.590   5.118  17.331  0.00  0.00    +0.000 A 
ATOM      2  N   UNL     1       5.293   4.664  16.102  0.00  0.00    +0.000 NA
ATOM      3  N   UNL     1       6.377   4.927  15.338  0.00  0.00    +0.000 N 
ATOM      4  C   UNL     1       7.323   5.628  16.042  0.00  0.00    +0.000 A 
ATOM      5  C   UNL     1       6.845   5.797  17.327  0.00  0.00    +0.000 A 
ENDROOT
BRANCH   1   9
ATOM      6  C   UNL     1       2.895   4.201  20.542  0.00  0.00    +0.000 A 
ATOM      7  C   UNL     1       3.822   3.258  20.106  0.00  0.00    +0.000 A 
ATOM      8  C   UNL     1       4.712   3.562  19.075  0.00  0.00    +0.000 A 
ATOM      9  C   UNL     1       4.695   4.820  18.459  0.00  0.00    +0.000 A 
ATOM     10  C   UNL     1       3.749   5.760  18.894  0.00  0.00    +0.000 A 
ATOM     11  C   UNL     1       2.853   5.453  19.930  0.00  0.00    +0.000 A 
BRANCH   6  13
ATOM     12  C   UNL     1       1.137   2.743  21.155  0.00  0.00    +0.000 C 
ATOM     13  O   UNL     1       2.053   3.763  21.527  0.00  0.00    +0.000 OA
ENDBRANCH   6  13
ENDBRANCH   1   9
BRANCH   3  14
ATOM     14  C   UNL     1       6.467   4.462  13.996  0.00  0.00    +0.000 A 
ATOM     15  C   UNL     1       7.489   4.941  13.164  0.00  0.00    +0.000 A 
ATOM     16  C   UNL     1       7.562   4.528  11.832  0.00  0.00    +0.000 A 
ATOM     17  C   UNL     1       6.615   3.643  11.319  0.00  0.00    +0.000 A 
ATOM     18  C   UNL     1       5.602   3.154  12.143  0.00  0.00    +0.000 A 
ATOM     19  C   UNL     1       5.528   3.555  13.479  0.00  0.00    +0.000 A 
ENDBRANCH   3  14
BRANCH   5  20
ATOM     20  C   UNL     1       7.515   6.502  18.402  0.00  0.00    +0.000 C 
ATOM     21  O   UNL     1       7.842   5.972  19.462  0.00  0.00    +0.000 OA
ATOM     22  N   UNL     1       7.816   7.826  18.123  0.00  0.00    +0.000 N 
ATOM     23  H   UNL     1       7.755   8.182  17.174  0.00  0.00    +0.000 HD
BRANCH  22  24
ATOM     24  N   UNL     1       8.769   8.430  18.941  0.00  0.00    +0.000 N 
ATOM     25  H   UNL     1       9.197   7.834  19.655  0.00  0.00    +0.000 HD
BRANCH  24  26
ATOM     26  C   UNL     1       9.034   9.778  18.928  0.00  0.00    +0.000 C 
ATOM     27  S   UNL     1       8.396  10.873  17.842  0.00  0.00    +0.000 S 
BRANCH  26  28
ATOM     28  N   UNL     1       9.875  10.200  19.929  0.00  0.00    +0.000 N 
ATOM     29  H   UNL     1      10.384   9.474  20.424  0.00  0.00    +0.000 HD
BRANCH  28  30
ATOM     30  C   UNL     1       9.884  11.486  20.510  0.00  0.00    +0.000 A 
ATOM     31  C   UNL     1      10.788  12.479  20.110  0.00  0.00    +0.000 A 
ATOM     32  C   UNL     1      10.752  13.752  20.680  0.00  0.00    +0.000 A 
ATOM     33  C   UNL     1       9.805  14.042  21.660  0.00  0.00    +0.000 A 
ATOM     34  C   UNL     1       8.889  13.066  22.049  0.00  0.00    +0.000 A 
ATOM     35  C   UNL     1       8.912  11.796  21.465  0.00  0.00    +0.000 A 
ENDBRANCH  28  30
ENDBRANCH  26  28
ENDBRANCH  24  26
ENDBRANCH  22  24
ENDBRANCH   5  20
TORSDOF 8
ENDMDL
MODEL 8
REMARK VINA RESULT:      -7.8      5.963     11.819
REMARK  Name = 
REMARK  9 active torsions:
REMARK  status: ('A' for Active; 'I' for Inactive)
REMARK    1  A    between atoms: C_1  and  O_2
REMARK    2  A    between atoms: O_2  and  C_3
REMARK    3  A    between atoms: C_6  and  C_7
REMARK    4  A    between atoms: N_9  and  C_10
REMARK    5  A    between atoms: C_17  and  C_18
REMARK    6  A    between atoms: N_20  and  N_21
REMARK    7  A    between atoms: N_21  and  C_22
REMARK    8  A    between atoms: C_22  and  N_24
REMARK    9  A    between atoms: N_24  and  C_25
REMARK                            x       y       z     vdW  Elec       q    Type
REMARK                         _______ _______ _______ _____ _____    ______ ____
ROOT
ATOM      1  C   UNL     1       0.108  12.295  21.093  0.00  0.00    +0.000 A 
ATOM      2  N   UNL     1      -1.018  13.001  21.294  0.00  0.00    +0.000 NA
ATOM      3  N   UNL     1      -1.740  12.296  22.194  0.00  0.00    +0.000 N 
ATOM      4  C   UNL     1      -1.132  11.104  22.497  0.00  0.00    +0.000 A 
ATOM      5  C   UNL     1       0.052  11.050  21.788  0.00  0.00    +0.000 A 
ENDROOT
BRANCH   1   9
ATOM      6  C   UNL     1       3.386  13.885  18.825  0.00  0.00    +0.000 A 
ATOM      7  C   UNL     1       2.456  13.039  18.225  0.00  0.00    +0.000 A 
ATOM      8  C   UNL     1       1.378  12.537  18.958  0.00  0.00    +0.000 A 
ATOM      9  C   UNL     1       1.207  12.874  20.306  0.00  0.00    +0.000 A 
ATOM     10  C   UNL     1       2.155  13.715  20.906  0.00  0.00    +0.000 A 
ATOM     11  C   UNL     1       3.240  14.218  20.171  0.00  0.00    +0.000 A 
BRANCH   6  13
ATOM     12  C   UNL     1       5.112  15.445  18.406  0.00  0.00    +0.000 C 
ATOM     13  O   UNL     1       4.415  14.271  18.012  0.00  0.00    +0.000 OA
ENDBRANCH   6  13
ENDBRANCH   1   9
BRANCH   3  14
ATOM     14  C   UNL     1      -2.947  12.815  22.743  0.00  0.00    +0.000 A 
ATOM     15  C   UNL     1      -3.529  13.959  22.179  0.00  0.00    +0.000 A 
ATOM     16  C   UNL     1      -4.687  14.506  22.736  0.00  0.00    +0.000 A 
ATOM     17  C   UNL     1      -5.267  13.922  23.860  0.00  0.00    +0.000 A 
ATOM     18  C   UNL     1      -4.700  12.778  24.421  0.00  0.00    +0.000 A 
ATOM     19  C   UNL     1      -3.547  12.220  23.864  0.00  0.00    +0.000 A 
ENDBRANCH   3  14
BRANCH   5  20
ATOM     20  C   UNL     1       1.002   9.955  21.794  0.00  0.00    +0.000 C 
ATOM     21  O   UNL     1       1.652   9.625  22.783  0.00  0.00    +0.000 OA
ATOM     22  N   UNL     1       1.086   9.258  20.598  0.00  0.00    +0.000 N 
ATOM     23  H   UNL     1       0.385   9.386  19.874  0.00  0.00    +0.000 HD
BRANCH  22  24
ATOM     24  N   UNL     1       1.679   7.999  20.656  0.00  0.00    +0.000 N 
ATOM     25  H   UNL     1       1.713   7.555  21.578  0.00  0.00    +0.000 HD
BRANCH  24  26
ATOM     26  C   UNL     1       2.332   7.419  19.595  0.00  0.00    +0.000 C 
ATOM     27  S   UNL     1       2.503   8.102  18.082  0.00  0.00    +0.000 S 
BRANCH  26  28
ATOM     28  N   UNL     1       2.890   6.195  19.872  0.00  0.00    +0.000 N 
ATOM     29  H   UNL     1       3.899   6.178  19.988  0.00  0.00    +0.000 HD
BRANCH  28  30
ATOM     30  C   UNL     1       2.249   4.945  19.731  0.00  0.00    +0.000 A 
ATOM     31  C   UNL     1       1.763   4.227  20.831  0.00  0.00    +0.000 A 
ATOM     32  C   UNL     1       1.104   3.010  20.658  0.00  0.00    +0.000 A 
ATOM     33  C   UNL     1       0.926   2.499  19.375  0.00  0.00    +0.000 A 
ATOM     34  C   UNL     1       1.389   3.217  18.272  0.00  0.00    +0.000 A 
ATOM     35  C   UNL     1       2.032   4.446  18.444  0.00  0.00    +0.000 A 
ENDBRANCH  28  30
ENDBRANCH  26  28
ENDBRANCH  24  26
ENDBRANCH  22  24
ENDBRANCH   5  20
TORSDOF 8
ENDMDL
MODEL 9
REMARK VINA RESULT:      -7.8      1.093      1.492
REMARK  Name = 
REMARK  9 active torsions:
REMARK  status: ('A' for Active; 'I' for Inactive)
REMARK    1  A    between atoms: C_1  and  O_2
REMARK    2  A    between atoms: O_2  and  C_3
REMARK    3  A    between atoms: C_6  and  C_7
REMARK    4  A    between atoms: N_9  and  C_10
REMARK    5  A    between atoms: C_17  and  C_18
REMARK    6  A    between atoms: N_20  and  N_21
REMARK    7  A    between atoms: N_21  and  C_22
REMARK    8  A    between atoms: C_22  and  N_24
REMARK    9  A    between atoms: N_24  and  C_25
REMARK                            x       y       z     vdW  Elec       q    Type
REMARK                         _______ _______ _______ _____ _____    ______ ____
ROOT
ATOM      1  C   UNL     1       5.539   5.245  17.198  0.00  0.00    +0.000 A 
ATOM      2  N   UNL     1       5.299   4.822  15.945  0.00  0.00    +0.000 NA
ATOM      3  N   UNL     1       6.423   5.090  15.243  0.00  0.00    +0.000 N 
ATOM      4  C   UNL     1       7.340   5.764  16.010  0.00  0.00    +0.000 A 
ATOM      5  C   UNL     1       6.799   5.910  17.272  0.00  0.00    +0.000 A 
ENDROOT
BRANCH   1   9
ATOM      6  C   UNL     1       2.848   4.353  20.420  0.00  0.00    +0.000 A 
ATOM      7  C   UNL     1       3.015   5.664  19.981  0.00  0.00    +0.000 A 
ATOM      8  C   UNL     1       3.875   5.952  18.919  0.00  0.00    +0.000 A 
ATOM      9  C   UNL     1       4.585   4.933  18.273  0.00  0.00    +0.000 A 
ATOM     10  C   UNL     1       4.423   3.617  18.730  0.00  0.00    +0.000 A 
ATOM     11  C   UNL     1       3.560   3.328  19.798  0.00  0.00    +0.000 A 
BRANCH   6  13
ATOM     12  C   UNL     1       1.885   2.894  22.012  0.00  0.00    +0.000 C 
ATOM     13  O   UNL     1       2.012   4.211  21.493  0.00  0.00    +0.000 OA
ENDBRANCH   6  13
ENDBRANCH   1   9
BRANCH   3  14
ATOM     14  C   UNL     1       6.576   4.653  13.897  0.00  0.00    +0.000 A 
ATOM     15  C   UNL     1       5.754   3.631  13.403  0.00  0.00    +0.000 A 
ATOM     16  C   UNL     1       5.924   3.162  12.098  0.00  0.00    +0.000 A 
ATOM     17  C   UNL     1       6.915   3.703  11.282  0.00  0.00    +0.000 A 
ATOM     18  C   UNL     1       7.730   4.728  11.763  0.00  0.00    +0.000 A 
ATOM     19  C   UNL     1       7.560   5.208  13.063  0.00  0.00    +0.000 A 
ENDBRANCH   3  14
BRANCH   5  20
ATOM     20  C   UNL     1       7.421   6.583  18.396  0.00  0.00    +0.000 C 
ATOM     21  O   UNL     1       7.598   6.054  19.491  0.00  0.00    +0.000 OA
ATOM     22  N   UNL     1       7.861   7.870  18.125  0.00  0.00    +0.000 N 
ATOM     23  H   UNL     1       7.922   8.205  17.168  0.00  0.00    +0.000 HD
BRANCH  22  24
ATOM     24  N   UNL     1       8.779   8.411  19.022  0.00  0.00    +0.000 N 
ATOM     25  H   UNL     1       9.215   7.755  19.676  0.00  0.00    +0.000 HD
BRANCH  24  26
ATOM     26  C   UNL     1       9.000   9.760  19.158  0.00  0.00    +0.000 C 
ATOM     27  S   UNL     1       9.174  10.564  20.611  0.00  0.00    +0.000 S 
BRANCH  26  28
ATOM     28  N   UNL     1       9.104  10.442  17.970  0.00  0.00    +0.000 N 
ATOM     29  H   UNL     1       8.872   9.918  17.131  0.00  0.00    +0.000 HD
BRANCH  28  30
ATOM     30  C   UNL     1       9.759  11.677  17.782  0.00  0.00    +0.000 A 
ATOM     31  C   UNL     1       9.074  12.899  17.817  0.00  0.00    +0.000 A 
ATOM     32  C   UNL     1       9.754  14.106  17.662  0.00  0.00    +0.000 A 
ATOM     33  C   UNL     1      11.133  14.101  17.469  0.00  0.00    +0.000 A 
ATOM     34  C   UNL     1      11.827  12.891  17.453  0.00  0.00    +0.000 A 
ATOM     35  C   UNL     1      11.148  11.682  17.628  0.00  0.00    +0.000 A 
ENDBRANCH  28  30
ENDBRANCH  26  28
ENDBRANCH  24  26
ENDBRANCH  22  24
ENDBRANCH   5  20
TORSDOF 8
ENDMDL
