MODEL 1
REMARK VINA RESULT:      -7.5      0.000      0.000
REMARK  Name = 
REMARK  1 active torsions:
REMARK  status: ('A' for Active; 'I' for Inactive)
REMARK    1  A    between atoms: C_10  and  C_11
REMARK                            x       y       z     vdW  Elec       q    Type
REMARK                         _______ _______ _______ _____ _____    ______ ____
ROOT
ATOM      1  C   UNL     1       2.244   7.177  19.896  0.00  0.00    +0.000 A 
ATOM      2  C   UNL     1       2.811   6.413  18.889  0.00  0.00    +0.000 A 
ATOM      3  C   UNL     1       2.568   5.090  19.257  0.00  0.00    +0.000 A 
ATOM      4  C   UNL     1       1.830   5.026  20.415  0.00  0.00    +0.000 A 
ATOM      5  N   UNL     1       1.362   3.935  21.042  0.00  0.00    +0.000 NA
ATOM      6  C   UNL     1       1.629   2.757  20.431  0.00  0.00    +0.000 A 
ATOM      7  C   UNL     1       2.385   2.728  19.267  0.00  0.00    +0.000 A 
ATOM      8  N   UNL     1       2.829   1.719  18.459  0.00  0.00    +0.000 N 
ATOM      9  N   UNL     1       3.644   2.128  17.460  0.00  0.00    +0.000 NA
ATOM     10  C   UNL     1       3.716   3.465  17.608  0.00  0.00    +0.000 A 
ATOM     11  C   UNL     1       2.893   3.855  18.669  0.00  0.00    +0.000 A 
ATOM     12  N   UNL     1       1.677   6.322  20.824  0.00  0.00    +0.000 N 
ATOM     13  H   UNL     1       2.648   0.726  18.548  0.00  0.00    +0.000 HD
ATOM     14  H   UNL     1       1.207   6.592  21.677  0.00  0.00    +0.000 HD
ENDROOT
BRANCH  10  15
ATOM     15  C   UNL     1       4.702   4.262  16.805  0.00  0.00    +0.000 C 
ATOM     16  C   UNL     1       5.101   3.605  15.475  0.00  0.00    +0.000 C 
ATOM     17  C   UNL     1       6.059   4.510  14.696  0.00  0.00    +0.000 C 
ATOM     18  C   UNL     1       7.298   4.869  15.515  0.00  0.00    +0.000 C 
ATOM     19  C   UNL     1       6.939   5.449  16.880  0.00  0.00    +0.000 C 
ATOM     20  C   UNL     1       5.962   4.557  17.639  0.00  0.00    +0.000 C 
ENDBRANCH  10  15
TORSDOF 1
ENDMDL
MODEL 2
REMARK VINA RESULT:      -7.5      0.698      1.298
REMARK  Name = 
REMARK  1 active torsions:
REMARK  status: ('A' for Active; 'I' for Inactive)
REMARK    1  A    between atoms: C_10  and  C_11
REMARK                            x       y       z     vdW  Elec       q    Type
REMARK                         _______ _______ _______ _____ _____    ______ ____
ROOT
ATOM      1  C   UNL     1       2.512   7.103  19.812  0.00  0.00    +0.000 A 
ATOM      2  C   UNL     1       3.142   6.233  18.936  0.00  0.00    +0.000 A 
ATOM      3  C   UNL     1       2.661   4.968  19.273  0.00  0.00    +0.000 A 
ATOM      4  C   UNL     1       1.726   5.045  20.277  0.00  0.00    +0.000 A 
ATOM      5  N   UNL     1       1.012   4.049  20.825  0.00  0.00    +0.000 NA
ATOM      6  C   UNL     1       1.223   2.824  20.289  0.00  0.00    +0.000 A 
ATOM      7  C   UNL     1       2.164   2.652  19.283  0.00  0.00    +0.000 A 
ATOM      8  N   UNL     1       2.606   1.564  18.584  0.00  0.00    +0.000 N 
ATOM      9  N   UNL     1       3.633   1.825  17.744  0.00  0.00    +0.000 NA
ATOM     10  C   UNL     1       3.857   3.146  17.884  0.00  0.00    +0.000 A 
ATOM     11  C   UNL     1       2.917   3.680  18.771  0.00  0.00    +0.000 A 
ATOM     12  N   UNL     1       1.678   6.365  20.634  0.00  0.00    +0.000 N 
ATOM     13  H   UNL     1       2.280   0.607  18.652  0.00  0.00    +0.000 HD
ATOM     14  H   UNL     1       1.105   6.726  21.383  0.00  0.00    +0.000 HD
ENDROOT
BRANCH  10  15
ATOM     15  C   UNL     1       5.068   3.777  17.262  0.00  0.00    +0.000 C 
ATOM     16  C   UNL     1       6.032   4.412  18.275  0.00  0.00    +0.000 C 
ATOM     17  C   UNL     1       7.264   4.977  17.564  0.00  0.00    +0.000 C 
ATOM     18  C   UNL     1       6.885   5.981  16.476  0.00  0.00    +0.000 C 
ATOM     19  C   UNL     1       5.863   5.411  15.496  0.00  0.00    +0.000 C 
ATOM     20  C   UNL     1       4.651   4.825  16.212  0.00  0.00    +0.000 C 
ENDBRANCH  10  15
TORSDOF 1
ENDMDL
MODEL 3
REMARK VINA RESULT:      -7.2      1.192      1.909
REMARK  Name = 
REMARK  1 active torsions:
REMARK  status: ('A' for Active; 'I' for Inactive)
REMARK    1  A    between atoms: C_10  and  C_11
REMARK                            x       y       z     vdW  Elec       q    Type
REMARK                         _______ _______ _______ _____ _____    ______ ____
ROOT
ATOM      1  C   UNL     1       2.861   7.962  17.983  0.00  0.00    +0.000 A 
ATOM      2  C   UNL     1       3.435   6.732  17.708  0.00  0.00    +0.000 A 
ATOM      3  C   UNL     1       3.068   5.913  18.776  0.00  0.00    +0.000 A 
ATOM      4  C   UNL     1       2.250   6.584  19.655  0.00  0.00    +0.000 A 
ATOM      5  N   UNL     1       1.659   6.112  20.764  0.00  0.00    +0.000 NA
ATOM      6  C   UNL     1       1.876   4.801  21.021  0.00  0.00    +0.000 A 
ATOM      7  C   UNL     1       2.705   4.052  20.196  0.00  0.00    +0.000 A 
ATOM      8  N   UNL     1       3.124   2.753  20.214  0.00  0.00    +0.000 N 
ATOM      9  N   UNL     1       4.034   2.450  19.260  0.00  0.00    +0.000 NA
ATOM     10  C   UNL     1       4.198   3.598  18.574  0.00  0.00    +0.000 A 
ATOM     11  C   UNL     1       3.337   4.571  19.092  0.00  0.00    +0.000 A 
ATOM     12  N   UNL     1       2.169   7.863  19.177  0.00  0.00    +0.000 N 
ATOM     13  H   UNL     1       2.863   2.023  20.868  0.00  0.00    +0.000 HD
ATOM     14  H   UNL     1       1.665   8.607  19.640  0.00  0.00    +0.000 HD
ENDROOT
BRANCH  10  15
ATOM     15  C   UNL     1       5.293   3.720  17.556  0.00  0.00    +0.000 C 
ATOM     16  C   UNL     1       6.389   4.727  17.934  0.00  0.00    +0.000 C 
ATOM     17  C   UNL     1       7.492   4.743  16.873  0.00  0.00    +0.000 C 
ATOM     18  C   UNL     1       6.941   5.043  15.481  0.00  0.00    +0.000 C 
ATOM     19  C   UNL     1       5.792   4.112  15.102  0.00  0.00    +0.000 C 
ATOM     20  C   UNL     1       4.709   4.078  16.176  0.00  0.00    +0.000 C 
ENDBRANCH  10  15
TORSDOF 1
ENDMDL
MODEL 4
REMARK VINA RESULT:      -7.1      1.272      3.202
REMARK  Name = 
REMARK  1 active torsions:
REMARK  status: ('A' for Active; 'I' for Inactive)
REMARK    1  A    between atoms: C_10  and  C_11
REMARK                            x       y       z     vdW  Elec       q    Type
REMARK                         _______ _______ _______ _____ _____    ______ ____
ROOT
ATOM      1  C   UNL     1       3.554   1.340  18.267  0.00  0.00    +0.000 A 
ATOM      2  C   UNL     1       4.049   2.633  18.312  0.00  0.00    +0.000 A 
ATOM      3  C   UNL     1       3.065   3.375  18.964  0.00  0.00    +0.000 A 
ATOM      4  C   UNL     1       2.022   2.573  19.363  0.00  0.00    +0.000 A 
ATOM      5  N   UNL     1       0.927   2.918  20.058  0.00  0.00    +0.000 NA
ATOM      6  C   UNL     1       0.870   4.217  20.438  0.00  0.00    +0.000 A 
ATOM      7  C   UNL     1       1.871   5.102  20.062  0.00  0.00    +0.000 A 
ATOM      8  N   UNL     1       2.070   6.438  20.265  0.00  0.00    +0.000 N 
ATOM      9  N   UNL     1       3.148   6.942  19.623  0.00  0.00    +0.000 NA
ATOM     10  C   UNL     1       3.691   5.883  18.992  0.00  0.00    +0.000 A 
ATOM     11  C   UNL     1       2.959   4.734  19.309  0.00  0.00    +0.000 A 
ATOM     12  N   UNL     1       2.316   1.326  18.884  0.00  0.00    +0.000 N 
ATOM     13  H   UNL     1       1.493   7.079  20.798  0.00  0.00    +0.000 HD
ATOM     14  H   UNL     1       1.707   0.525  18.986  0.00  0.00    +0.000 HD
ENDROOT
BRANCH  10  15
ATOM     15  C   UNL     1       4.797   6.081  17.997  0.00  0.00    +0.000 C 
ATOM     16  C   UNL     1       4.507   5.484  16.613  0.00  0.00    +0.000 C 
ATOM     17  C   UNL     1       5.656   5.784  15.647  0.00  0.00    +0.000 C 
ATOM     18  C   UNL     1       6.996   5.281  16.182  0.00  0.00    +0.000 C 
ATOM     19  C   UNL     1       7.282   5.788  17.592  0.00  0.00    +0.000 C 
ATOM     20  C   UNL     1       6.121   5.513  18.543  0.00  0.00    +0.000 C 
ENDBRANCH  10  15
TORSDOF 1
ENDMDL
MODEL 5
REMARK VINA RESULT:      -7.1      2.319      5.094
REMARK  Name = 
REMARK  1 active torsions:
REMARK  status: ('A' for Active; 'I' for Inactive)
REMARK    1  A    between atoms: C_10  and  C_11
REMARK                            x       y       z     vdW  Elec       q    Type
REMARK                         _______ _______ _______ _____ _____    ______ ____
ROOT
ATOM      1  C   UNL     1       1.103   3.233  20.816  0.00  0.00    +0.000 A 
ATOM      2  C   UNL     1       1.199   4.403  20.081  0.00  0.00    +0.000 A 
ATOM      3  C   UNL     1       2.508   4.423  19.599  0.00  0.00    +0.000 A 
ATOM      4  C   UNL     1       3.187   3.285  19.966  0.00  0.00    +0.000 A 
ATOM      5  N   UNL     1       4.440   2.927  19.645  0.00  0.00    +0.000 NA
ATOM      6  C   UNL     1       5.097   3.786  18.830  0.00  0.00    +0.000 A 
ATOM      7  C   UNL     1       4.493   4.969  18.427  0.00  0.00    +0.000 A 
ATOM      8  N   UNL     1       4.901   6.017  17.652  0.00  0.00    +0.000 N 
ATOM      9  N   UNL     1       4.019   7.041  17.595  0.00  0.00    +0.000 NA
ATOM     10  C   UNL     1       2.979   6.634  18.348  0.00  0.00    +0.000 A 
ATOM     11  C   UNL     1       3.225   5.336  18.807  0.00  0.00    +0.000 A 
ATOM     12  N   UNL     1       2.322   2.581  20.757  0.00  0.00    +0.000 N 
ATOM     13  H   UNL     1       5.781   6.121  17.160  0.00  0.00    +0.000 HD
ATOM     14  H   UNL     1       2.558   1.710  21.214  0.00  0.00    +0.000 HD
ENDROOT
BRANCH  10  15
ATOM     15  C   UNL     1       1.880   7.593  18.699  0.00  0.00    +0.000 C 
ATOM     16  C   UNL     1       1.870   8.871  17.849  0.00  0.00    +0.000 C 
ATOM     17  C   UNL     1       0.685   9.762  18.233  0.00  0.00    +0.000 C 
ATOM     18  C   UNL     1       0.687  10.103  19.722  0.00  0.00    +0.000 C 
ATOM     19  C   UNL     1       0.780   8.859  20.600  0.00  0.00    +0.000 C 
ATOM     20  C   UNL     1       1.945   7.962  20.194  0.00  0.00    +0.000 C 
ENDBRANCH  10  15
TORSDOF 1
ENDMDL
MODEL 6
REMARK VINA RESULT:      -7.0      2.051      5.277
REMARK  Name = 
REMARK  1 active torsions:
REMARK  status: ('A' for Active; 'I' for Inactive)
REMARK    1  A    between atoms: C_10  and  C_11
REMARK                            x       y       z     vdW  Elec       q    Type
REMARK                         _______ _______ _______ _____ _____    ______ ____
ROOT
ATOM      1  C   UNL     1       0.906   2.546  18.903  0.00  0.00    +0.000 A 
ATOM      2  C   UNL     1       1.076   3.906  18.698  0.00  0.00    +0.000 A 
ATOM      3  C   UNL     1       2.365   4.037  18.183  0.00  0.00    +0.000 A 
ATOM      4  C   UNL     1       2.959   2.809  18.017  0.00  0.00    +0.000 A 
ATOM      5  N   UNL     1       4.167   2.533  17.501  0.00  0.00    +0.000 NA
ATOM      6  C   UNL     1       4.866   3.607  17.062  0.00  0.00    +0.000 A 
ATOM      7  C   UNL     1       4.350   4.887  17.207  0.00  0.00    +0.000 A 
ATOM      8  N   UNL     1       4.819   6.131  16.896  0.00  0.00    +0.000 N 
ATOM      9  N   UNL     1       4.024   7.144  17.312  0.00  0.00    +0.000 NA
ATOM     10  C   UNL     1       2.978   6.532  17.901  0.00  0.00    +0.000 A 
ATOM     11  C   UNL     1       3.129   5.146  17.782  0.00  0.00    +0.000 A 
ATOM     12  N   UNL     1       2.064   1.899  18.510  0.00  0.00    +0.000 N 
ATOM     13  H   UNL     1       5.688   6.371  16.433  0.00  0.00    +0.000 HD
ATOM     14  H   UNL     1       2.241   0.905  18.561  0.00  0.00    +0.000 HD
ENDROOT
BRANCH  10  15
ATOM     15  C   UNL     1       1.974   7.332  18.677  0.00  0.00    +0.000 C 
ATOM     16  C   UNL     1       1.942   8.822  18.309  0.00  0.00    +0.000 C 
ATOM     17  C   UNL     1       0.853   9.548  19.102  0.00  0.00    +0.000 C 
ATOM     18  C   UNL     1       1.029   9.368  20.609  0.00  0.00    +0.000 C 
ATOM     19  C   UNL     1       1.148   7.899  21.005  0.00  0.00    +0.000 C 
ATOM     20  C   UNL     1       2.215   7.175  20.191  0.00  0.00    +0.000 C 
ENDBRANCH  10  15
TORSDOF 1
ENDMDL
MODEL 7
REMARK VINA RESULT:      -7.0      2.038      5.010
REMARK  Name = 
REMARK  1 active torsions:
REMARK  status: ('A' for Active; 'I' for Inactive)
REMARK    1  A    between atoms: C_10  and  C_11
REMARK                            x       y       z     vdW  Elec       q    Type
REMARK                         _______ _______ _______ _____ _____    ______ ____
ROOT
ATOM      1  C   UNL     1       6.553   5.345  18.426  0.00  0.00    +0.000 A 
ATOM      2  C   UNL     1       5.441   5.991  18.939  0.00  0.00    +0.000 A 
ATOM      3  C   UNL     1       4.584   4.969  19.347  0.00  0.00    +0.000 A 
ATOM      4  C   UNL     1       5.157   3.735  19.152  0.00  0.00    +0.000 A 
ATOM      5  N   UNL     1       4.661   2.529  19.470  0.00  0.00    +0.000 NA
ATOM      6  C   UNL     1       3.458   2.544  20.090  0.00  0.00    +0.000 A 
ATOM      7  C   UNL     1       2.798   3.745  20.309  0.00  0.00    +0.000 A 
ATOM      8  N   UNL     1       1.594   4.069  20.869  0.00  0.00    +0.000 N 
ATOM      9  N   UNL     1       1.281   5.382  20.788  0.00  0.00    +0.000 NA
ATOM     10  C   UNL     1       2.337   5.944  20.169  0.00  0.00    +0.000 A 
ATOM     11  C   UNL     1       3.306   4.965  19.932  0.00  0.00    +0.000 A 
ATOM     12  N   UNL     1       6.355   3.980  18.538  0.00  0.00    +0.000 N 
ATOM     13  H   UNL     1       0.917   3.445  21.292  0.00  0.00    +0.000 HD
ATOM     14  H   UNL     1       6.989   3.256  18.230  0.00  0.00    +0.000 HD
ENDROOT
BRANCH  10  15
ATOM     15  C   UNL     1       2.271   7.371  19.709  0.00  0.00    +0.000 C 
ATOM     16  C   UNL     1       1.163   8.195  20.381  0.00  0.00    +0.000 C 
ATOM     17  C   UNL     1       1.206   9.647  19.899  0.00  0.00    +0.000 C 
ATOM     18  C   UNL     1       1.105   9.746  18.378  0.00  0.00    +0.000 C 
ATOM     19  C   UNL     1       2.140   8.875  17.673  0.00  0.00    +0.000 C 
ATOM     20  C   UNL     1       2.112   7.436  18.177  0.00  0.00    +0.000 C 
ENDBRANCH  10  15
TORSDOF 1
ENDMDL
MODEL 8
REMARK VINA RESULT:      -7.0      2.332      5.467
REMARK  Name = 
REMARK  1 active torsions:
REMARK  status: ('A' for Active; 'I' for Inactive)
REMARK    1  A    between atoms: C_10  and  C_11
REMARK                            x       y       z     vdW  Elec       q    Type
REMARK                         _______ _______ _______ _____ _____    ______ ____
ROOT
ATOM      1  C   UNL     1       7.739   5.997  19.460  0.00  0.00    +0.000 A 
ATOM      2  C   UNL     1       6.574   5.248  19.450  0.00  0.00    +0.000 A 
ATOM      3  C   UNL     1       6.220   5.147  18.105  0.00  0.00    +0.000 A 
ATOM      4  C   UNL     1       7.153   5.755  17.300  0.00  0.00    +0.000 A 
ATOM      5  N   UNL     1       7.181   5.816  15.959  0.00  0.00    +0.000 NA
ATOM      6  C   UNL     1       6.174   5.164  15.331  0.00  0.00    +0.000 A 
ATOM      7  C   UNL     1       5.177   4.539  16.066  0.00  0.00    +0.000 A 
ATOM      8  N   UNL     1       4.051   3.845  15.725  0.00  0.00    +0.000 N 
ATOM      9  N   UNL     1       3.282   3.484  16.777  0.00  0.00    +0.000 NA
ATOM     10  C   UNL     1       3.946   3.943  17.855  0.00  0.00    +0.000 A 
ATOM     11  C   UNL     1       5.146   4.530  17.440  0.00  0.00    +0.000 A 
ATOM     12  N   UNL     1       8.063   6.318  18.154  0.00  0.00    +0.000 N 
ATOM     13  H   UNL     1       3.723   3.610  14.795  0.00  0.00    +0.000 HD
ATOM     14  H   UNL     1       8.851   6.873  17.851  0.00  0.00    +0.000 HD
ENDROOT
BRANCH  10  15
ATOM     15  C   UNL     1       3.300   3.919  19.209  0.00  0.00    +0.000 C 
ATOM     16  C   UNL     1       3.516   2.610  19.982  0.00  0.00    +0.000 C 
ATOM     17  C   UNL     1       2.876   2.694  21.370  0.00  0.00    +0.000 C 
ATOM     18  C   UNL     1       1.389   3.036  21.293  0.00  0.00    +0.000 C 
ATOM     19  C   UNL     1       1.127   4.288  20.461  0.00  0.00    +0.000 C 
ATOM     20  C   UNL     1       1.791   4.211  19.090  0.00  0.00    +0.000 C 
ENDBRANCH  10  15
TORSDOF 1
ENDMDL
MODEL 9
REMARK VINA RESULT:      -6.9      1.604      3.055
REMARK  Name = 
REMARK  1 active torsions:
REMARK  status: ('A' for Active; 'I' for Inactive)
REMARK    1  A    between atoms: C_10  and  C_11
REMARK                            x       y       z     vdW  Elec       q    Type
REMARK                         _______ _______ _______ _____ _____    ______ ____
ROOT
ATOM      1  C   UNL     1       4.423   2.285  20.065  0.00  0.00    +0.000 A 
ATOM      2  C   UNL     1       4.704   3.380  19.264  0.00  0.00    +0.000 A 
ATOM      3  C   UNL     1       3.688   4.296  19.531  0.00  0.00    +0.000 A 
ATOM      4  C   UNL     1       2.836   3.822  20.501  0.00  0.00    +0.000 A 
ATOM      5  N   UNL     1       1.780   4.440  21.052  0.00  0.00    +0.000 NA
ATOM      6  C   UNL     1       1.554   5.701  20.614  0.00  0.00    +0.000 A 
ATOM      7  C   UNL     1       2.353   6.252  19.622  0.00  0.00    +0.000 A 
ATOM      8  N   UNL     1       2.354   7.454  18.974  0.00  0.00    +0.000 N 
ATOM      9  N   UNL     1       3.263   7.547  17.977  0.00  0.00    +0.000 NA
ATOM     10  C   UNL     1       3.900   6.360  17.990  0.00  0.00    +0.000 A 
ATOM     11  C   UNL     1       3.401   5.581  19.039  0.00  0.00    +0.000 A 
ATOM     12  N   UNL     1       3.275   2.559  20.788  0.00  0.00    +0.000 N 
ATOM     13  H   UNL     1       1.741   8.246  19.132  0.00  0.00    +0.000 HD
ATOM     14  H   UNL     1       2.818   1.939  21.442  0.00  0.00    +0.000 HD
ENDROOT
BRANCH  10  15
ATOM     15  C   UNL     1       4.848   5.999  16.884  0.00  0.00    +0.000 C 
ATOM     16  C   UNL     1       4.515   4.674  16.182  0.00  0.00    +0.000 C 
ATOM     17  C   UNL     1       5.492   4.415  15.033  0.00  0.00    +0.000 C 
ATOM     18  C   UNL     1       6.945   4.426  15.506  0.00  0.00    +0.000 C 
ATOM     19  C   UNL     1       7.290   5.694  16.280  0.00  0.00    +0.000 C 
ATOM     20  C   UNL     1       6.297   5.962  17.406  0.00  0.00    +0.000 C 
ENDBRANCH  10  15
TORSDOF 1
ENDMDL
