MODEL 1
REMARK VINA RESULT:      -8.9      0.000      0.000
REMARK  Name = 
REMARK  4 active torsions:
REMARK  status: ('A' for Active; 'I' for Inactive)
REMARK    1  A    between atoms: C_2  and  C_13
REMARK    2  A    between atoms: N_3  and  C_4
REMARK    3  A    between atoms: C_17  and  N_18
REMARK    4  A    between atoms: N_27  and  C_28
REMARK                            x       y       z     vdW  Elec       q    Type
REMARK                         _______ _______ _______ _____ _____    ______ ____
ROOT
ATOM      1  N   UNL     1      -1.020  12.652  21.899  0.00  0.00    +0.000 N 
ATOM      2  C   UNL     1      -0.718  13.704  21.000  0.00  0.00    +0.000 A 
ATOM      3  C   UNL     1      -1.689  14.639  20.732  0.00  0.00    +0.000 A 
ATOM      4  C   UNL     1      -1.341  15.612  19.831  0.00  0.00    +0.000 A 
ATOM      5  N   UNL     1      -0.121  15.707  19.272  0.00  0.00    +0.000 NA
ATOM      6  C   UNL     1       0.792  14.785  19.611  0.00  0.00    +0.000 A 
ATOM      7  N   UNL     1       2.050  14.844  19.064  0.00  0.00    +0.000 N 
ATOM      8  C   UNL     1       2.456  15.969  18.212  0.00  0.00    +0.000 C 
ATOM      9  C   UNL     1       3.560  16.822  18.874  0.00  0.00    +0.000 C 
ATOM     10  N   UNL     1       4.658  15.990  19.399  0.00  0.00    +0.000 N 
ATOM     11  C   UNL     1       4.221  14.906  20.300  0.00  0.00    +0.000 C 
ATOM     12  C   UNL     1       3.137  14.032  19.625  0.00  0.00    +0.000 C 
ATOM     13  N   UNL     1       0.505  13.777  20.447  0.00  0.00    +0.000 NA
ATOM     14  H   UNL     1      -1.115  13.025  22.837  0.00  0.00    +0.000 HD
ENDROOT
BRANCH   1  19
ATOM     15  C   UNL     1       0.568   9.535  20.610  0.00  0.00    +0.000 A 
ATOM     16  C   UNL     1       0.561   8.734  21.753  0.00  0.00    +0.000 A 
ATOM     17  C   UNL     1       0.049   9.238  22.948  0.00  0.00    +0.000 A 
ATOM     18  C   UNL     1      -0.457  10.541  23.000  0.00  0.00    +0.000 A 
ATOM     19  C   UNL     1      -0.439  11.365  21.868  0.00  0.00    +0.000 A 
ATOM     20  C   UNL     1       0.049  10.833  20.668  0.00  0.00    +0.000 A 
BRANCH  15  22
ATOM     21  O   UNL     1       0.906   9.584  18.286  0.00  0.00    +0.000 OA
ATOM     22  C   UNL     1       1.098   8.985  19.339  0.00  0.00    +0.000 C 
ATOM     23  N   UNL     1       1.760   7.778  19.430  0.00  0.00    +0.000 N 
ATOM     24  H   UNL     1       1.828   7.309  20.325  0.00  0.00    +0.000 HD
BRANCH  23  25
ATOM     25  C   UNL     1       2.348   7.141  18.270  0.00  0.00    +0.000 C 
ATOM     26  C   UNL     1       3.739   7.716  17.909  0.00  0.00    +0.000 C 
ATOM     27  C   UNL     1       4.348   6.565  17.171  0.00  0.00    +0.000 A 
ATOM     28  C   UNL     1       5.439   6.572  16.320  0.00  0.00    +0.000 A 
ATOM     29  C   UNL     1       5.835   5.363  15.744  0.00  0.00    +0.000 A 
ATOM     30  C   UNL     1       5.152   4.171  16.036  0.00  0.00    +0.000 A 
ATOM     31  C   UNL     1       4.067   4.170  16.913  0.00  0.00    +0.000 A 
ATOM     32  C   UNL     1       3.674   5.374  17.467  0.00  0.00    +0.000 A 
ATOM     33  C   UNL     1       2.560   5.618  18.435  0.00  0.00    +0.000 C 
ENDBRANCH  23  25
ENDBRANCH  15  22
ENDBRANCH   1  19
BRANCH  10  34
ATOM     34  C   UNL     1       5.949  16.045  18.912  0.00  0.00    +0.000 A 
ATOM     35  C   UNL     1       6.522  14.948  18.245  0.00  0.00    +0.000 A 
ATOM     36  C   UNL     1       7.839  14.971  17.769  0.00  0.00    +0.000 A 
ATOM     37  C   UNL     1       8.622  16.104  17.947  0.00  0.00    +0.000 A 
ATOM     38  C   UNL     1       8.085  17.209  18.597  0.00  0.00    +0.000 A 
ATOM     39  C   UNL     1       6.767  17.174  19.072  0.00  0.00    +0.000 A 
ENDBRANCH  10  34
TORSDOF 4
ENDMDL
MODEL 2
REMARK VINA RESULT:      -8.7      3.293      7.182
REMARK  Name = 
REMARK  4 active torsions:
REMARK  status: ('A' for Active; 'I' for Inactive)
REMARK    1  A    between atoms: C_2  and  C_13
REMARK    2  A    between atoms: N_3  and  C_4
REMARK    3  A    between atoms: C_17  and  N_18
REMARK    4  A    between atoms: N_27  and  C_28
REMARK                            x       y       z     vdW  Elec       q    Type
REMARK                         _______ _______ _______ _____ _____    ______ ____
ROOT
ATOM      1  N   UNL     1      10.010  13.754  17.714  0.00  0.00    +0.000 N 
ATOM      2  C   UNL     1       9.242  14.926  17.921  0.00  0.00    +0.000 A 
ATOM      3  C   UNL     1       9.797  16.142  17.603  0.00  0.00    +0.000 A 
ATOM      4  C   UNL     1       9.012  17.237  17.858  0.00  0.00    +0.000 A 
ATOM      5  N   UNL     1       7.756  17.157  18.334  0.00  0.00    +0.000 NA
ATOM      6  C   UNL     1       7.261  15.936  18.582  0.00  0.00    +0.000 A 
ATOM      7  N   UNL     1       5.983  15.808  19.069  0.00  0.00    +0.000 N 
ATOM      8  C   UNL     1       5.102  16.975  19.203  0.00  0.00    +0.000 C 
ATOM      9  C   UNL     1       3.899  16.901  18.237  0.00  0.00    +0.000 C 
ATOM     10  N   UNL     1       3.231  15.587  18.291  0.00  0.00    +0.000 N 
ATOM     11  C   UNL     1       4.137  14.438  18.091  0.00  0.00    +0.000 C 
ATOM     12  C   UNL     1       5.325  14.496  19.080  0.00  0.00    +0.000 C 
ATOM     13  N   UNL     1       7.991  14.825  18.405  0.00  0.00    +0.000 NA
ATOM     14  H   UNL     1      10.124  13.597  16.718  0.00  0.00    +0.000 HD
ENDROOT
BRANCH   1  19
ATOM     15  C   UNL     1       9.000  10.298  18.677  0.00  0.00    +0.000 A 
ATOM     16  C   UNL     1       9.474  10.231  19.988  0.00  0.00    +0.000 A 
ATOM     17  C   UNL     1      10.143  11.324  20.537  0.00  0.00    +0.000 A 
ATOM     18  C   UNL     1      10.337  12.483  19.778  0.00  0.00    +0.000 A 
ATOM     19  C   UNL     1       9.885  12.559  18.455  0.00  0.00    +0.000 A 
ATOM     20  C   UNL     1       9.187  11.465  17.929  0.00  0.00    +0.000 A 
BRANCH  15  22
ATOM     21  O   UNL     1       7.512   9.299  17.159  0.00  0.00    +0.000 OA
ATOM     22  C   UNL     1       8.274   9.138  18.107  0.00  0.00    +0.000 C 
ATOM     23  N   UNL     1       8.487   7.924  18.728  0.00  0.00    +0.000 N 
ATOM     24  H   UNL     1       9.083   7.876  19.544  0.00  0.00    +0.000 HD
BRANCH  23  25
ATOM     25  C   UNL     1       7.859   6.706  18.257  0.00  0.00    +0.000 C 
ATOM     26  C   UNL     1       7.104   5.949  19.378  0.00  0.00    +0.000 C 
ATOM     27  C   UNL     1       6.101   5.175  18.581  0.00  0.00    +0.000 A 
ATOM     28  C   UNL     1       5.364   4.071  18.971  0.00  0.00    +0.000 A 
ATOM     29  C   UNL     1       4.474   3.512  18.050  0.00  0.00    +0.000 A 
ATOM     30  C   UNL     1       4.323   4.068  16.770  0.00  0.00    +0.000 A 
ATOM     31  C   UNL     1       5.055   5.195  16.393  0.00  0.00    +0.000 A 
ATOM     32  C   UNL     1       5.942   5.733  17.306  0.00  0.00    +0.000 A 
ATOM     33  C   UNL     1       6.817   6.934  17.138  0.00  0.00    +0.000 C 
ENDBRANCH  23  25
ENDBRANCH  15  22
ENDBRANCH   1  19
BRANCH  10  34
ATOM     34  C   UNL     1       1.934  15.414  18.729  0.00  0.00    +0.000 A 
ATOM     35  C   UNL     1       1.173  16.502  19.192  0.00  0.00    +0.000 A 
ATOM     36  C   UNL     1      -0.135  16.346  19.670  0.00  0.00    +0.000 A 
ATOM     37  C   UNL     1      -0.720  15.087  19.694  0.00  0.00    +0.000 A 
ATOM     38  C   UNL     1       0.003  13.990  19.238  0.00  0.00    +0.000 A 
ATOM     39  C   UNL     1       1.311  14.157  18.765  0.00  0.00    +0.000 A 
ENDBRANCH  10  34
TORSDOF 4
ENDMDL
MODEL 3
REMARK VINA RESULT:      -8.5      0.888      1.133
REMARK  Name = 
REMARK  4 active torsions:
REMARK  status: ('A' for Active; 'I' for Inactive)
REMARK    1  A    between atoms: C_2  and  C_13
REMARK    2  A    between atoms: N_3  and  C_4
REMARK    3  A    between atoms: C_17  and  N_18
REMARK    4  A    between atoms: N_27  and  C_28
REMARK                            x       y       z     vdW  Elec       q    Type
REMARK                         _______ _______ _______ _____ _____    ______ ____
ROOT
ATOM      1  N   UNL     1      -0.832  12.452  21.482  0.00  0.00    +0.000 N 
ATOM      2  C   UNL     1      -0.407  13.567  20.719  0.00  0.00    +0.000 A 
ATOM      3  C   UNL     1      -1.349  14.475  20.299  0.00  0.00    +0.000 A 
ATOM      4  C   UNL     1      -0.874  15.512  19.539  0.00  0.00    +0.000 A 
ATOM      5  N   UNL     1       0.428  15.690  19.253  0.00  0.00    +0.000 NA
ATOM      6  C   UNL     1       1.298  14.789  19.731  0.00  0.00    +0.000 A 
ATOM      7  N   UNL     1       2.638  14.933  19.463  0.00  0.00    +0.000 N 
ATOM      8  C   UNL     1       3.151  16.121  18.771  0.00  0.00    +0.000 C 
ATOM      9  C   UNL     1       4.047  16.980  19.690  0.00  0.00    +0.000 C 
ATOM     10  N   UNL     1       5.056  16.165  20.392  0.00  0.00    +0.000 N 
ATOM     11  C   UNL     1       4.499  15.013  21.128  0.00  0.00    +0.000 C 
ATOM     12  C   UNL     1       3.627  14.135  20.199  0.00  0.00    +0.000 C 
ATOM     13  N   UNL     1       0.899  13.723  20.438  0.00  0.00    +0.000 NA
ATOM     14  H   UNL     1      -1.138  12.765  22.397  0.00  0.00    +0.000 HD
ENDROOT
BRANCH   1  19
ATOM     15  C   UNL     1       0.856   9.332  20.336  0.00  0.00    +0.000 A 
ATOM     16  C   UNL     1       0.935   8.611  21.528  0.00  0.00    +0.000 A 
ATOM     17  C   UNL     1       0.446   9.172  22.708  0.00  0.00    +0.000 A 
ATOM     18  C   UNL     1      -0.121  10.450  22.696  0.00  0.00    +0.000 A 
ATOM     19  C   UNL     1      -0.189  11.195  21.512  0.00  0.00    +0.000 A 
ATOM     20  C   UNL     1       0.276  10.605  20.329  0.00  0.00    +0.000 A 
BRANCH  15  22
ATOM     21  O   UNL     1       1.147   9.269  18.005  0.00  0.00    +0.000 OA
ATOM     22  C   UNL     1       1.361   8.722  19.082  0.00  0.00    +0.000 C 
ATOM     23  N   UNL     1       2.027   7.521  19.218  0.00  0.00    +0.000 N 
ATOM     24  H   UNL     1       2.114   7.096  20.133  0.00  0.00    +0.000 HD
BRANCH  23  25
ATOM     25  C   UNL     1       2.592   6.829  18.077  0.00  0.00    +0.000 C 
ATOM     26  C   UNL     1       3.919   7.460  17.589  0.00  0.00    +0.000 C 
ATOM     27  C   UNL     1       4.564   6.293  16.909  0.00  0.00    +0.000 A 
ATOM     28  C   UNL     1       5.604   6.300  15.996  0.00  0.00    +0.000 A 
ATOM     29  C   UNL     1       6.049   5.075  15.494  0.00  0.00    +0.000 A 
ATOM     30  C   UNL     1       5.466   3.870  15.919  0.00  0.00    +0.000 A 
ATOM     31  C   UNL     1       4.433   3.872  16.857  0.00  0.00    +0.000 A 
ATOM     32  C   UNL     1       3.990   5.090  17.338  0.00  0.00    +0.000 A 
ATOM     33  C   UNL     1       2.917   5.342  18.349  0.00  0.00    +0.000 C 
ENDBRANCH  23  25
ENDBRANCH  15  22
ENDBRANCH   1  19
BRANCH  10  34
ATOM     34  C   UNL     1       6.414  16.303  20.189  0.00  0.00    +0.000 A 
ATOM     35  C   UNL     1       6.965  17.523  19.763  0.00  0.00    +0.000 A 
ATOM     36  C   UNL     1       8.337  17.678  19.523  0.00  0.00    +0.000 A 
ATOM     37  C   UNL     1       9.200  16.607  19.708  0.00  0.00    +0.000 A 
ATOM     38  C   UNL     1       8.689  15.386  20.134  0.00  0.00    +0.000 A 
ATOM     39  C   UNL     1       7.315  15.241  20.369  0.00  0.00    +0.000 A 
ENDBRANCH  10  34
TORSDOF 4
ENDMDL
MODEL 4
REMARK VINA RESULT:      -8.4      2.227      8.052
REMARK  Name = 
REMARK  4 active torsions:
REMARK  status: ('A' for Active; 'I' for Inactive)
REMARK    1  A    between atoms: C_2  and  C_13
REMARK    2  A    between atoms: N_3  and  C_4
REMARK    3  A    between atoms: C_17  and  N_18
REMARK    4  A    between atoms: N_27  and  C_28
REMARK                            x       y       z     vdW  Elec       q    Type
REMARK                         _______ _______ _______ _____ _____    ______ ____
ROOT
ATOM      1  N   UNL     1       0.755  17.181  19.617  0.00  0.00    +0.000 N 
ATOM      2  C   UNL     1      -0.007  16.076  20.066  0.00  0.00    +0.000 A 
ATOM      3  C   UNL     1      -1.325  16.277  20.401  0.00  0.00    +0.000 A 
ATOM      4  C   UNL     1      -1.996  15.172  20.857  0.00  0.00    +0.000 A 
ATOM      5  N   UNL     1      -1.448  13.946  20.930  0.00  0.00    +0.000 NA
ATOM      6  C   UNL     1      -0.170  13.813  20.546  0.00  0.00    +0.000 A 
ATOM      7  N   UNL     1       0.430  12.578  20.604  0.00  0.00    +0.000 N 
ATOM      8  C   UNL     1      -0.337  11.378  20.958  0.00  0.00    +0.000 C 
ATOM      9  C   UNL     1      -0.447  10.396  19.770  0.00  0.00    +0.000 C 
ATOM     10  N   UNL     1       0.861  10.153  19.134  0.00  0.00    +0.000 N 
ATOM     11  C   UNL     1       1.578  11.380  18.736  0.00  0.00    +0.000 C 
ATOM     12  C   UNL     1       1.716  12.351  19.934  0.00  0.00    +0.000 C 
ATOM     13  N   UNL     1       0.562  14.859  20.138  0.00  0.00    +0.000 NA
ATOM     14  H   UNL     1       0.424  17.473  18.704  0.00  0.00    +0.000 HD
ENDROOT
BRANCH   1  19
ATOM     15  C   UNL     1       4.418  16.638  19.192  0.00  0.00    +0.000 A 
ATOM     16  C   UNL     1       4.934  17.461  20.194  0.00  0.00    +0.000 A 
ATOM     17  C   UNL     1       4.066  18.207  20.990  0.00  0.00    +0.000 A 
ATOM     18  C   UNL     1       2.684  18.128  20.787  0.00  0.00    +0.000 A 
ATOM     19  C   UNL     1       2.151  17.322  19.773  0.00  0.00    +0.000 A 
ATOM     20  C   UNL     1       3.035  16.555  19.003  0.00  0.00    +0.000 A 
BRANCH  15  22
ATOM     21  O   UNL     1       4.906  15.117  17.469  0.00  0.00    +0.000 OA
ATOM     22  C   UNL     1       5.347  15.834  18.362  0.00  0.00    +0.000 C 
ATOM     23  N   UNL     1       6.685  15.926  18.687  0.00  0.00    +0.000 N 
ATOM     24  H   UNL     1       6.972  16.491  19.476  0.00  0.00    +0.000 HD
BRANCH  23  25
ATOM     25  C   UNL     1       7.702  15.212  17.942  0.00  0.00    +0.000 C 
ATOM     26  C   UNL     1       9.042  15.985  17.863  0.00  0.00    +0.000 C 
ATOM     27  C   UNL     1      10.011  14.865  17.644  0.00  0.00    +0.000 A 
ATOM     28  C   UNL     1      11.308  14.935  17.168  0.00  0.00    +0.000 A 
ATOM     29  C   UNL     1      12.034  13.747  17.052  0.00  0.00    +0.000 A 
ATOM     30  C   UNL     1      11.464  12.519  17.425  0.00  0.00    +0.000 A 
ATOM     31  C   UNL     1      10.162  12.461  17.924  0.00  0.00    +0.000 A 
ATOM     32  C   UNL     1       9.448  13.640  18.023  0.00  0.00    +0.000 A 
ATOM     33  C   UNL     1       8.056  13.830  18.537  0.00  0.00    +0.000 C 
ENDBRANCH  23  25
ENDBRANCH  15  22
ENDBRANCH   1  19
BRANCH  10  34
ATOM     34  C   UNL     1       1.483   8.921  19.127  0.00  0.00    +0.000 A 
ATOM     35  C   UNL     1       1.493   8.106  20.272  0.00  0.00    +0.000 A 
ATOM     36  C   UNL     1       2.143   6.865  20.298  0.00  0.00    +0.000 A 
ATOM     37  C   UNL     1       2.802   6.403  19.167  0.00  0.00    +0.000 A 
ATOM     38  C   UNL     1       2.807   7.182  18.015  0.00  0.00    +0.000 A 
ATOM     39  C   UNL     1       2.156   8.422  18.001  0.00  0.00    +0.000 A 
ENDBRANCH  10  34
TORSDOF 4
ENDMDL
MODEL 5
REMARK VINA RESULT:      -8.4      1.246      1.594
REMARK  Name = 
REMARK  4 active torsions:
REMARK  status: ('A' for Active; 'I' for Inactive)
REMARK    1  A    between atoms: C_2  and  C_13
REMARK    2  A    between atoms: N_3  and  C_4
REMARK    3  A    between atoms: C_17  and  N_18
REMARK    4  A    between atoms: N_27  and  C_28
REMARK                            x       y       z     vdW  Elec       q    Type
REMARK                         _______ _______ _______ _____ _____    ______ ____
ROOT
ATOM      1  N   UNL     1      -0.759  13.725  20.700  0.00  0.00    +0.000 N 
ATOM      2  C   UNL     1      -0.034  14.656  19.918  0.00  0.00    +0.000 A 
ATOM      3  C   UNL     1      -0.721  15.675  19.303  0.00  0.00    +0.000 A 
ATOM      4  C   UNL     1       0.036  16.522  18.536  0.00  0.00    +0.000 A 
ATOM      5  N   UNL     1       1.373  16.425  18.418  0.00  0.00    +0.000 NA
ATOM      6  C   UNL     1       1.984  15.432  19.080  0.00  0.00    +0.000 A 
ATOM      7  N   UNL     1       3.348  15.296  18.988  0.00  0.00    +0.000 N 
ATOM      8  C   UNL     1       4.164  16.290  18.281  0.00  0.00    +0.000 C 
ATOM      9  C   UNL     1       5.097  17.058  19.244  0.00  0.00    +0.000 C 
ATOM     10  N   UNL     1       5.834  16.146  20.140  0.00  0.00    +0.000 N 
ATOM     11  C   UNL     1       4.977  15.200  20.881  0.00  0.00    +0.000 C 
ATOM     12  C   UNL     1       4.065  14.409  19.913  0.00  0.00    +0.000 C 
ATOM     13  N   UNL     1       1.301  14.537  19.807  0.00  0.00    +0.000 NA
ATOM     14  H   UNL     1      -1.105  14.183  21.537  0.00  0.00    +0.000 HD
ENDROOT
BRANCH   1  19
ATOM     15  C   UNL     1       0.343  10.226  20.036  0.00  0.00    +0.000 A 
ATOM     16  C   UNL     1       0.192   9.649  21.297  0.00  0.00    +0.000 A 
ATOM     17  C   UNL     1      -0.254  10.428  22.365  0.00  0.00    +0.000 A 
ATOM     18  C   UNL     1      -0.551  11.781  22.171  0.00  0.00    +0.000 A 
ATOM     19  C   UNL     1      -0.386  12.381  20.916  0.00  0.00    +0.000 A 
ATOM     20  C   UNL     1       0.032  11.577  19.847  0.00  0.00    +0.000 A 
BRANCH  15  22
ATOM     21  O   UNL     1       0.388   9.612  17.769  0.00  0.00    +0.000 OA
ATOM     22  C   UNL     1       0.800   9.387  18.902  0.00  0.00    +0.000 C 
ATOM     23  N   UNL     1       1.658   8.354  19.220  0.00  0.00    +0.000 N 
ATOM     24  H   UNL     1       1.908   8.189  20.187  0.00  0.00    +0.000 HD
BRANCH  23  25
ATOM     25  C   UNL     1       2.200   7.473  18.205  0.00  0.00    +0.000 C 
ATOM     26  C   UNL     1       3.533   7.990  17.611  0.00  0.00    +0.000 C 
ATOM     27  C   UNL     1       4.150   6.714  17.129  0.00  0.00    +0.000 A 
ATOM     28  C   UNL     1       5.181   6.551  16.220  0.00  0.00    +0.000 A 
ATOM     29  C   UNL     1       5.599   5.251  15.924  0.00  0.00    +0.000 A 
ATOM     30  C   UNL     1       4.999   4.144  16.545  0.00  0.00    +0.000 A 
ATOM     31  C   UNL     1       3.975   4.320  17.477  0.00  0.00    +0.000 A 
ATOM     32  C   UNL     1       3.559   5.610  17.754  0.00  0.00    +0.000 A 
ATOM     33  C   UNL     1       2.500   6.045  18.716  0.00  0.00    +0.000 C 
ENDBRANCH  23  25
ENDBRANCH  15  22
ENDBRANCH   1  19
BRANCH  10  34
ATOM     34  C   UNL     1       7.206  16.008  20.115  0.00  0.00    +0.000 A 
ATOM     35  C   UNL     1       8.047  17.122  19.948  0.00  0.00    +0.000 A 
ATOM     36  C   UNL     1       9.441  17.002  19.890  0.00  0.00    +0.000 A 
ATOM     37  C   UNL     1      10.036  15.753  20.003  0.00  0.00    +0.000 A 
ATOM     38  C   UNL     1       9.234  14.629  20.175  0.00  0.00    +0.000 A 
ATOM     39  C   UNL     1       7.840  14.761  20.228  0.00  0.00    +0.000 A 
ENDBRANCH  10  34
TORSDOF 4
ENDMDL
MODEL 6
REMARK VINA RESULT:      -8.3      1.480      2.238
REMARK  Name = 
REMARK  4 active torsions:
REMARK  status: ('A' for Active; 'I' for Inactive)
REMARK    1  A    between atoms: C_2  and  C_13
REMARK    2  A    between atoms: N_3  and  C_4
REMARK    3  A    between atoms: C_17  and  N_18
REMARK    4  A    between atoms: N_27  and  C_28
REMARK                            x       y       z     vdW  Elec       q    Type
REMARK                         _______ _______ _______ _____ _____    ______ ____
ROOT
ATOM      1  N   UNL     1      -1.866  13.244  20.334  0.00  0.00    +0.000 N 
ATOM      2  C   UNL     1      -1.215  14.496  20.213  0.00  0.00    +0.000 A 
ATOM      3  C   UNL     1      -1.887  15.627  20.609  0.00  0.00    +0.000 A 
ATOM      4  C   UNL     1      -1.212  16.808  20.436  0.00  0.00    +0.000 A 
ATOM      5  N   UNL     1       0.047  16.883  19.966  0.00  0.00    +0.000 NA
ATOM      6  C   UNL     1       0.659  15.736  19.640  0.00  0.00    +0.000 A 
ATOM      7  N   UNL     1       1.944  15.767  19.157  0.00  0.00    +0.000 N 
ATOM      8  C   UNL     1       2.707  17.019  19.110  0.00  0.00    +0.000 C 
ATOM      9  C   UNL     1       3.911  16.996  20.079  0.00  0.00    +0.000 C 
ATOM     10  N   UNL     1       4.703  15.760  19.942  0.00  0.00    +0.000 N 
ATOM     11  C   UNL     1       3.914  14.518  20.055  0.00  0.00    +0.000 C 
ATOM     12  C   UNL     1       2.727  14.528  19.062  0.00  0.00    +0.000 C 
ATOM     13  N   UNL     1       0.041  14.550  19.735  0.00  0.00    +0.000 NA
ATOM     14  H   UNL     1      -1.967  13.008  21.315  0.00  0.00    +0.000 HD
ENDROOT
BRANCH   1  19
ATOM     15  C   UNL     1      -0.264  10.177  18.945  0.00  0.00    +0.000 A 
ATOM     16  C   UNL     1      -1.019   9.975  17.790  0.00  0.00    +0.000 A 
ATOM     17  C   UNL     1      -2.068  10.844  17.488  0.00  0.00    +0.000 A 
ATOM     18  C   UNL     1      -2.359  11.914  18.340  0.00  0.00    +0.000 A 
ATOM     19  C   UNL     1      -1.624  12.120  19.514  0.00  0.00    +0.000 A 
ATOM     20  C   UNL     1      -0.554  11.258  19.785  0.00  0.00    +0.000 A 
BRANCH  15  22
ATOM     21  O   UNL     1       1.181   9.048  20.414  0.00  0.00    +0.000 OA
ATOM     22  C   UNL     1       0.861   9.260  19.249  0.00  0.00    +0.000 C 
ATOM     23  N   UNL     1       1.514   8.720  18.159  0.00  0.00    +0.000 N 
ATOM     24  H   UNL     1       1.235   8.988  17.224  0.00  0.00    +0.000 HD
BRANCH  23  25
ATOM     25  C   UNL     1       2.614   7.791  18.313  0.00  0.00    +0.000 C 
ATOM     26  C   UNL     1       2.162   6.311  18.258  0.00  0.00    +0.000 C 
ATOM     27  C   UNL     1       3.424   5.637  17.819  0.00  0.00    +0.000 A 
ATOM     28  C   UNL     1       3.755   4.296  17.906  0.00  0.00    +0.000 A 
ATOM     29  C   UNL     1       5.000   3.891  17.419  0.00  0.00    +0.000 A 
ATOM     30  C   UNL     1       5.883   4.819  16.843  0.00  0.00    +0.000 A 
ATOM     31  C   UNL     1       5.531   6.166  16.740  0.00  0.00    +0.000 A 
ATOM     32  C   UNL     1       4.302   6.559  17.236  0.00  0.00    +0.000 A 
ATOM     33  C   UNL     1       3.705   7.930  17.226  0.00  0.00    +0.000 C 
ENDBRANCH  23  25
ENDBRANCH  15  22
ENDBRANCH   1  19
BRANCH  10  34
ATOM     34  C   UNL     1       6.012  15.745  19.504  0.00  0.00    +0.000 A 
ATOM     35  C   UNL     1       7.059  16.192  20.327  0.00  0.00    +0.000 A 
ATOM     36  C   UNL     1       8.391  16.213  19.894  0.00  0.00    +0.000 A 
ATOM     37  C   UNL     1       8.712  15.781  18.614  0.00  0.00    +0.000 A 
ATOM     38  C   UNL     1       7.700  15.327  17.774  0.00  0.00    +0.000 A 
ATOM     39  C   UNL     1       6.371  15.312  18.218  0.00  0.00    +0.000 A 
ENDBRANCH  10  34
TORSDOF 4
ENDMDL
MODEL 7
REMARK VINA RESULT:      -8.3      2.386      2.949
REMARK  Name = 
REMARK  4 active torsions:
REMARK  status: ('A' for Active; 'I' for Inactive)
REMARK    1  A    between atoms: C_2  and  C_13
REMARK    2  A    between atoms: N_3  and  C_4
REMARK    3  A    between atoms: C_17  and  N_18
REMARK    4  A    between atoms: N_27  and  C_28
REMARK                            x       y       z     vdW  Elec       q    Type
REMARK                         _______ _______ _______ _____ _____    ______ ____
ROOT
ATOM      1  N   UNL     1      -0.866  12.851  22.101  0.00  0.00    +0.000 N 
ATOM      2  C   UNL     1      -0.143  14.033  22.396  0.00  0.00    +0.000 A 
ATOM      3  C   UNL     1      -0.761  15.015  23.132  0.00  0.00    +0.000 A 
ATOM      4  C   UNL     1      -0.017  16.145  23.355  0.00  0.00    +0.000 A 
ATOM      5  N   UNL     1       1.256  16.291  22.943  0.00  0.00    +0.000 NA
ATOM      6  C   UNL     1       1.811  15.275  22.267  0.00  0.00    +0.000 A 
ATOM      7  N   UNL     1       3.108  15.382  21.828  0.00  0.00    +0.000 N 
ATOM      8  C   UNL     1       3.941  16.534  22.193  0.00  0.00    +0.000 C 
ATOM      9  C   UNL     1       5.115  16.126  23.110  0.00  0.00    +0.000 C 
ATOM     10  N   UNL     1       5.841  14.954  22.586  0.00  0.00    +0.000 N 
ATOM     11  C   UNL     1       4.981  13.793  22.286  0.00  0.00    +0.000 C 
ATOM     12  C   UNL     1       3.823  14.194  21.342  0.00  0.00    +0.000 C 
ATOM     13  N   UNL     1       1.125  14.162  21.969  0.00  0.00    +0.000 NA
ATOM     14  H   UNL     1      -1.004  12.318  22.953  0.00  0.00    +0.000 HD
ENDROOT
BRANCH   1  19
ATOM     15  C   UNL     1       0.429  10.141  19.892  0.00  0.00    +0.000 A 
ATOM     16  C   UNL     1      -0.115  10.510  18.661  0.00  0.00    +0.000 A 
ATOM     17  C   UNL     1      -0.924  11.643  18.575  0.00  0.00    +0.000 A 
ATOM     18  C   UNL     1      -1.187  12.407  19.717  0.00  0.00    +0.000 A 
ATOM     19  C   UNL     1      -0.666  12.039  20.963  0.00  0.00    +0.000 A 
ATOM     20  C   UNL     1       0.171  10.917  21.027  0.00  0.00    +0.000 A 
BRANCH  15  22
ATOM     21  O   UNL     1       1.522   8.420  21.058  0.00  0.00    +0.000 OA
ATOM     22  C   UNL     1       1.303   8.946  19.972  0.00  0.00    +0.000 C 
ATOM     23  N   UNL     1       1.856   8.519  18.782  0.00  0.00    +0.000 N 
ATOM     24  H   UNL     1       1.680   9.039  17.932  0.00  0.00    +0.000 HD
BRANCH  23  25
ATOM     25  C   UNL     1       2.709   7.350  18.714  0.00  0.00    +0.000 C 
ATOM     26  C   UNL     1       1.913   6.036  18.519  0.00  0.00    +0.000 C 
ATOM     27  C   UNL     1       2.946   5.162  17.880  0.00  0.00    +0.000 A 
ATOM     28  C   UNL     1       2.951   3.782  17.768  0.00  0.00    +0.000 A 
ATOM     29  C   UNL     1       4.029   3.177  17.119  0.00  0.00    +0.000 A 
ATOM     30  C   UNL     1       5.070   3.951  16.581  0.00  0.00    +0.000 A 
ATOM     31  C   UNL     1       5.046   5.343  16.680  0.00  0.00    +0.000 A 
ATOM     32  C   UNL     1       3.981   5.932  17.336  0.00  0.00    +0.000 A 
ATOM     33  C   UNL     1       3.730   7.390  17.553  0.00  0.00    +0.000 C 
ENDBRANCH  23  25
ENDBRANCH  15  22
ENDBRANCH   1  19
BRANCH  10  34
ATOM     34  C   UNL     1       7.157  15.001  22.174  0.00  0.00    +0.000 A 
ATOM     35  C   UNL     1       7.493  14.992  20.809  0.00  0.00    +0.000 A 
ATOM     36  C   UNL     1       8.822  15.010  20.368  0.00  0.00    +0.000 A 
ATOM     37  C   UNL     1       9.860  15.040  21.291  0.00  0.00    +0.000 A 
ATOM     38  C   UNL     1       9.563  15.055  22.649  0.00  0.00    +0.000 A 
ATOM     39  C   UNL     1       8.230  15.035  23.079  0.00  0.00    +0.000 A 
ENDBRANCH  10  34
TORSDOF 4
ENDMDL
MODEL 8
REMARK VINA RESULT:      -8.2      5.167      9.361
REMARK  Name = 
REMARK  4 active torsions:
REMARK  status: ('A' for Active; 'I' for Inactive)
REMARK    1  A    between atoms: C_2  and  C_13
REMARK    2  A    between atoms: N_3  and  C_4
REMARK    3  A    between atoms: C_17  and  N_18
REMARK    4  A    between atoms: N_27  and  C_28
REMARK                            x       y       z     vdW  Elec       q    Type
REMARK                         _______ _______ _______ _____ _____    ______ ____
ROOT
ATOM      1  N   UNL     1      10.390  15.349  17.377  0.00  0.00    +0.000 N 
ATOM      2  C   UNL     1       9.409  16.258  17.842  0.00  0.00    +0.000 A 
ATOM      3  C   UNL     1       9.710  17.598  17.861  0.00  0.00    +0.000 A 
ATOM      4  C   UNL     1       8.728  18.420  18.352  0.00  0.00    +0.000 A 
ATOM      5  N   UNL     1       7.518  17.980  18.744  0.00  0.00    +0.000 NA
ATOM      6  C   UNL     1       7.277  16.665  18.658  0.00  0.00    +0.000 A 
ATOM      7  N   UNL     1       6.054  16.173  19.047  0.00  0.00    +0.000 N 
ATOM      8  C   UNL     1       4.963  17.074  19.436  0.00  0.00    +0.000 C 
ATOM      9  C   UNL     1       3.786  17.016  18.437  0.00  0.00    +0.000 C 
ATOM     10  N   UNL     1       3.391  15.628  18.133  0.00  0.00    +0.000 N 
ATOM     11  C   UNL     1       4.502  14.765  17.687  0.00  0.00    +0.000 C 
ATOM     12  C   UNL     1       5.668  14.799  18.703  0.00  0.00    +0.000 C 
ATOM     13  N   UNL     1       8.208  15.798  18.236  0.00  0.00    +0.000 NA
ATOM     14  H   UNL     1      10.522  15.474  16.379  0.00  0.00    +0.000 HD
ENDROOT
BRANCH   1  19
ATOM     15  C   UNL     1      10.181  12.277  19.478  0.00  0.00    +0.000 A 
ATOM     16  C   UNL     1      10.902  11.367  18.704  0.00  0.00    +0.000 A 
ATOM     17  C   UNL     1      11.436  11.772  17.481  0.00  0.00    +0.000 A 
ATOM     18  C   UNL     1      11.250  13.084  17.033  0.00  0.00    +0.000 A 
ATOM     19  C   UNL     1      10.512  14.004  17.789  0.00  0.00    +0.000 A 
ATOM     20  C   UNL     1      10.011  13.591  19.030  0.00  0.00    +0.000 A 
BRANCH  15  22
ATOM     21  O   UNL     1       9.423  10.654  20.999  0.00  0.00    +0.000 OA
ATOM     22  C   UNL     1       9.633  11.844  20.786  0.00  0.00    +0.000 C 
ATOM     23  N   UNL     1       9.355  12.849  21.690  0.00  0.00    +0.000 N 
ATOM     24  H   UNL     1       9.496  13.816  21.424  0.00  0.00    +0.000 HD
BRANCH  23  25
ATOM     25  C   UNL     1       8.838  12.564  23.013  0.00  0.00    +0.000 C 
ATOM     26  C   UNL     1       8.461  13.844  23.799  0.00  0.00    +0.000 C 
ATOM     27  C   UNL     1       7.446  13.307  24.759  0.00  0.00    +0.000 A 
ATOM     28  C   UNL     1       6.986  13.882  25.931  0.00  0.00    +0.000 A 
ATOM     29  C   UNL     1       6.021  13.194  26.669  0.00  0.00    +0.000 A 
ATOM     30  C   UNL     1       5.521  11.959  26.223  0.00  0.00    +0.000 A 
ATOM     31  C   UNL     1       5.975  11.398  25.029  0.00  0.00    +0.000 A 
ATOM     32  C   UNL     1       6.940  12.081  24.312  0.00  0.00    +0.000 A 
ATOM     33  C   UNL     1       7.563  11.690  23.010  0.00  0.00    +0.000 C 
ENDBRANCH  23  25
ENDBRANCH  15  22
ENDBRANCH   1  19
BRANCH  10  34
ATOM     34  C   UNL     1       2.159  15.102  18.464  0.00  0.00    +0.000 A 
ATOM     35  C   UNL     1       1.077  15.938  18.793  0.00  0.00    +0.000 A 
ATOM     36  C   UNL     1      -0.174  15.426  19.160  0.00  0.00    +0.000 A 
ATOM     37  C   UNL     1      -0.378  14.054  19.206  0.00  0.00    +0.000 A 
ATOM     38  C   UNL     1       0.670  13.198  18.882  0.00  0.00    +0.000 A 
ATOM     39  C   UNL     1       1.918  13.721  18.518  0.00  0.00    +0.000 A 
ENDBRANCH  10  34
TORSDOF 4
ENDMDL
MODEL 9
REMARK VINA RESULT:      -8.2      1.917      2.710
REMARK  Name = 
REMARK  4 active torsions:
REMARK  status: ('A' for Active; 'I' for Inactive)
REMARK    1  A    between atoms: C_2  and  C_13
REMARK    2  A    between atoms: N_3  and  C_4
REMARK    3  A    between atoms: C_17  and  N_18
REMARK    4  A    between atoms: N_27  and  C_28
REMARK                            x       y       z     vdW  Elec       q    Type
REMARK                         _______ _______ _______ _____ _____    ______ ____
ROOT
ATOM      1  N   UNL     1      -0.797  11.353  21.909  0.00  0.00    +0.000 N 
ATOM      2  C   UNL     1      -0.491  12.691  22.256  0.00  0.00    +0.000 A 
ATOM      3  C   UNL     1      -1.307  13.343  23.149  0.00  0.00    +0.000 A 
ATOM      4  C   UNL     1      -0.972  14.645  23.417  0.00  0.00    +0.000 A 
ATOM      5  N   UNL     1       0.110  15.256  22.901  0.00  0.00    +0.000 NA
ATOM      6  C   UNL     1       0.887  14.547  22.071  0.00  0.00    +0.000 A 
ATOM      7  N   UNL     1       2.002  15.132  21.521  0.00  0.00    +0.000 N 
ATOM      8  C   UNL     1       2.430  16.477  21.924  0.00  0.00    +0.000 C 
ATOM      9  C   UNL     1       3.781  16.449  22.674  0.00  0.00    +0.000 C 
ATOM     10  N   UNL     1       4.790  15.645  21.960  0.00  0.00    +0.000 N 
ATOM     11  C   UNL     1       4.348  14.278  21.624  0.00  0.00    +0.000 C 
ATOM     12  C   UNL     1       3.011  14.307  20.845  0.00  0.00    +0.000 C 
ATOM     13  N   UNL     1       0.591  13.286  21.724  0.00  0.00    +0.000 NA
ATOM     14  H   UNL     1      -0.635  10.750  22.709  0.00  0.00    +0.000 HD
ENDROOT
BRANCH   1  19
ATOM     15  C   UNL     1       0.896   9.199  19.381  0.00  0.00    +0.000 A 
ATOM     16  C   UNL     1       0.290   9.635  18.202  0.00  0.00    +0.000 A 
ATOM     17  C   UNL     1      -0.691  10.625  18.255  0.00  0.00    +0.000 A 
ATOM     18  C   UNL     1      -1.063  11.180  19.483  0.00  0.00    +0.000 A 
ATOM     19  C   UNL     1      -0.479  10.740  20.678  0.00  0.00    +0.000 A 
ATOM     20  C   UNL     1       0.527   9.768  20.605  0.00  0.00    +0.000 A 
BRANCH  15  22
ATOM     21  O   UNL     1       2.187   7.464  20.298  0.00  0.00    +0.000 OA
ATOM     22  C   UNL     1       1.951   8.159  19.315  0.00  0.00    +0.000 C 
ATOM     23  N   UNL     1       2.640   8.070  18.123  0.00  0.00    +0.000 N 
ATOM     24  H   UNL     1       2.433   8.718  17.374  0.00  0.00    +0.000 HD
BRANCH  23  25
ATOM     25  C   UNL     1       3.680   7.082  17.915  0.00  0.00    +0.000 C 
ATOM     26  C   UNL     1       3.119   5.650  17.734  0.00  0.00    +0.000 C 
ATOM     27  C   UNL     1       4.221   5.002  16.957  0.00  0.00    +0.000 A 
ATOM     28  C   UNL     1       4.465   3.652  16.777  0.00  0.00    +0.000 A 
ATOM     29  C   UNL     1       5.562   3.277  15.997  0.00  0.00    +0.000 A 
ATOM     30  C   UNL     1       6.383   4.247  15.400  0.00  0.00    +0.000 A 
ATOM     31  C   UNL     1       6.117   5.606  15.569  0.00  0.00    +0.000 A 
ATOM     32  C   UNL     1       5.037   5.967  16.353  0.00  0.00    +0.000 A 
ATOM     33  C   UNL     1       4.550   7.346  16.665  0.00  0.00    +0.000 C 
ENDBRANCH  23  25
ENDBRANCH  15  22
ENDBRANCH   1  19
BRANCH  10  34
ATOM     34  C   UNL     1       5.947  16.179  21.430  0.00  0.00    +0.000 A 
ATOM     35  C   UNL     1       6.485  17.381  21.923  0.00  0.00    +0.000 A 
ATOM     36  C   UNL     1       7.641  17.957  21.381  0.00  0.00    +0.000 A 
ATOM     37  C   UNL     1       8.296  17.338  20.325  0.00  0.00    +0.000 A 
ATOM     38  C   UNL     1       7.793  16.145  19.816  0.00  0.00    +0.000 A 
ATOM     39  C   UNL     1       6.635  15.579  20.364  0.00  0.00    +0.000 A 
ENDBRANCH  10  34
TORSDOF 4
ENDMDL
