MODEL 1
REMARK VINA RESULT:      -8.2      0.000      0.000
REMARK  Name = 
REMARK  7 active torsions:
REMARK  status: ('A' for Active; 'I' for Inactive)
REMARK    1  A    between atoms: C_1  and  C_2
REMARK    2  A    between atoms: C_2  and  O_3
REMARK    3  A    between atoms: O_3  and  C_4
REMARK    4  A    between atoms: C_4  and  C_6
REMARK    5  A    between atoms: C_11  and  O_12
REMARK    6  A    between atoms: O_12  and  C_13
REMARK    7  A    between atoms: C_13  and  C_14
REMARK                            x       y       z     vdW  Elec       q    Type
REMARK                         _______ _______ _______ _____ _____    ______ ____
ROOT
ATOM      1  C   UNL     1       3.923   3.664  18.293  0.00  0.00    +0.000 A 
ATOM      2  C   UNL     1       4.057   4.707  17.461  0.00  0.00    +0.000 A 
ATOM      3  C   UNL     1       5.189   5.600  17.581  0.00  0.00    +0.000 A 
ATOM      4  C   UNL     1       5.366   6.658  16.691  0.00  0.00    +0.000 A 
ATOM      5  C   UNL     1       6.457   7.508  16.845  0.00  0.00    +0.000 A 
ATOM      6  C   UNL     1       7.355   7.336  17.906  0.00  0.00    +0.000 A 
ATOM      7  C   UNL     1       7.191   6.260  18.781  0.00  0.00    +0.000 A 
ATOM      8  C   UNL     1       6.104   5.405  18.605  0.00  0.00    +0.000 A 
ATOM      9  O   UNL     1       5.950   4.323  19.492  0.00  0.00    +0.000 OA
ATOM     10  C   UNL     1       4.914   3.392  19.356  0.00  0.00    +0.000 A 
ATOM     11  O   UNL     1       4.864   2.408  20.083  0.00  0.00    +0.000 OA
ENDROOT
BRANCH   1  12
ATOM     12  C   UNL     1       2.691   2.878  18.087  0.00  0.00    +0.000 C 
ATOM     13  O   UNL     1       2.646   1.863  17.405  0.00  0.00    +0.000 OA
BRANCH  12  14
ATOM     14  O   UNL     1       1.615   3.531  18.582  0.00  0.00    +0.000 OA
BRANCH  14  16
ATOM     15  C   UNL     1       1.248   3.290  20.923  0.00  0.00    +0.000 C 
ATOM     16  C   UNL     1       0.841   2.802  19.542  0.00  0.00    +0.000 C 
ENDBRANCH  14  16
ENDBRANCH  12  14
ENDBRANCH   1  12
BRANCH   6  17
ATOM     17  O   UNL     1       8.410   8.169  18.162  0.00  0.00    +0.000 OA
BRANCH  17  18
ATOM     18  C   UNL     1       8.149   9.559  17.946  0.00  0.00    +0.000 C 
BRANCH  18  19
ATOM     19  C   UNL     1       9.232  10.377  18.595  0.00  0.00    +0.000 A 
ATOM     20  C   UNL     1      10.262  10.935  17.827  0.00  0.00    +0.000 A 
ATOM     21  C   UNL     1      11.274  11.676  18.439  0.00  0.00    +0.000 A 
ATOM     22  C   UNL     1      11.260  11.867  19.820  0.00  0.00    +0.000 A 
ATOM     23  C   UNL     1      10.235  11.323  20.592  0.00  0.00    +0.000 A 
ATOM     24  C   UNL     1       9.227  10.580  19.982  0.00  0.00    +0.000 A 
ENDBRANCH  18  19
ENDBRANCH  17  18
ENDBRANCH   6  17
TORSDOF 6
ENDMDL
MODEL 2
REMARK VINA RESULT:      -8.1      4.457      7.550
REMARK  Name = 
REMARK  7 active torsions:
REMARK  status: ('A' for Active; 'I' for Inactive)
REMARK    1  A    between atoms: C_1  and  C_2
REMARK    2  A    between atoms: C_2  and  O_3
REMARK    3  A    between atoms: O_3  and  C_4
REMARK    4  A    between atoms: C_4  and  C_6
REMARK    5  A    between atoms: C_11  and  O_12
REMARK    6  A    between atoms: O_12  and  C_13
REMARK    7  A    between atoms: C_13  and  C_14
REMARK                            x       y       z     vdW  Elec       q    Type
REMARK                         _______ _______ _______ _____ _____    ______ ____
ROOT
ATOM      1  C   UNL     1       6.511   5.147  15.786  0.00  0.00    +0.000 A 
ATOM      2  C   UNL     1       5.368   5.846  15.736  0.00  0.00    +0.000 A 
ATOM      3  C   UNL     1       4.641   6.151  16.949  0.00  0.00    +0.000 A 
ATOM      4  C   UNL     1       3.479   6.920  16.915  0.00  0.00    +0.000 A 
ATOM      5  C   UNL     1       2.795   7.181  18.098  0.00  0.00    +0.000 A 
ATOM      6  C   UNL     1       3.238   6.646  19.314  0.00  0.00    +0.000 A 
ATOM      7  C   UNL     1       4.417   5.897  19.351  0.00  0.00    +0.000 A 
ATOM      8  C   UNL     1       5.103   5.658  18.160  0.00  0.00    +0.000 A 
ATOM      9  O   UNL     1       6.291   4.904  18.209  0.00  0.00    +0.000 OA
ATOM     10  C   UNL     1       7.063   4.660  17.068  0.00  0.00    +0.000 A 
ATOM     11  O   UNL     1       8.140   4.085  17.159  0.00  0.00    +0.000 OA
ENDROOT
BRANCH   1  12
ATOM     12  C   UNL     1       7.108   4.865  14.466  0.00  0.00    +0.000 C 
ATOM     13  O   UNL     1       7.889   5.621  13.904  0.00  0.00    +0.000 OA
BRANCH  12  14
ATOM     14  O   UNL     1       6.534   3.778  13.900  0.00  0.00    +0.000 OA
BRANCH  14  16
ATOM     15  C   UNL     1       5.190   3.305  11.991  0.00  0.00    +0.000 C 
ATOM     16  C   UNL     1       6.565   3.742  12.468  0.00  0.00    +0.000 C 
ENDBRANCH  14  16
ENDBRANCH  12  14
ENDBRANCH   1  12
BRANCH   6  17
ATOM     17  O   UNL     1       2.584   6.800  20.506  0.00  0.00    +0.000 OA
BRANCH  17  18
ATOM     18  C   UNL     1       1.314   6.145  20.588  0.00  0.00    +0.000 C 
BRANCH  18  19
ATOM     19  C   UNL     1       1.509   4.659  20.460  0.00  0.00    +0.000 A 
ATOM     20  C   UNL     1       1.096   3.982  19.305  0.00  0.00    +0.000 A 
ATOM     21  C   UNL     1       1.262   2.601  19.202  0.00  0.00    +0.000 A 
ATOM     22  C   UNL     1       1.847   1.889  20.250  0.00  0.00    +0.000 A 
ATOM     23  C   UNL     1       2.268   2.555  21.399  0.00  0.00    +0.000 A 
ATOM     24  C   UNL     1       2.099   3.933  21.504  0.00  0.00    +0.000 A 
ENDBRANCH  18  19
ENDBRANCH  17  18
ENDBRANCH   6  17
TORSDOF 6
ENDMDL
MODEL 3
REMARK VINA RESULT:      -7.9      1.150      1.888
REMARK  Name = 
REMARK  7 active torsions:
REMARK  status: ('A' for Active; 'I' for Inactive)
REMARK    1  A    between atoms: C_1  and  C_2
REMARK    2  A    between atoms: C_2  and  O_3
REMARK    3  A    between atoms: O_3  and  C_4
REMARK    4  A    between atoms: C_4  and  C_6
REMARK    5  A    between atoms: C_11  and  O_12
REMARK    6  A    between atoms: O_12  and  C_13
REMARK    7  A    between atoms: C_13  and  C_14
REMARK                            x       y       z     vdW  Elec       q    Type
REMARK                         _______ _______ _______ _____ _____    ______ ____
ROOT
ATOM      1  C   UNL     1       4.392   4.082  18.732  0.00  0.00    +0.000 A 
ATOM      2  C   UNL     1       5.654   4.288  19.131  0.00  0.00    +0.000 A 
ATOM      3  C   UNL     1       6.369   5.477  18.722  0.00  0.00    +0.000 A 
ATOM      4  C   UNL     1       7.664   5.727  19.172  0.00  0.00    +0.000 A 
ATOM      5  C   UNL     1       8.328   6.873  18.745  0.00  0.00    +0.000 A 
ATOM      6  C   UNL     1       7.726   7.755  17.839  0.00  0.00    +0.000 A 
ATOM      7  C   UNL     1       6.418   7.516  17.409  0.00  0.00    +0.000 A 
ATOM      8  C   UNL     1       5.757   6.374  17.859  0.00  0.00    +0.000 A 
ATOM      9  O   UNL     1       4.439   6.146  17.421  0.00  0.00    +0.000 OA
ATOM     10  C   UNL     1       3.689   5.049  17.862  0.00  0.00    +0.000 A 
ATOM     11  O   UNL     1       2.514   4.932  17.540  0.00  0.00    +0.000 OA
ENDROOT
BRANCH   1  12
ATOM     12  C   UNL     1       3.814   2.800  19.181  0.00  0.00    +0.000 C 
ATOM     13  O   UNL     1       3.662   1.835  18.445  0.00  0.00    +0.000 OA
BRANCH  12  14
ATOM     14  O   UNL     1       3.312   2.911  20.433  0.00  0.00    +0.000 OA
BRANCH  14  16
ATOM     15  C   UNL     1       1.088   3.747  20.589  0.00  0.00    +0.000 C 
ATOM     16  C   UNL     1       1.950   2.496  20.588  0.00  0.00    +0.000 C 
ENDBRANCH  14  16
ENDBRANCH  12  14
ENDBRANCH   1  12
BRANCH   6  17
ATOM     17  O   UNL     1       8.340   8.863  17.322  0.00  0.00    +0.000 OA
BRANCH  17  18
ATOM     18  C   UNL     1       7.999  10.097  17.962  0.00  0.00    +0.000 C 
BRANCH  18  19
ATOM     19  C   UNL     1       9.242  10.724  18.531  0.00  0.00    +0.000 A 
ATOM     20  C   UNL     1      10.263  11.177  17.687  0.00  0.00    +0.000 A 
ATOM     21  C   UNL     1      11.422  11.740  18.223  0.00  0.00    +0.000 A 
ATOM     22  C   UNL     1      11.564  11.857  19.606  0.00  0.00    +0.000 A 
ATOM     23  C   UNL     1      10.550  11.417  20.454  0.00  0.00    +0.000 A 
ATOM     24  C   UNL     1       9.395  10.852  19.919  0.00  0.00    +0.000 A 
ENDBRANCH  18  19
ENDBRANCH  17  18
ENDBRANCH   6  17
TORSDOF 6
ENDMDL
MODEL 4
REMARK VINA RESULT:      -7.7      4.781      7.422
REMARK  Name = 
REMARK  7 active torsions:
REMARK  status: ('A' for Active; 'I' for Inactive)
REMARK    1  A    between atoms: C_1  and  C_2
REMARK    2  A    between atoms: C_2  and  O_3
REMARK    3  A    between atoms: O_3  and  C_4
REMARK    4  A    between atoms: C_4  and  C_6
REMARK    5  A    between atoms: C_11  and  O_12
REMARK    6  A    between atoms: O_12  and  C_13
REMARK    7  A    between atoms: C_13  and  C_14
REMARK                            x       y       z     vdW  Elec       q    Type
REMARK                         _______ _______ _______ _____ _____    ______ ____
ROOT
ATOM      1  C   UNL     1       5.354   5.147  16.759  0.00  0.00    +0.000 A 
ATOM      2  C   UNL     1       4.833   4.534  17.832  0.00  0.00    +0.000 A 
ATOM      3  C   UNL     1       3.832   5.195  18.641  0.00  0.00    +0.000 A 
ATOM      4  C   UNL     1       3.247   4.549  19.728  0.00  0.00    +0.000 A 
ATOM      5  C   UNL     1       2.299   5.221  20.495  0.00  0.00    +0.000 A 
ATOM      6  C   UNL     1       1.959   6.549  20.211  0.00  0.00    +0.000 A 
ATOM      7  C   UNL     1       2.527   7.187  19.105  0.00  0.00    +0.000 A 
ATOM      8  C   UNL     1       3.461   6.497  18.335  0.00  0.00    +0.000 A 
ATOM      9  O   UNL     1       4.026   7.148  17.222  0.00  0.00    +0.000 OA
ATOM     10  C   UNL     1       4.935   6.510  16.369  0.00  0.00    +0.000 A 
ATOM     11  O   UNL     1       5.332   7.070  15.356  0.00  0.00    +0.000 OA
ENDROOT
BRANCH   1  12
ATOM     12  C   UNL     1       6.402   4.373  16.067  0.00  0.00    +0.000 C 
ATOM     13  O   UNL     1       7.588   4.428  16.365  0.00  0.00    +0.000 OA
BRANCH  12  14
ATOM     14  O   UNL     1       5.904   3.766  14.965  0.00  0.00    +0.000 OA
BRANCH  14  16
ATOM     15  C   UNL     1       5.852   3.332  12.624  0.00  0.00    +0.000 C 
ATOM     16  C   UNL     1       6.559   4.092  13.734  0.00  0.00    +0.000 C 
ENDBRANCH  14  16
ENDBRANCH  12  14
ENDBRANCH   1  12
BRANCH   6  17
ATOM     17  O   UNL     1       1.089   7.296  20.959  0.00  0.00    +0.000 OA
BRANCH  17  18
ATOM     18  C   UNL     1       1.684   8.391  21.664  0.00  0.00    +0.000 C 
BRANCH  18  19
ATOM     19  C   UNL     1       0.666   9.485  21.836  0.00  0.00    +0.000 A 
ATOM     20  C   UNL     1      -0.119   9.553  22.994  0.00  0.00    +0.000 A 
ATOM     21  C   UNL     1      -1.076  10.560  23.138  0.00  0.00    +0.000 A 
ATOM     22  C   UNL     1      -1.248  11.506  22.127  0.00  0.00    +0.000 A 
ATOM     23  C   UNL     1      -0.466  11.452  20.976  0.00  0.00    +0.000 A 
ATOM     24  C   UNL     1       0.486  10.445  20.830  0.00  0.00    +0.000 A 
ENDBRANCH  18  19
ENDBRANCH  17  18
ENDBRANCH   6  17
TORSDOF 6
ENDMDL
MODEL 5
REMARK VINA RESULT:      -7.6      5.720      8.052
REMARK  Name = 
REMARK  7 active torsions:
REMARK  status: ('A' for Active; 'I' for Inactive)
REMARK    1  A    between atoms: C_1  and  C_2
REMARK    2  A    between atoms: C_2  and  O_3
REMARK    3  A    between atoms: O_3  and  C_4
REMARK    4  A    between atoms: C_4  and  C_6
REMARK    5  A    between atoms: C_11  and  O_12
REMARK    6  A    between atoms: O_12  and  C_13
REMARK    7  A    between atoms: C_13  and  C_14
REMARK                            x       y       z     vdW  Elec       q    Type
REMARK                         _______ _______ _______ _____ _____    ______ ____
ROOT
ATOM      1  C   UNL     1       4.167   5.501  18.622  0.00  0.00    +0.000 A 
ATOM      2  C   UNL     1       3.386   5.947  19.615  0.00  0.00    +0.000 A 
ATOM      3  C   UNL     1       2.582   7.137  19.440  0.00  0.00    +0.000 A 
ATOM      4  C   UNL     1       1.728   7.582  20.447  0.00  0.00    +0.000 A 
ATOM      5  C   UNL     1       0.982   8.740  20.250  0.00  0.00    +0.000 A 
ATOM      6  C   UNL     1       1.110   9.484  19.071  0.00  0.00    +0.000 A 
ATOM      7  C   UNL     1       1.947   9.022  18.051  0.00  0.00    +0.000 A 
ATOM      8  C   UNL     1       2.675   7.851  18.254  0.00  0.00    +0.000 A 
ATOM      9  O   UNL     1       3.514   7.395  17.219  0.00  0.00    +0.000 OA
ATOM     10  C   UNL     1       4.242   6.204  17.323  0.00  0.00    +0.000 A 
ATOM     11  O   UNL     1       4.885   5.784  16.369  0.00  0.00    +0.000 OA
ENDROOT
BRANCH   1  12
ATOM     12  C   UNL     1       4.969   4.312  18.967  0.00  0.00    +0.000 C 
ATOM     13  O   UNL     1       6.193   4.307  18.988  0.00  0.00    +0.000 OA
BRANCH  12  14
ATOM     14  O   UNL     1       4.185   3.213  19.062  0.00  0.00    +0.000 OA
BRANCH  14  16
ATOM     15  C   UNL     1       2.314   2.233  17.963  0.00  0.00    +0.000 C 
ATOM     16  C   UNL     1       3.769   2.645  17.815  0.00  0.00    +0.000 C 
ENDBRANCH  14  16
ENDBRANCH  12  14
ENDBRANCH   1  12
BRANCH   6  17
ATOM     17  O   UNL     1       0.463  10.665  18.833  0.00  0.00    +0.000 OA
BRANCH  17  18
ATOM     18  C   UNL     1      -0.836  10.773  19.423  0.00  0.00    +0.000 C 
BRANCH  18  19
ATOM     19  C   UNL     1      -1.879  10.762  18.339  0.00  0.00    +0.000 A 
ATOM     20  C   UNL     1      -3.009  11.585  18.427  0.00  0.00    +0.000 A 
ATOM     21  C   UNL     1      -3.982  11.555  17.428  0.00  0.00    +0.000 A 
ATOM     22  C   UNL     1      -3.829  10.705  16.332  0.00  0.00    +0.000 A 
ATOM     23  C   UNL     1      -2.704   9.889  16.231  0.00  0.00    +0.000 A 
ATOM     24  C   UNL     1      -1.735   9.916  17.230  0.00  0.00    +0.000 A 
ENDBRANCH  18  19
ENDBRANCH  17  18
ENDBRANCH   6  17
TORSDOF 6
ENDMDL
MODEL 6
REMARK VINA RESULT:      -7.6      5.618      7.793
REMARK  Name = 
REMARK  7 active torsions:
REMARK  status: ('A' for Active; 'I' for Inactive)
REMARK    1  A    between atoms: C_1  and  C_2
REMARK    2  A    between atoms: C_2  and  O_3
REMARK    3  A    between atoms: O_3  and  C_4
REMARK    4  A    between atoms: C_4  and  C_6
REMARK    5  A    between atoms: C_11  and  O_12
REMARK    6  A    between atoms: O_12  and  C_13
REMARK    7  A    between atoms: C_13  and  C_14
REMARK                            x       y       z     vdW  Elec       q    Type
REMARK                         _______ _______ _______ _____ _____    ______ ____
ROOT
ATOM      1  C   UNL     1       3.686   5.031  19.002  0.00  0.00    +0.000 A 
ATOM      2  C   UNL     1       2.974   5.673  19.939  0.00  0.00    +0.000 A 
ATOM      3  C   UNL     1       2.360   6.950  19.647  0.00  0.00    +0.000 A 
ATOM      4  C   UNL     1       1.576   7.603  20.596  0.00  0.00    +0.000 A 
ATOM      5  C   UNL     1       1.014   8.838  20.287  0.00  0.00    +0.000 A 
ATOM      6  C   UNL     1       1.261   9.449  19.052  0.00  0.00    +0.000 A 
ATOM      7  C   UNL     1       2.025   8.781  18.092  0.00  0.00    +0.000 A 
ATOM      8  C   UNL     1       2.567   7.536  18.407  0.00  0.00    +0.000 A 
ATOM      9  O   UNL     1       3.334   6.872  17.431  0.00  0.00    +0.000 OA
ATOM     10  C   UNL     1       3.874   5.599  17.650  0.00  0.00    +0.000 A 
ATOM     11  O   UNL     1       4.452   5.007  16.748  0.00  0.00    +0.000 OA
ENDROOT
BRANCH   1  12
ATOM     12  C   UNL     1       4.298   3.769  19.463  0.00  0.00    +0.000 C 
ATOM     13  O   UNL     1       5.501   3.550  19.423  0.00  0.00    +0.000 OA
BRANCH  12  14
ATOM     14  O   UNL     1       3.347   2.847  19.741  0.00  0.00    +0.000 OA
BRANCH  14  16
ATOM     15  C   UNL     1       1.271   2.245  18.741  0.00  0.00    +0.000 C 
ATOM     16  C   UNL     1       2.783   2.183  18.604  0.00  0.00    +0.000 C 
ENDBRANCH  14  16
ENDBRANCH  12  14
ENDBRANCH   1  12
BRANCH   6  17
ATOM     17  O   UNL     1       0.801  10.689  18.702  0.00  0.00    +0.000 OA
BRANCH  17  18
ATOM     18  C   UNL     1      -0.404  11.095  19.360  0.00  0.00    +0.000 C 
BRANCH  18  19
ATOM     19  C   UNL     1      -1.568  10.916  18.424  0.00  0.00    +0.000 A 
ATOM     20  C   UNL     1      -1.488  10.022  17.349  0.00  0.00    +0.000 A 
ATOM     21  C   UNL     1      -2.565   9.877  16.473  0.00  0.00    +0.000 A 
ATOM     22  C   UNL     1      -3.729  10.620  16.670  0.00  0.00    +0.000 A 
ATOM     23  C   UNL     1      -3.821  11.505  17.742  0.00  0.00    +0.000 A 
ATOM     24  C   UNL     1      -2.745  11.654  18.614  0.00  0.00    +0.000 A 
ENDBRANCH  18  19
ENDBRANCH  17  18
ENDBRANCH   6  17
TORSDOF 6
ENDMDL
MODEL 7
REMARK VINA RESULT:      -7.6      1.001      1.393
REMARK  Name = 
REMARK  7 active torsions:
REMARK  status: ('A' for Active; 'I' for Inactive)
REMARK    1  A    between atoms: C_1  and  C_2
REMARK    2  A    between atoms: C_2  and  O_3
REMARK    3  A    between atoms: O_3  and  C_4
REMARK    4  A    between atoms: C_4  and  C_6
REMARK    5  A    between atoms: C_11  and  O_12
REMARK    6  A    between atoms: O_12  and  C_13
REMARK    7  A    between atoms: C_13  and  C_14
REMARK                            x       y       z     vdW  Elec       q    Type
REMARK                         _______ _______ _______ _____ _____    ______ ____
ROOT
ATOM      1  C   UNL     1       3.800   3.253  18.373  0.00  0.00    +0.000 A 
ATOM      2  C   UNL     1       3.760   4.183  17.408  0.00  0.00    +0.000 A 
ATOM      3  C   UNL     1       4.807   5.176  17.302  0.00  0.00    +0.000 A 
ATOM      4  C   UNL     1       4.803   6.116  16.273  0.00  0.00    +0.000 A 
ATOM      5  C   UNL     1       5.817   7.067  16.210  0.00  0.00    +0.000 A 
ATOM      6  C   UNL     1       6.817   7.115  17.190  0.00  0.00    +0.000 A 
ATOM      7  C   UNL     1       6.834   6.155  18.205  0.00  0.00    +0.000 A 
ATOM      8  C   UNL     1       5.823   5.197  18.247  0.00  0.00    +0.000 A 
ATOM      9  O   UNL     1       5.852   4.233  19.273  0.00  0.00    +0.000 OA
ATOM     10  C   UNL     1       4.901   3.209  19.358  0.00  0.00    +0.000 A 
ATOM     11  O   UNL     1       5.010   2.331  20.204  0.00  0.00    +0.000 OA
ENDROOT
BRANCH   1  12
ATOM     12  C   UNL     1       2.636   2.346  18.390  0.00  0.00    +0.000 C 
ATOM     13  O   UNL     1       2.007   2.038  17.387  0.00  0.00    +0.000 OA
BRANCH  12  14
ATOM     14  O   UNL     1       2.259   2.071  19.661  0.00  0.00    +0.000 OA
BRANCH  14  16
ATOM     15  C   UNL     1       1.815   3.221  21.698  0.00  0.00    +0.000 C 
ATOM     16  C   UNL     1       1.372   3.024  20.258  0.00  0.00    +0.000 C 
ENDBRANCH  14  16
ENDBRANCH  12  14
ENDBRANCH   1  12
BRANCH   6  17
ATOM     17  O   UNL     1       7.805   8.059  17.234  0.00  0.00    +0.000 OA
BRANCH  17  18
ATOM     18  C   UNL     1       8.438   8.214  18.509  0.00  0.00    +0.000 C 
BRANCH  18  19
ATOM     19  C   UNL     1       8.778   9.664  18.725  0.00  0.00    +0.000 A 
ATOM     20  C   UNL     1       9.264  10.105  19.962  0.00  0.00    +0.000 A 
ATOM     21  C   UNL     1       9.558  11.455  20.161  0.00  0.00    +0.000 A 
ATOM     22  C   UNL     1       9.373  12.369  19.124  0.00  0.00    +0.000 A 
ATOM     23  C   UNL     1       8.898  11.937  17.887  0.00  0.00    +0.000 A 
ATOM     24  C   UNL     1       8.600  10.591  17.689  0.00  0.00    +0.000 A 
ENDBRANCH  18  19
ENDBRANCH  17  18
ENDBRANCH   6  17
TORSDOF 6
ENDMDL
MODEL 8
REMARK VINA RESULT:      -7.5      4.470      7.779
REMARK  Name = 
REMARK  7 active torsions:
REMARK  status: ('A' for Active; 'I' for Inactive)
REMARK    1  A    between atoms: C_1  and  C_2
REMARK    2  A    between atoms: C_2  and  O_3
REMARK    3  A    between atoms: O_3  and  C_4
REMARK    4  A    between atoms: C_4  and  C_6
REMARK    5  A    between atoms: C_11  and  O_12
REMARK    6  A    between atoms: O_12  and  C_13
REMARK    7  A    between atoms: C_13  and  C_14
REMARK                            x       y       z     vdW  Elec       q    Type
REMARK                         _______ _______ _______ _____ _____    ______ ____
ROOT
ATOM      1  C   UNL     1       6.476   4.872  15.988  0.00  0.00    +0.000 A 
ATOM      2  C   UNL     1       5.215   5.324  16.020  0.00  0.00    +0.000 A 
ATOM      3  C   UNL     1       4.522   5.480  17.280  0.00  0.00    +0.000 A 
ATOM      4  C   UNL     1       3.229   5.997  17.330  0.00  0.00    +0.000 A 
ATOM      5  C   UNL     1       2.587   6.118  18.559  0.00  0.00    +0.000 A 
ATOM      6  C   UNL     1       3.208   5.688  19.738  0.00  0.00    +0.000 A 
ATOM      7  C   UNL     1       4.515   5.195  19.689  0.00  0.00    +0.000 A 
ATOM      8  C   UNL     1       5.154   5.096  18.455  0.00  0.00    +0.000 A 
ATOM      9  O   UNL     1       6.471   4.599  18.418  0.00  0.00    +0.000 OA
ATOM     10  C   UNL     1       7.199   4.512  17.226  0.00  0.00    +0.000 A 
ATOM     11  O   UNL     1       8.374   4.169  17.241  0.00  0.00    +0.000 OA
ENDROOT
BRANCH   1  12
ATOM     12  C   UNL     1       7.030   4.712  14.629  0.00  0.00    +0.000 C 
ATOM     13  O   UNL     1       7.817   5.501  14.125  0.00  0.00    +0.000 OA
BRANCH  12  14
ATOM     14  O   UNL     1       6.407   3.707  13.971  0.00  0.00    +0.000 OA
BRANCH  14  16
ATOM     15  C   UNL     1       5.260   3.271  11.930  0.00  0.00    +0.000 C 
ATOM     16  C   UNL     1       6.579   3.703  12.549  0.00  0.00    +0.000 C 
ENDBRANCH  14  16
ENDBRANCH  12  14
ENDBRANCH   1  12
BRANCH   6  17
ATOM     17  O   UNL     1       2.616   5.711  20.971  0.00  0.00    +0.000 OA
BRANCH  17  18
ATOM     18  C   UNL     1       2.331   4.424  21.529  0.00  0.00    +0.000 C 
BRANCH  18  19
ATOM     19  C   UNL     1       2.041   3.452  20.419  0.00  0.00    +0.000 A 
ATOM     20  C   UNL     1       0.779   3.418  19.811  0.00  0.00    +0.000 A 
ATOM     21  C   UNL     1       0.511   2.499  18.796  0.00  0.00    +0.000 A 
ATOM     22  C   UNL     1       1.504   1.613  18.379  0.00  0.00    +0.000 A 
ATOM     23  C   UNL     1       2.765   1.644  18.971  0.00  0.00    +0.000 A 
ATOM     24  C   UNL     1       3.031   2.559  19.988  0.00  0.00    +0.000 A 
ENDBRANCH  18  19
ENDBRANCH  17  18
ENDBRANCH   6  17
TORSDOF 6
ENDMDL
MODEL 9
REMARK VINA RESULT:      -7.5      5.636      7.806
REMARK  Name = 
REMARK  7 active torsions:
REMARK  status: ('A' for Active; 'I' for Inactive)
REMARK    1  A    between atoms: C_1  and  C_2
REMARK    2  A    between atoms: C_2  and  O_3
REMARK    3  A    between atoms: O_3  and  C_4
REMARK    4  A    between atoms: C_4  and  C_6
REMARK    5  A    between atoms: C_11  and  O_12
REMARK    6  A    between atoms: O_12  and  C_13
REMARK    7  A    between atoms: C_13  and  C_14
REMARK                            x       y       z     vdW  Elec       q    Type
REMARK                         _______ _______ _______ _____ _____    ______ ____
ROOT
ATOM      1  C   UNL     1       3.262   5.001  19.326  0.00  0.00    +0.000 A 
ATOM      2  C   UNL     1       3.260   6.019  18.453  0.00  0.00    +0.000 A 
ATOM      3  C   UNL     1       2.562   7.248  18.760  0.00  0.00    +0.000 A 
ATOM      4  C   UNL     1       2.596   8.330  17.883  0.00  0.00    +0.000 A 
ATOM      5  C   UNL     1       1.899   9.492  18.202  0.00  0.00    +0.000 A 
ATOM      6  C   UNL     1       1.134   9.570  19.372  0.00  0.00    +0.000 A 
ATOM      7  C   UNL     1       1.123   8.494  20.263  0.00  0.00    +0.000 A 
ATOM      8  C   UNL     1       1.840   7.343  19.940  0.00  0.00    +0.000 A 
ATOM      9  O   UNL     1       1.823   6.265  20.846  0.00  0.00    +0.000 OA
ATOM     10  C   UNL     1       2.553   5.093  20.620  0.00  0.00    +0.000 A 
ATOM     11  O   UNL     1       2.596   4.215  21.472  0.00  0.00    +0.000 OA
ENDROOT
BRANCH   1  12
ATOM     12  C   UNL     1       3.967   3.795  18.851  0.00  0.00    +0.000 C 
ATOM     13  O   UNL     1       5.057   3.439  19.277  0.00  0.00    +0.000 OA
BRANCH  12  14
ATOM     14  O   UNL     1       3.344   3.267  17.771  0.00  0.00    +0.000 OA
BRANCH  14  16
ATOM     15  C   UNL     1       1.401   2.191  18.628  0.00  0.00    +0.000 C 
ATOM     16  C   UNL     1       2.753   1.978  17.970  0.00  0.00    +0.000 C 
ENDBRANCH  14  16
ENDBRANCH  12  14
ENDBRANCH   1  12
BRANCH   6  17
ATOM     17  O   UNL     1       0.369  10.650  19.720  0.00  0.00    +0.000 OA
BRANCH  17  18
ATOM     18  C   UNL     1      -0.042  11.478  18.627  0.00  0.00    +0.000 C 
BRANCH  18  19
ATOM     19  C   UNL     1      -1.477  11.180  18.287  0.00  0.00    +0.000 A 
ATOM     20  C   UNL     1      -2.512  11.953  18.827  0.00  0.00    +0.000 A 
ATOM     21  C   UNL     1      -3.842  11.659  18.524  0.00  0.00    +0.000 A 
ATOM     22  C   UNL     1      -4.144  10.594  17.676  0.00  0.00    +0.000 A 
ATOM     23  C   UNL     1      -3.120   9.824  17.126  0.00  0.00    +0.000 A 
ATOM     24  C   UNL     1      -1.793  10.116  17.432  0.00  0.00    +0.000 A 
ENDBRANCH  18  19
ENDBRANCH  17  18
ENDBRANCH   6  17
TORSDOF 6
ENDMDL
