MODEL 1
REMARK VINA RESULT:      -8.2      0.000      0.000
REMARK  Name = 
REMARK  11 active torsions:
REMARK  status: ('A' for Active; 'I' for Inactive)
REMARK    1  A    between atoms: C_1  and  O_2
REMARK    2  A    between atoms: O_2  and  C_3
REMARK    3  A    between atoms: C_6  and  N_7
REMARK    4  A    between atoms: N_7  and  C_8
REMARK    5  A    between atoms: C_9  and  C_11
REMARK    6  A    between atoms: C_11  and  C_12
REMARK    7  A    between atoms: C_12  and  C_13
REMARK    8  A    between atoms: N_15  and  C_16
REMARK    9  A    between atoms: C_29  and  C_30
REMARK   10  A    between atoms: C_33  and  O_34
REMARK   11  A    between atoms: O_34  and  C_35
REMARK                            x       y       z     vdW  Elec       q    Type
REMARK                         _______ _______ _______ _____ _____    ______ ____
ROOT
ATOM      1  C   UNL     1       1.682   5.676  20.496  0.00  0.00    +0.000 C 
ATOM      2  O   UNL     1       0.897   5.340  19.621  0.00  0.00    +0.000 OA
ATOM      3  N   UNL     1       2.035   6.986  20.802  0.00  0.00    +0.000 N 
ATOM      4  H   UNL     1       2.690   7.128  21.553  0.00  0.00    +0.000 HD
ENDROOT
BRANCH   3   5
ATOM      5  C   UNL     1       1.538   8.180  20.214  0.00  0.00    +0.000 A 
ATOM      6  C   UNL     1       1.780   8.547  18.892  0.00  0.00    +0.000 A 
ATOM      7  C   UNL     1       1.280   9.747  18.400  0.00  0.00    +0.000 A 
ATOM      8  C   UNL     1       0.480  10.590  19.170  0.00  0.00    +0.000 A 
ATOM      9  N   UNL     1       0.185  11.811  18.711  0.00  0.00    +0.000 NA
ATOM     10  C   UNL     1      -0.556  12.602  19.503  0.00  0.00    +0.000 A 
ATOM     11  N   UNL     1      -0.028  13.801  19.921  0.00  0.00    +0.000 N 
ATOM     12  C   UNL     1      -0.838  14.813  20.583  0.00  0.00    +0.000 C 
ATOM     13  C   UNL     1      -0.330  16.177  20.089  0.00  0.00    +0.000 C 
ATOM     14  O   UNL     1       1.103  16.338  20.167  0.00  0.00    +0.000 OA
ATOM     15  C   UNL     1       1.843  15.228  19.612  0.00  0.00    +0.000 C 
ATOM     16  C   UNL     1       1.397  13.909  20.234  0.00  0.00    +0.000 C 
ATOM     17  C   UNL     1      -1.470  12.003  20.319  0.00  0.00    +0.000 A 
ATOM     18  C   UNL     1      -0.829  11.062  21.109  0.00  0.00    +0.000 A 
ATOM     19  C   UNL     1      -0.808  11.452  22.563  0.00  0.00    +0.000 C 
ATOM     20  C   UNL     1       0.118  10.200  20.473  0.00  0.00    +0.000 A 
ATOM     21  C   UNL     1       0.738   9.032  21.011  0.00  0.00    +0.000 A 
ENDBRANCH   3   5
BRANCH   1  22
ATOM     22  C   UNL     1       2.406   4.597  21.320  0.00  0.00    +0.000 C 
BRANCH  22  23
ATOM     23  C   UNL     1       3.352   3.680  20.539  0.00  0.00    +0.000 C 
BRANCH  23  26
ATOM     24  N   UNL     1       4.505   3.539  18.344  0.00  0.00    +0.000 N 
ATOM     25  C   UNL     1       4.265   2.103  18.354  0.00  0.00    +0.000 C 
ATOM     26  C   UNL     1       4.094   4.382  19.393  0.00  0.00    +0.000 C 
ATOM     27  O   UNL     1       4.374   5.576  19.477  0.00  0.00    +0.000 OA
BRANCH  24  31
ATOM     28  C   UNL     1       6.826   4.949  15.046  0.00  0.00    +0.000 A 
ATOM     29  C   UNL     1       5.472   4.667  14.919  0.00  0.00    +0.000 A 
ATOM     30  C   UNL     1       4.712   4.238  16.005  0.00  0.00    +0.000 A 
ATOM     31  C   UNL     1       5.308   4.054  17.267  0.00  0.00    +0.000 A 
ATOM     32  C   UNL     1       6.670   4.381  17.417  0.00  0.00    +0.000 A 
ATOM     33  C   UNL     1       7.416   4.817  16.304  0.00  0.00    +0.000 A 
BRANCH  28  35
ATOM     34  C   UNL     1       7.314   4.556  12.745  0.00  0.00    +0.000 C 
ATOM     35  O   UNL     1       7.441   5.376  13.901  0.00  0.00    +0.000 OA
ENDBRANCH  28  35
BRANCH  32  36
ATOM     36  O   UNL     1       7.164   4.385  18.699  0.00  0.00    +0.000 OA
ATOM     37  C   UNL     1       7.725   5.608  19.154  0.00  0.00    +0.000 C 
ENDBRANCH  32  36
ENDBRANCH  24  31
ENDBRANCH  23  26
ENDBRANCH  22  23
ENDBRANCH   1  22
TORSDOF 7
ENDMDL
MODEL 2
REMARK VINA RESULT:      -8.2      1.193      1.327
REMARK  Name = 
REMARK  11 active torsions:
REMARK  status: ('A' for Active; 'I' for Inactive)
REMARK    1  A    between atoms: C_1  and  O_2
REMARK    2  A    between atoms: O_2  and  C_3
REMARK    3  A    between atoms: C_6  and  N_7
REMARK    4  A    between atoms: N_7  and  C_8
REMARK    5  A    between atoms: C_9  and  C_11
REMARK    6  A    between atoms: C_11  and  C_12
REMARK    7  A    between atoms: C_12  and  C_13
REMARK    8  A    between atoms: N_15  and  C_16
REMARK    9  A    between atoms: C_29  and  C_30
REMARK   10  A    between atoms: C_33  and  O_34
REMARK   11  A    between atoms: O_34  and  C_35
REMARK                            x       y       z     vdW  Elec       q    Type
REMARK                         _______ _______ _______ _____ _____    ______ ____
ROOT
ATOM      1  C   UNL     1       1.744   4.796  19.883  0.00  0.00    +0.000 C 
ATOM      2  O   UNL     1       1.282   4.666  18.759  0.00  0.00    +0.000 OA
ATOM      3  N   UNL     1       1.973   6.009  20.524  0.00  0.00    +0.000 N 
ATOM      4  H   UNL     1       2.352   5.979  21.456  0.00  0.00    +0.000 HD
ENDROOT
BRANCH   3   5
ATOM      5  C   UNL     1       1.686   7.315  20.043  0.00  0.00    +0.000 A 
ATOM      6  C   UNL     1       2.102   7.788  18.800  0.00  0.00    +0.000 A 
ATOM      7  C   UNL     1       1.802   9.089  18.415  0.00  0.00    +0.000 A 
ATOM      8  C   UNL     1       1.037   9.941  19.208  0.00  0.00    +0.000 A 
ATOM      9  N   UNL     1       0.938  11.233  18.875  0.00  0.00    +0.000 NA
ATOM     10  C   UNL     1       0.223  12.025  19.689  0.00  0.00    +0.000 A 
ATOM     11  N   UNL     1       0.847  13.091  20.292  0.00  0.00    +0.000 N 
ATOM     12  C   UNL     1       0.102  14.123  20.998  0.00  0.00    +0.000 C 
ATOM     13  C   UNL     1       0.818  15.455  20.716  0.00  0.00    +0.000 C 
ATOM     14  O   UNL     1       2.244  15.416  20.936  0.00  0.00    +0.000 OA
ATOM     15  C   UNL     1       2.898  14.286  20.318  0.00  0.00    +0.000 C 
ATOM     16  C   UNL     1       2.236  12.976  20.736  0.00  0.00    +0.000 C 
ATOM     17  C   UNL     1      -0.834  11.465  20.345  0.00  0.00    +0.000 A 
ATOM     18  C   UNL     1      -0.394  10.369  21.070  0.00  0.00    +0.000 A 
ATOM     19  C   UNL     1      -0.473  10.594  22.557  0.00  0.00    +0.000 C 
ATOM     20  C   UNL     1       0.502   9.463  20.419  0.00  0.00    +0.000 A 
ATOM     21  C   UNL     1       0.919   8.173  20.864  0.00  0.00    +0.000 A 
ENDBRANCH   3   5
BRANCH   1  22
ATOM     22  C   UNL     1       2.170   3.549  20.678  0.00  0.00    +0.000 C 
BRANCH  22  23
ATOM     23  C   UNL     1       3.673   3.257  20.711  0.00  0.00    +0.000 C 
BRANCH  23  26
ATOM     24  N   UNL     1       4.952   4.284  18.845  0.00  0.00    +0.000 N 
ATOM     25  C   UNL     1       4.987   5.526  19.604  0.00  0.00    +0.000 C 
ATOM     26  C   UNL     1       4.312   3.124  19.320  0.00  0.00    +0.000 C 
ATOM     27  O   UNL     1       4.162   2.094  18.667  0.00  0.00    +0.000 OA
BRANCH  24  31
ATOM     28  C   UNL     1       6.447   4.273  14.843  0.00  0.00    +0.000 A 
ATOM     29  C   UNL     1       5.087   4.198  15.115  0.00  0.00    +0.000 A 
ATOM     30  C   UNL     1       4.602   4.233  16.420  0.00  0.00    +0.000 A 
ATOM     31  C   UNL     1       5.489   4.324  17.510  0.00  0.00    +0.000 A 
ATOM     32  C   UNL     1       6.867   4.447  17.243  0.00  0.00    +0.000 A 
ATOM     33  C   UNL     1       7.331   4.412  15.913  0.00  0.00    +0.000 A 
BRANCH  28  35
ATOM     34  C   UNL     1       5.902   3.541  12.639  0.00  0.00    +0.000 C 
ATOM     35  O   UNL     1       6.777   4.242  13.515  0.00  0.00    +0.000 OA
ENDBRANCH  28  35
BRANCH  32  36
ATOM     36  O   UNL     1       7.677   4.738  18.313  0.00  0.00    +0.000 OA
ATOM     37  C   UNL     1       8.001   6.107  18.505  0.00  0.00    +0.000 C 
ENDBRANCH  32  36
ENDBRANCH  24  31
ENDBRANCH  23  26
ENDBRANCH  22  23
ENDBRANCH   1  22
TORSDOF 7
ENDMDL
MODEL 3
REMARK VINA RESULT:      -8.1      6.659      8.804
REMARK  Name = 
REMARK  11 active torsions:
REMARK  status: ('A' for Active; 'I' for Inactive)
REMARK    1  A    between atoms: C_1  and  O_2
REMARK    2  A    between atoms: O_2  and  C_3
REMARK    3  A    between atoms: C_6  and  N_7
REMARK    4  A    between atoms: N_7  and  C_8
REMARK    5  A    between atoms: C_9  and  C_11
REMARK    6  A    between atoms: C_11  and  C_12
REMARK    7  A    between atoms: C_12  and  C_13
REMARK    8  A    between atoms: N_15  and  C_16
REMARK    9  A    between atoms: C_29  and  C_30
REMARK   10  A    between atoms: C_33  and  O_34
REMARK   11  A    between atoms: O_34  and  C_35
REMARK                            x       y       z     vdW  Elec       q    Type
REMARK                         _______ _______ _______ _____ _____    ______ ____
ROOT
ATOM      1  C   UNL     1       8.442   9.220  18.182  0.00  0.00    +0.000 C 
ATOM      2  O   UNL     1       9.030   8.691  19.114  0.00  0.00    +0.000 OA
ATOM      3  N   UNL     1       8.616  10.535  17.763  0.00  0.00    +0.000 N 
ATOM      4  H   UNL     1       8.074  10.846  16.974  0.00  0.00    +0.000 HD
ENDROOT
BRANCH   3   5
ATOM      5  C   UNL     1       9.518  11.501  18.281  0.00  0.00    +0.000 A 
ATOM      6  C   UNL     1      10.644  11.178  19.037  0.00  0.00    +0.000 A 
ATOM      7  C   UNL     1      11.463  12.186  19.531  0.00  0.00    +0.000 A 
ATOM      8  C   UNL     1      11.238  13.532  19.248  0.00  0.00    +0.000 A 
ATOM      9  N   UNL     1      11.943  14.464  19.899  0.00  0.00    +0.000 NA
ATOM     10  C   UNL     1      11.665  15.748  19.623  0.00  0.00    +0.000 A 
ATOM     11  N   UNL     1      11.230  16.565  20.640  0.00  0.00    +0.000 N 
ATOM     12  C   UNL     1      11.129  18.008  20.482  0.00  0.00    +0.000 C 
ATOM     13  C   UNL     1      11.538  18.629  21.827  0.00  0.00    +0.000 C 
ATOM     14  O   UNL     1      10.873  18.052  22.971  0.00  0.00    +0.000 OA
ATOM     15  C   UNL     1      10.895  16.607  22.989  0.00  0.00    +0.000 C 
ATOM     16  C   UNL     1      10.351  16.037  21.683  0.00  0.00    +0.000 C 
ATOM     17  C   UNL     1      11.250  16.047  18.359  0.00  0.00    +0.000 A 
ATOM     18  C   UNL     1      10.139  15.279  18.049  0.00  0.00    +0.000 A 
ATOM     19  C   UNL     1       8.887  16.106  17.918  0.00  0.00    +0.000 C 
ATOM     20  C   UNL     1      10.179  13.891  18.394  0.00  0.00    +0.000 A 
ATOM     21  C   UNL     1       9.270  12.864  17.996  0.00  0.00    +0.000 A 
ENDBRANCH   3   5
BRANCH   1  22
ATOM     22  C   UNL     1       7.376   8.425  17.408  0.00  0.00    +0.000 C 
BRANCH  22  23
ATOM     23  C   UNL     1       7.624   6.919  17.281  0.00  0.00    +0.000 C 
BRANCH  23  26
ATOM     24  N   UNL     1       5.478   5.723  16.914  0.00  0.00    +0.000 N 
ATOM     25  C   UNL     1       5.498   6.190  15.535  0.00  0.00    +0.000 C 
ATOM     26  C   UNL     1       6.486   6.052  17.840  0.00  0.00    +0.000 C 
ATOM     27  O   UNL     1       6.451   5.774  19.036  0.00  0.00    +0.000 OA
BRANCH  24  31
ATOM     28  C   UNL     1       1.989   3.527  18.034  0.00  0.00    +0.000 A 
ATOM     29  C   UNL     1       3.113   2.898  17.517  0.00  0.00    +0.000 A 
ATOM     30  C   UNL     1       4.260   3.614  17.183  0.00  0.00    +0.000 A 
ATOM     31  C   UNL     1       4.301   5.013  17.340  0.00  0.00    +0.000 A 
ATOM     32  C   UNL     1       3.183   5.655  17.907  0.00  0.00    +0.000 A 
ATOM     33  C   UNL     1       2.036   4.907  18.240  0.00  0.00    +0.000 A 
BRANCH  28  35
ATOM     34  C   UNL     1       0.368   2.808  19.629  0.00  0.00    +0.000 C 
ATOM     35  O   UNL     1       0.942   2.697  18.331  0.00  0.00    +0.000 OA
ENDBRANCH  28  35
BRANCH  32  36
ATOM     36  O   UNL     1       3.335   6.980  18.233  0.00  0.00    +0.000 OA
ATOM     37  C   UNL     1       2.140   7.736  18.374  0.00  0.00    +0.000 C 
ENDBRANCH  32  36
ENDBRANCH  24  31
ENDBRANCH  23  26
ENDBRANCH  22  23
ENDBRANCH   1  22
TORSDOF 7
ENDMDL
MODEL 4
REMARK VINA RESULT:      -7.9      1.189      1.331
REMARK  Name = 
REMARK  11 active torsions:
REMARK  status: ('A' for Active; 'I' for Inactive)
REMARK    1  A    between atoms: C_1  and  O_2
REMARK    2  A    between atoms: O_2  and  C_3
REMARK    3  A    between atoms: C_6  and  N_7
REMARK    4  A    between atoms: N_7  and  C_8
REMARK    5  A    between atoms: C_9  and  C_11
REMARK    6  A    between atoms: C_11  and  C_12
REMARK    7  A    between atoms: C_12  and  C_13
REMARK    8  A    between atoms: N_15  and  C_16
REMARK    9  A    between atoms: C_29  and  C_30
REMARK   10  A    between atoms: C_33  and  O_34
REMARK   11  A    between atoms: O_34  and  C_35
REMARK                            x       y       z     vdW  Elec       q    Type
REMARK                         _______ _______ _______ _____ _____    ______ ____
ROOT
ATOM      1  C   UNL     1       2.269   5.170  20.338  0.00  0.00    +0.000 C 
ATOM      2  O   UNL     1       1.086   4.893  20.206  0.00  0.00    +0.000 OA
ATOM      3  N   UNL     1       2.842   6.407  20.065  0.00  0.00    +0.000 N 
ATOM      4  H   UNL     1       3.831   6.507  20.224  0.00  0.00    +0.000 HD
ENDROOT
BRANCH   3   5
ATOM      5  C   UNL     1       2.188   7.592  19.634  0.00  0.00    +0.000 A 
ATOM      6  C   UNL     1       2.272   8.090  18.334  0.00  0.00    +0.000 A 
ATOM      7  C   UNL     1       1.623   9.272  17.999  0.00  0.00    +0.000 A 
ATOM      8  C   UNL     1       0.826   9.966  18.907  0.00  0.00    +0.000 A 
ATOM      9  N   UNL     1       0.381  11.186  18.589  0.00  0.00    +0.000 NA
ATOM     10  C   UNL     1      -0.351  11.833  19.509  0.00  0.00    +0.000 A 
ATOM     11  N   UNL     1       0.104  13.039  19.989  0.00  0.00    +0.000 N 
ATOM     12  C   UNL     1      -0.729  13.908  20.807  0.00  0.00    +0.000 C 
ATOM     13  C   UNL     1      -0.394  15.352  20.398  0.00  0.00    +0.000 C 
ATOM     14  O   UNL     1       1.020  15.645  20.370  0.00  0.00    +0.000 OA
ATOM     15  C   UNL     1       1.803  14.662  19.655  0.00  0.00    +0.000 C 
ATOM     16  C   UNL     1       1.536  13.258  20.189  0.00  0.00    +0.000 C 
ATOM     17  C   UNL     1      -1.128  11.082  20.341  0.00  0.00    +0.000 A 
ATOM     18  C   UNL     1      -0.335  10.145  20.985  0.00  0.00    +0.000 A 
ATOM     19  C   UNL     1      -0.215  10.413  22.462  0.00  0.00    +0.000 C 
ATOM     20  C   UNL     1       0.623   9.435  20.195  0.00  0.00    +0.000 A 
ATOM     21  C   UNL     1       1.392   8.293  20.570  0.00  0.00    +0.000 A 
ENDBRANCH   3   5
BRANCH   1  22
ATOM     22  C   UNL     1       3.257   4.080  20.791  0.00  0.00    +0.000 C 
BRANCH  22  23
ATOM     23  C   UNL     1       3.625   3.030  19.739  0.00  0.00    +0.000 C 
BRANCH  23  26
ATOM     24  N   UNL     1       4.116   3.812  17.433  0.00  0.00    +0.000 N 
ATOM     25  C   UNL     1       2.706   3.641  17.116  0.00  0.00    +0.000 C 
ATOM     26  C   UNL     1       4.648   3.519  18.703  0.00  0.00    +0.000 C 
ATOM     27  O   UNL     1       5.845   3.542  18.979  0.00  0.00    +0.000 OA
BRANCH  24  31
ATOM     28  C   UNL     1       6.757   4.712  14.198  0.00  0.00    +0.000 A 
ATOM     29  C   UNL     1       5.953   3.580  14.191  0.00  0.00    +0.000 A 
ATOM     30  C   UNL     1       5.070   3.307  15.233  0.00  0.00    +0.000 A 
ATOM     31  C   UNL     1       4.986   4.169  16.344  0.00  0.00    +0.000 A 
ATOM     32  C   UNL     1       5.765   5.343  16.339  0.00  0.00    +0.000 A 
ATOM     33  C   UNL     1       6.647   5.598  15.270  0.00  0.00    +0.000 A 
BRANCH  28  35
ATOM     34  C   UNL     1       8.463   5.963  13.095  0.00  0.00    +0.000 C 
ATOM     35  O   UNL     1       7.563   4.860  13.102  0.00  0.00    +0.000 OA
ENDBRANCH  28  35
BRANCH  32  36
ATOM     36  O   UNL     1       5.507   6.255  17.333  0.00  0.00    +0.000 OA
ATOM     37  C   UNL     1       6.472   7.282  17.511  0.00  0.00    +0.000 C 
ENDBRANCH  32  36
ENDBRANCH  24  31
ENDBRANCH  23  26
ENDBRANCH  22  23
ENDBRANCH   1  22
TORSDOF 7
ENDMDL
MODEL 5
REMARK VINA RESULT:      -7.9      3.431      4.907
REMARK  Name = 
REMARK  11 active torsions:
REMARK  status: ('A' for Active; 'I' for Inactive)
REMARK    1  A    between atoms: C_1  and  O_2
REMARK    2  A    between atoms: O_2  and  C_3
REMARK    3  A    between atoms: C_6  and  N_7
REMARK    4  A    between atoms: N_7  and  C_8
REMARK    5  A    between atoms: C_9  and  C_11
REMARK    6  A    between atoms: C_11  and  C_12
REMARK    7  A    between atoms: C_12  and  C_13
REMARK    8  A    between atoms: N_15  and  C_16
REMARK    9  A    between atoms: C_29  and  C_30
REMARK   10  A    between atoms: C_33  and  O_34
REMARK   11  A    between atoms: O_34  and  C_35
REMARK                            x       y       z     vdW  Elec       q    Type
REMARK                         _______ _______ _______ _____ _____    ______ ____
ROOT
ATOM      1  C   UNL     1       0.520   9.752  21.179  0.00  0.00    +0.000 C 
ATOM      2  O   UNL     1       0.057   9.745  20.048  0.00  0.00    +0.000 OA
ATOM      3  N   UNL     1       0.285  10.731  22.139  0.00  0.00    +0.000 N 
ATOM      4  H   UNL     1       0.723  10.615  23.038  0.00  0.00    +0.000 HD
ENDROOT
BRANCH   3   5
ATOM      5  C   UNL     1      -0.554  11.872  22.030  0.00  0.00    +0.000 A 
ATOM      6  C   UNL     1      -0.273  12.960  21.206  0.00  0.00    +0.000 A 
ATOM      7  C   UNL     1      -1.133  14.051  21.177  0.00  0.00    +0.000 A 
ATOM      8  C   UNL     1      -2.319  14.082  21.907  0.00  0.00    +0.000 A 
ATOM      9  N   UNL     1      -3.010  15.225  21.987  0.00  0.00    +0.000 NA
ATOM     10  C   UNL     1      -4.126  15.218  22.732  0.00  0.00    +0.000 A 
ATOM     11  N   UNL     1      -4.209  16.069  23.809  0.00  0.00    +0.000 N 
ATOM     12  C   UNL     1      -5.456  16.290  24.524  0.00  0.00    +0.000 C 
ATOM     13  C   UNL     1      -5.478  17.774  24.926  0.00  0.00    +0.000 C 
ATOM     14  O   UNL     1      -4.269  18.228  25.571  0.00  0.00    +0.000 OA
ATOM     15  C   UNL     1      -3.061  17.853  24.874  0.00  0.00    +0.000 C 
ATOM     16  C   UNL     1      -3.023  16.349  24.618  0.00  0.00    +0.000 C 
ATOM     17  C   UNL     1      -4.834  14.054  22.799  0.00  0.00    +0.000 A 
ATOM     18  C   UNL     1      -4.002  13.037  23.240  0.00  0.00    +0.000 A 
ATOM     19  C   UNL     1      -4.377  12.542  24.612  0.00  0.00    +0.000 C 
ATOM     20  C   UNL     1      -2.696  12.955  22.662  0.00  0.00    +0.000 A 
ATOM     21  C   UNL     1      -1.749  11.894  22.786  0.00  0.00    +0.000 A 
ENDBRANCH   3   5
BRANCH   1  22
ATOM     22  C   UNL     1       1.488   8.636  21.610  0.00  0.00    +0.000 C 
BRANCH  22  23
ATOM     23  C   UNL     1       1.148   7.227  21.117  0.00  0.00    +0.000 C 
BRANCH  23  26
ATOM     24  N   UNL     1       2.479   5.458  19.991  0.00  0.00    +0.000 N 
ATOM     25  C   UNL     1       2.241   4.600  21.143  0.00  0.00    +0.000 C 
ATOM     26  C   UNL     1       1.982   6.772  19.910  0.00  0.00    +0.000 C 
ATOM     27  O   UNL     1       2.253   7.565  19.011  0.00  0.00    +0.000 OA
BRANCH  24  31
ATOM     28  C   UNL     1       5.190   4.110  16.977  0.00  0.00    +0.000 A 
ATOM     29  C   UNL     1       5.621   4.855  18.067  0.00  0.00    +0.000 A 
ATOM     30  C   UNL     1       4.739   5.265  19.064  0.00  0.00    +0.000 A 
ATOM     31  C   UNL     1       3.369   4.952  18.979  0.00  0.00    +0.000 A 
ATOM     32  C   UNL     1       2.929   4.158  17.901  0.00  0.00    +0.000 A 
ATOM     33  C   UNL     1       3.843   3.752  16.908  0.00  0.00    +0.000 A 
BRANCH  28  35
ATOM     34  C   UNL     1       7.150   4.747  15.775  0.00  0.00    +0.000 C 
ATOM     35  O   UNL     1       6.169   3.763  16.085  0.00  0.00    +0.000 OA
ENDBRANCH  28  35
BRANCH  32  36
ATOM     36  O   UNL     1       1.635   3.703  17.960  0.00  0.00    +0.000 OA
ATOM     37  C   UNL     1       1.457   2.362  18.393  0.00  0.00    +0.000 C 
ENDBRANCH  32  36
ENDBRANCH  24  31
ENDBRANCH  23  26
ENDBRANCH  22  23
ENDBRANCH   1  22
TORSDOF 7
ENDMDL
MODEL 6
REMARK VINA RESULT:      -7.8      6.067      8.298
REMARK  Name = 
REMARK  11 active torsions:
REMARK  status: ('A' for Active; 'I' for Inactive)
REMARK    1  A    between atoms: C_1  and  O_2
REMARK    2  A    between atoms: O_2  and  C_3
REMARK    3  A    between atoms: C_6  and  N_7
REMARK    4  A    between atoms: N_7  and  C_8
REMARK    5  A    between atoms: C_9  and  C_11
REMARK    6  A    between atoms: C_11  and  C_12
REMARK    7  A    between atoms: C_12  and  C_13
REMARK    8  A    between atoms: N_15  and  C_16
REMARK    9  A    between atoms: C_29  and  C_30
REMARK   10  A    between atoms: C_33  and  O_34
REMARK   11  A    between atoms: O_34  and  C_35
REMARK                            x       y       z     vdW  Elec       q    Type
REMARK                         _______ _______ _______ _____ _____    ______ ____
ROOT
ATOM      1  C   UNL     1       7.928   8.725  17.828  0.00  0.00    +0.000 C 
ATOM      2  O   UNL     1       6.937   9.412  17.629  0.00  0.00    +0.000 OA
ATOM      3  N   UNL     1       9.121   9.174  18.383  0.00  0.00    +0.000 N 
ATOM      4  H   UNL     1       9.861   8.502  18.501  0.00  0.00    +0.000 HD
ENDROOT
BRANCH   3   5
ATOM      5  C   UNL     1       9.420  10.475  18.867  0.00  0.00    +0.000 A 
ATOM      6  C   UNL     1       9.059  10.929  20.135  0.00  0.00    +0.000 A 
ATOM      7  C   UNL     1       9.366  12.227  20.523  0.00  0.00    +0.000 A 
ATOM      8  C   UNL     1      10.085  13.097  19.706  0.00  0.00    +0.000 A 
ATOM      9  N   UNL     1      10.189  14.385  20.050  0.00  0.00    +0.000 NA
ATOM     10  C   UNL     1      10.858  15.193  19.214  0.00  0.00    +0.000 A 
ATOM     11  N   UNL     1      10.197  16.262  18.655  0.00  0.00    +0.000 N 
ATOM     12  C   UNL     1      10.899  17.309  17.929  0.00  0.00    +0.000 C 
ATOM     13  C   UNL     1      10.186  18.631  18.261  0.00  0.00    +0.000 C 
ATOM     14  O   UNL     1       8.751  18.582  18.108  0.00  0.00    +0.000 OA
ATOM     15  C   UNL     1       8.137  17.438  18.742  0.00  0.00    +0.000 C 
ATOM     16  C   UNL     1       8.790  16.140  18.275  0.00  0.00    +0.000 C 
ATOM     17  C   UNL     1      11.887  14.652  18.501  0.00  0.00    +0.000 A 
ATOM     18  C   UNL     1      11.423  13.561  17.784  0.00  0.00    +0.000 A 
ATOM     19  C   UNL     1      11.430  13.806  16.298  0.00  0.00    +0.000 C 
ATOM     20  C   UNL     1      10.567  12.639  18.464  0.00  0.00    +0.000 A 
ATOM     21  C   UNL     1      10.140  11.351  18.022  0.00  0.00    +0.000 A 
ENDBRANCH   3   5
BRANCH   1  22
ATOM     22  C   UNL     1       7.925   7.247  17.399  0.00  0.00    +0.000 C 
BRANCH  22  23
ATOM     23  C   UNL     1       7.963   6.220  18.534  0.00  0.00    +0.000 C 
BRANCH  23  26
ATOM     24  N   UNL     1       6.110   4.750  17.776  0.00  0.00    +0.000 N 
ATOM     25  C   UNL     1       6.814   4.579  16.513  0.00  0.00    +0.000 C 
ATOM     26  C   UNL     1       6.608   5.554  18.817  0.00  0.00    +0.000 C 
ATOM     27  O   UNL     1       5.996   5.815  19.850  0.00  0.00    +0.000 OA
BRANCH  24  31
ATOM     28  C   UNL     1       2.279   2.871  17.986  0.00  0.00    +0.000 A 
ATOM     29  C   UNL     1       3.437   2.215  18.382  0.00  0.00    +0.000 A 
ATOM     30  C   UNL     1       4.680   2.843  18.342  0.00  0.00    +0.000 A 
ATOM     31  C   UNL     1       4.799   4.164  17.871  0.00  0.00    +0.000 A 
ATOM     32  C   UNL     1       3.625   4.854  17.510  0.00  0.00    +0.000 A 
ATOM     33  C   UNL     1       2.379   4.197  17.564  0.00  0.00    +0.000 A 
BRANCH  28  35
ATOM     34  C   UNL     1       0.276   2.418  19.199  0.00  0.00    +0.000 C 
ATOM     35  O   UNL     1       1.129   2.137  18.094  0.00  0.00    +0.000 OA
ENDBRANCH  28  35
BRANCH  32  36
ATOM     36  O   UNL     1       3.754   6.196  17.253  0.00  0.00    +0.000 OA
ATOM     37  C   UNL     1       2.971   7.070  18.054  0.00  0.00    +0.000 C 
ENDBRANCH  32  36
ENDBRANCH  24  31
ENDBRANCH  23  26
ENDBRANCH  22  23
ENDBRANCH   1  22
TORSDOF 7
ENDMDL
MODEL 7
REMARK VINA RESULT:      -7.8      2.462      3.357
REMARK  Name = 
REMARK  11 active torsions:
REMARK  status: ('A' for Active; 'I' for Inactive)
REMARK    1  A    between atoms: C_1  and  O_2
REMARK    2  A    between atoms: O_2  and  C_3
REMARK    3  A    between atoms: C_6  and  N_7
REMARK    4  A    between atoms: N_7  and  C_8
REMARK    5  A    between atoms: C_9  and  C_11
REMARK    6  A    between atoms: C_11  and  C_12
REMARK    7  A    between atoms: C_12  and  C_13
REMARK    8  A    between atoms: N_15  and  C_16
REMARK    9  A    between atoms: C_29  and  C_30
REMARK   10  A    between atoms: C_33  and  O_34
REMARK   11  A    between atoms: O_34  and  C_35
REMARK                            x       y       z     vdW  Elec       q    Type
REMARK                         _______ _______ _______ _____ _____    ______ ____
ROOT
ATOM      1  C   UNL     1       1.536   7.577  20.361  0.00  0.00    +0.000 C 
ATOM      2  O   UNL     1       2.261   8.454  19.914  0.00  0.00    +0.000 OA
ATOM      3  N   UNL     1       0.435   7.784  21.185  0.00  0.00    +0.000 N 
ATOM      4  H   UNL     1      -0.085   6.974  21.479  0.00  0.00    +0.000 HD
ENDROOT
BRANCH   3   5
ATOM      5  C   UNL     1      -0.095   9.023  21.634  0.00  0.00    +0.000 A 
ATOM      6  C   UNL     1      -0.246   9.356  22.979  0.00  0.00    +0.000 A 
ATOM      7  C   UNL     1      -0.798  10.581  23.334  0.00  0.00    +0.000 A 
ATOM      8  C   UNL     1      -1.161  11.536  22.387  0.00  0.00    +0.000 A 
ATOM      9  N   UNL     1      -1.856  12.611  22.774  0.00  0.00    +0.000 NA
ATOM     10  C   UNL     1      -2.218  13.485  21.822  0.00  0.00    +0.000 A 
ATOM     11  N   UNL     1      -3.556  13.730  21.622  0.00  0.00    +0.000 N 
ATOM     12  C   UNL     1      -4.023  14.821  20.780  0.00  0.00    +0.000 C 
ATOM     13  C   UNL     1      -5.288  15.384  21.448  0.00  0.00    +0.000 C 
ATOM     14  O   UNL     1      -6.261  14.380  21.812  0.00  0.00    +0.000 OA
ATOM     15  C   UNL     1      -5.698  13.259  22.529  0.00  0.00    +0.000 C 
ATOM     16  C   UNL     1      -4.531  12.649  21.759  0.00  0.00    +0.000 C 
ATOM     17  C   UNL     1      -1.388  13.629  20.749  0.00  0.00    +0.000 A 
ATOM     18  C   UNL     1      -1.184  12.392  20.159  0.00  0.00    +0.000 A 
ATOM     19  C   UNL     1      -1.810  12.298  18.793  0.00  0.00    +0.000 C 
ATOM     20  C   UNL     1      -0.919  11.284  21.024  0.00  0.00    +0.000 A 
ATOM     21  C   UNL     1      -0.471   9.979  20.660  0.00  0.00    +0.000 A 
ENDBRANCH   3   5
BRANCH   1  22
ATOM     22  C   UNL     1       1.854   6.103  20.057  0.00  0.00    +0.000 C 
BRANCH  22  23
ATOM     23  C   UNL     1       3.340   5.748  19.941  0.00  0.00    +0.000 C 
BRANCH  23  26
ATOM     24  N   UNL     1       4.760   4.733  18.174  0.00  0.00    +0.000 N 
ATOM     25  C   UNL     1       5.156   3.712  19.133  0.00  0.00    +0.000 C 
ATOM     26  C   UNL     1       3.876   5.778  18.503  0.00  0.00    +0.000 C 
ATOM     27  O   UNL     1       3.605   6.720  17.761  0.00  0.00    +0.000 OA
BRANCH  24  31
ATOM     28  C   UNL     1       6.667   4.512  14.358  0.00  0.00    +0.000 A 
ATOM     29  C   UNL     1       5.361   4.082  14.548  0.00  0.00    +0.000 A 
ATOM     30  C   UNL     1       4.732   4.185  15.786  0.00  0.00    +0.000 A 
ATOM     31  C   UNL     1       5.420   4.713  16.896  0.00  0.00    +0.000 A 
ATOM     32  C   UNL     1       6.730   5.194  16.703  0.00  0.00    +0.000 A 
ATOM     33  C   UNL     1       7.342   5.082  15.438  0.00  0.00    +0.000 A 
BRANCH  28  35
ATOM     34  C   UNL     1       6.447   3.481  12.218  0.00  0.00    +0.000 C 
ATOM     35  O   UNL     1       7.150   4.364  13.085  0.00  0.00    +0.000 OA
ENDBRANCH  28  35
BRANCH  32  36
ATOM     36  O   UNL     1       7.291   5.884  17.749  0.00  0.00    +0.000 OA
ATOM     37  C   UNL     1       7.473   7.280  17.559  0.00  0.00    +0.000 C 
ENDBRANCH  32  36
ENDBRANCH  24  31
ENDBRANCH  23  26
ENDBRANCH  22  23
ENDBRANCH   1  22
TORSDOF 7
ENDMDL
MODEL 8
REMARK VINA RESULT:      -7.7      1.050      1.069
REMARK  Name = 
REMARK  11 active torsions:
REMARK  status: ('A' for Active; 'I' for Inactive)
REMARK    1  A    between atoms: C_1  and  O_2
REMARK    2  A    between atoms: O_2  and  C_3
REMARK    3  A    between atoms: C_6  and  N_7
REMARK    4  A    between atoms: N_7  and  C_8
REMARK    5  A    between atoms: C_9  and  C_11
REMARK    6  A    between atoms: C_11  and  C_12
REMARK    7  A    between atoms: C_12  and  C_13
REMARK    8  A    between atoms: N_15  and  C_16
REMARK    9  A    between atoms: C_29  and  C_30
REMARK   10  A    between atoms: C_33  and  O_34
REMARK   11  A    between atoms: O_34  and  C_35
REMARK                            x       y       z     vdW  Elec       q    Type
REMARK                         _______ _______ _______ _____ _____    ______ ____
ROOT
ATOM      1  C   UNL     1       1.485   5.076  20.610  0.00  0.00    +0.000 C 
ATOM      2  O   UNL     1       0.295   4.985  20.347  0.00  0.00    +0.000 OA
ATOM      3  N   UNL     1       2.255   6.225  20.468  0.00  0.00    +0.000 N 
ATOM      4  H   UNL     1       3.226   6.169  20.728  0.00  0.00    +0.000 HD
ENDROOT
BRANCH   3   5
ATOM      5  C   UNL     1       1.827   7.512  20.046  0.00  0.00    +0.000 A 
ATOM      6  C   UNL     1       2.111   8.046  18.790  0.00  0.00    +0.000 A 
ATOM      7  C   UNL     1       1.678   9.325  18.464  0.00  0.00    +0.000 A 
ATOM      8  C   UNL     1       0.905  10.093  19.333  0.00  0.00    +0.000 A 
ATOM      9  N   UNL     1       0.677  11.378  19.045  0.00  0.00    +0.000 NA
ATOM     10  C   UNL     1      -0.040  12.089  19.930  0.00  0.00    +0.000 A 
ATOM     11  N   UNL     1       0.537  13.191  20.516  0.00  0.00    +0.000 N 
ATOM     12  C   UNL     1      -0.236  14.141  21.302  0.00  0.00    +0.000 C 
ATOM     13  C   UNL     1       0.345  15.534  21.008  0.00  0.00    +0.000 C 
ATOM     14  O   UNL     1       1.782  15.611  21.125  0.00  0.00    +0.000 OA
ATOM     15  C   UNL     1       2.479  14.552  20.430  0.00  0.00    +0.000 C 
ATOM     16  C   UNL     1       1.959  13.183  20.857  0.00  0.00    +0.000 C 
ATOM     17  C   UNL     1      -0.996  11.429  20.643  0.00  0.00    +0.000 A 
ATOM     18  C   UNL     1      -0.416  10.358  21.304  0.00  0.00    +0.000 A 
ATOM     19  C   UNL     1      -0.404  10.542  22.798  0.00  0.00    +0.000 C 
ATOM     20  C   UNL     1       0.501   9.545  20.565  0.00  0.00    +0.000 A 
ATOM     21  C   UNL     1       1.054   8.285  20.944  0.00  0.00    +0.000 A 
ENDBRANCH   3   5
BRANCH   1  22
ATOM     22  C   UNL     1       2.253   3.833  21.091  0.00  0.00    +0.000 C 
BRANCH  22  23
ATOM     23  C   UNL     1       2.560   2.779  20.023  0.00  0.00    +0.000 C 
BRANCH  23  26
ATOM     24  N   UNL     1       4.620   3.340  18.755  0.00  0.00    +0.000 N 
ATOM     25  C   UNL     1       5.401   2.847  19.882  0.00  0.00    +0.000 C 
ATOM     26  C   UNL     1       3.213   3.349  18.756  0.00  0.00    +0.000 C 
ATOM     27  O   UNL     1       2.520   3.857  17.877  0.00  0.00    +0.000 OA
BRANCH  24  31
ATOM     28  C   UNL     1       6.817   4.998  15.488  0.00  0.00    +0.000 A 
ATOM     29  C   UNL     1       5.811   4.062  15.291  0.00  0.00    +0.000 A 
ATOM     30  C   UNL     1       5.076   3.548  16.357  0.00  0.00    +0.000 A 
ATOM     31  C   UNL     1       5.353   3.950  17.677  0.00  0.00    +0.000 A 
ATOM     32  C   UNL     1       6.341   4.933  17.883  0.00  0.00    +0.000 A 
ATOM     33  C   UNL     1       7.067   5.441  16.788  0.00  0.00    +0.000 A 
BRANCH  28  35
ATOM     34  C   UNL     1       7.230   4.673  13.162  0.00  0.00    +0.000 C 
ATOM     35  O   UNL     1       7.444   5.427  14.350  0.00  0.00    +0.000 OA
ENDBRANCH  28  35
BRANCH  32  36
ATOM     36  O   UNL     1       6.441   5.447  19.153  0.00  0.00    +0.000 OA
ATOM     37  C   UNL     1       7.750   5.767  19.602  0.00  0.00    +0.000 C 
ENDBRANCH  32  36
ENDBRANCH  24  31
ENDBRANCH  23  26
ENDBRANCH  22  23
ENDBRANCH   1  22
TORSDOF 7
ENDMDL
MODEL 9
REMARK VINA RESULT:      -7.7      2.970      4.204
REMARK  Name = 
REMARK  11 active torsions:
REMARK  status: ('A' for Active; 'I' for Inactive)
REMARK    1  A    between atoms: C_1  and  O_2
REMARK    2  A    between atoms: O_2  and  C_3
REMARK    3  A    between atoms: C_6  and  N_7
REMARK    4  A    between atoms: N_7  and  C_8
REMARK    5  A    between atoms: C_9  and  C_11
REMARK    6  A    between atoms: C_11  and  C_12
REMARK    7  A    between atoms: C_12  and  C_13
REMARK    8  A    between atoms: N_15  and  C_16
REMARK    9  A    between atoms: C_29  and  C_30
REMARK   10  A    between atoms: C_33  and  O_34
REMARK   11  A    between atoms: O_34  and  C_35
REMARK                            x       y       z     vdW  Elec       q    Type
REMARK                         _______ _______ _______ _____ _____    ______ ____
ROOT
ATOM      1  C   UNL     1       0.312   9.087  21.453  0.00  0.00    +0.000 C 
ATOM      2  O   UNL     1      -0.796   8.597  21.614  0.00  0.00    +0.000 OA
ATOM      3  N   UNL     1       0.568  10.424  21.170  0.00  0.00    +0.000 N 
ATOM      4  H   UNL     1       1.530  10.702  21.068  0.00  0.00    +0.000 HD
ENDROOT
BRANCH   3   5
ATOM      5  C   UNL     1      -0.371  11.484  21.057  0.00  0.00    +0.000 A 
ATOM      6  C   UNL     1      -0.329  12.447  20.051  0.00  0.00    +0.000 A 
ATOM      7  C   UNL     1      -1.271  13.469  20.027  0.00  0.00    +0.000 A 
ATOM      8  C   UNL     1      -2.313  13.542  20.948  0.00  0.00    +0.000 A 
ATOM      9  N   UNL     1      -3.074  14.641  20.992  0.00  0.00    +0.000 NA
ATOM     10  C   UNL     1      -4.041  14.683  21.921  0.00  0.00    +0.000 A 
ATOM     11  N   UNL     1      -4.009  15.683  22.865  0.00  0.00    +0.000 N 
ATOM     12  C   UNL     1      -5.130  15.938  23.757  0.00  0.00    +0.000 C 
ATOM     13  C   UNL     1      -5.209  17.462  23.944  0.00  0.00    +0.000 C 
ATOM     14  O   UNL     1      -3.950  18.080  24.288  0.00  0.00    +0.000 OA
ATOM     15  C   UNL     1      -2.852  17.673  23.441  0.00  0.00    +0.000 C 
ATOM     16  C   UNL     1      -2.731  16.153  23.397  0.00  0.00    +0.000 C 
ATOM     17  C   UNL     1      -4.626  13.504  22.278  0.00  0.00    +0.000 A 
ATOM     18  C   UNL     1      -3.647  12.617  22.699  0.00  0.00    +0.000 A 
ATOM     19  C   UNL     1      -3.738  12.317  24.172  0.00  0.00    +0.000 C 
ATOM     20  C   UNL     1      -2.457  12.524  21.910  0.00  0.00    +0.000 A 
ATOM     21  C   UNL     1      -1.417  11.552  22.008  0.00  0.00    +0.000 A 
ENDBRANCH   3   5
BRANCH   1  22
ATOM     22  C   UNL     1       1.556   8.183  21.507  0.00  0.00    +0.000 C 
BRANCH  22  23
ATOM     23  C   UNL     1       1.425   6.821  20.819  0.00  0.00    +0.000 C 
BRANCH  23  26
ATOM     24  N   UNL     1       3.086   5.370  19.677  0.00  0.00    +0.000 N 
ATOM     25  C   UNL     1       2.870   4.372  20.714  0.00  0.00    +0.000 C 
ATOM     26  C   UNL     1       2.419   6.609  19.667  0.00  0.00    +0.000 C 
ATOM     27  O   UNL     1       2.654   7.520  18.877  0.00  0.00    +0.000 OA
BRANCH  24  31
ATOM     28  C   UNL     1       6.233   4.705  16.865  0.00  0.00    +0.000 A 
ATOM     29  C   UNL     1       6.482   5.213  18.133  0.00  0.00    +0.000 A 
ATOM     30  C   UNL     1       5.457   5.399  19.058  0.00  0.00    +0.000 A 
ATOM     31  C   UNL     1       4.125   5.095  18.719  0.00  0.00    +0.000 A 
ATOM     32  C   UNL     1       3.868   4.536  17.451  0.00  0.00    +0.000 A 
ATOM     33  C   UNL     1       4.923   4.354  16.535  0.00  0.00    +0.000 A 
BRANCH  28  35
ATOM     34  C   UNL     1       7.160   4.737  14.667  0.00  0.00    +0.000 C 
ATOM     35  O   UNL     1       7.337   4.562  16.069  0.00  0.00    +0.000 OA
ENDBRANCH  28  35
BRANCH  32  36
ATOM     36  O   UNL     1       2.596   4.065  17.233  0.00  0.00    +0.000 OA
ATOM     37  C   UNL     1       2.381   2.686  17.500  0.00  0.00    +0.000 C 
ENDBRANCH  32  36
ENDBRANCH  24  31
ENDBRANCH  23  26
ENDBRANCH  22  23
ENDBRANCH   1  22
TORSDOF 7
ENDMDL
