MODEL 1
REMARK VINA RESULT:      -5.9      0.000      0.000
REMARK  Name = 
REMARK  5 active torsions:
REMARK  status: ('A' for Active; 'I' for Inactive)
REMARK    1  A    between atoms: C_1  and  C_2
REMARK    2  A    between atoms: C_2  and  O_3
REMARK    3  A    between atoms: O_3  and  C_4
REMARK    4  A    between atoms: C_6  and  N_7
REMARK    5  A    between atoms: N_10  and  C_11
REMARK                            x       y       z     vdW  Elec       q    Type
REMARK                         _______ _______ _______ _____ _____    ______ ____
ROOT
ATOM      1  N   UNL     1       1.880   7.350  20.992  0.00  0.00    +0.000 N 
ATOM      2  C   UNL     1       2.557   6.947  19.850  0.00  0.00    +0.000 C 
ATOM      3  O   UNL     1       2.538   7.577  18.811  0.00  0.00    +0.000 OA
ATOM      4  N   UNL     1       3.208   5.734  20.037  0.00  0.00    +0.000 N 
ATOM      5  H   UNL     1       2.322   7.040  21.843  0.00  0.00    +0.000 HD
ATOM      6  H   UNL     1       2.695   5.084  20.619  0.00  0.00    +0.000 HD
ENDROOT
BRANCH   4   7
ATOM      7  C   UNL     1       3.978   5.165  18.988  0.00  0.00    +0.000 A 
ATOM      8  C   UNL     1       5.341   5.462  18.899  0.00  0.00    +0.000 A 
ATOM      9  C   UNL     1       6.093   4.845  17.913  0.00  0.00    +0.000 A 
ATOM     10  N   UNL     1       5.587   3.970  17.018  0.00  0.00    +0.000 NA
ATOM     11  C   UNL     1       4.259   3.724  17.102  0.00  0.00    +0.000 A 
ATOM     12  C   UNL     1       3.422   4.284  18.058  0.00  0.00    +0.000 A 
ATOM     13 BR   UNL     1       1.562   3.950  17.961  0.00  0.00    +0.000 Br
ENDBRANCH   4   7
BRANCH   1  16
ATOM     14  C   UNL     1      -0.209   9.871  22.149  0.00  0.00    +0.000 C 
ATOM     15  C   UNL     1      -0.374   8.570  21.326  0.00  0.00    +0.000 C 
ATOM     16  C   UNL     1       1.144   8.643  21.024  0.00  0.00    +0.000 C 
ATOM     17  C   UNL     1       1.276   9.443  22.342  0.00  0.00    +0.000 C 
BRANCH  14  18
ATOM     18  O   UNL     1      -0.397  11.138  21.470  0.00  0.00    +0.000 OA
BRANCH  18  20
ATOM     19  C   UNL     1      -1.905  11.520  23.307  0.00  0.00    +0.000 C 
ATOM     20  C   UNL     1      -1.501  11.931  21.904  0.00  0.00    +0.000 C 
ENDBRANCH  18  20
ENDBRANCH  14  18
ENDBRANCH   1  16
TORSDOF 4
ENDMDL
MODEL 2
REMARK VINA RESULT:      -5.7      4.673      8.658
REMARK  Name = 
REMARK  5 active torsions:
REMARK  status: ('A' for Active; 'I' for Inactive)
REMARK    1  A    between atoms: C_1  and  C_2
REMARK    2  A    between atoms: C_2  and  O_3
REMARK    3  A    between atoms: O_3  and  C_4
REMARK    4  A    between atoms: C_6  and  N_7
REMARK    5  A    between atoms: N_10  and  C_11
REMARK                            x       y       z     vdW  Elec       q    Type
REMARK                         _______ _______ _______ _____ _____    ______ ____
ROOT
ATOM      1  N   UNL     1       5.922   4.079  17.086  0.00  0.00    +0.000 N 
ATOM      2  C   UNL     1       4.687   3.803  17.655  0.00  0.00    +0.000 C 
ATOM      3  O   UNL     1       3.744   3.376  17.018  0.00  0.00    +0.000 OA
ATOM      4  N   UNL     1       4.662   4.113  19.009  0.00  0.00    +0.000 N 
ATOM      5  H   UNL     1       6.688   3.971  17.732  0.00  0.00    +0.000 HD
ATOM      6  H   UNL     1       5.193   4.940  19.245  0.00  0.00    +0.000 HD
ENDROOT
BRANCH   4   7
ATOM      7  C   UNL     1       3.491   3.877  19.777  0.00  0.00    +0.000 A 
ATOM      8  C   UNL     1       3.335   2.653  20.433  0.00  0.00    +0.000 A 
ATOM      9  C   UNL     1       2.221   2.465  21.233  0.00  0.00    +0.000 A 
ATOM     10  N   UNL     1       1.260   3.396  21.417  0.00  0.00    +0.000 NA
ATOM     11  C   UNL     1       1.415   4.560  20.745  0.00  0.00    +0.000 A 
ATOM     12  C   UNL     1       2.499   4.849  19.926  0.00  0.00    +0.000 A 
ATOM     13 BR   UNL     1       2.505   6.466  18.944  0.00  0.00    +0.000 Br
ENDBRANCH   4   7
BRANCH   1  16
ATOM     14  C   UNL     1       6.466   4.642  13.702  0.00  0.00    +0.000 C 
ATOM     15  C   UNL     1       5.235   4.460  14.624  0.00  0.00    +0.000 C 
ATOM     16  C   UNL     1       6.181   3.786  15.650  0.00  0.00    +0.000 C 
ATOM     17  C   UNL     1       7.320   4.611  15.005  0.00  0.00    +0.000 C 
BRANCH  14  18
ATOM     18  O   UNL     1       6.768   3.593  12.749  0.00  0.00    +0.000 OA
BRANCH  18  20
ATOM     19  C   UNL     1       5.922   1.745  11.459  0.00  0.00    +0.000 C 
ATOM     20  C   UNL     1       5.695   3.176  11.906  0.00  0.00    +0.000 C 
ENDBRANCH  18  20
ENDBRANCH  14  18
ENDBRANCH   1  16
TORSDOF 4
ENDMDL
MODEL 3
REMARK VINA RESULT:      -5.5      4.393      8.208
REMARK  Name = 
REMARK  5 active torsions:
REMARK  status: ('A' for Active; 'I' for Inactive)
REMARK    1  A    between atoms: C_1  and  C_2
REMARK    2  A    between atoms: C_2  and  O_3
REMARK    3  A    between atoms: O_3  and  C_4
REMARK    4  A    between atoms: C_6  and  N_7
REMARK    5  A    between atoms: N_10  and  C_11
REMARK                            x       y       z     vdW  Elec       q    Type
REMARK                         _______ _______ _______ _____ _____    ______ ____
ROOT
ATOM      1  N   UNL     1       6.552   4.271  18.024  0.00  0.00    +0.000 N 
ATOM      2  C   UNL     1       5.172   4.311  18.165  0.00  0.00    +0.000 C 
ATOM      3  O   UNL     1       4.424   4.657  17.271  0.00  0.00    +0.000 OA
ATOM      4  N   UNL     1       4.773   3.951  19.446  0.00  0.00    +0.000 N 
ATOM      5  H   UNL     1       6.988   3.573  18.606  0.00  0.00    +0.000 HD
ATOM      6  H   UNL     1       5.400   4.274  20.171  0.00  0.00    +0.000 HD
ENDROOT
BRANCH   4   7
ATOM      7  C   UNL     1       3.394   3.906  19.781  0.00  0.00    +0.000 A 
ATOM      8  C   UNL     1       2.815   4.986  20.454  0.00  0.00    +0.000 A 
ATOM      9  C   UNL     1       1.455   4.957  20.711  0.00  0.00    +0.000 A 
ATOM     10  N   UNL     1       0.643   3.938  20.357  0.00  0.00    +0.000 NA
ATOM     11  C   UNL     1       1.231   2.888  19.738  0.00  0.00    +0.000 A 
ATOM     12  C   UNL     1       2.584   2.825  19.427  0.00  0.00    +0.000 A 
ATOM     13 BR   UNL     1       3.283   1.231  18.683  0.00  0.00    +0.000 Br
ENDBRANCH   4   7
BRANCH   1  16
ATOM     14  C   UNL     1       6.860   5.269  14.712  0.00  0.00    +0.000 C 
ATOM     15  C   UNL     1       6.552   3.948  15.460  0.00  0.00    +0.000 C 
ATOM     16  C   UNL     1       7.193   4.585  16.718  0.00  0.00    +0.000 C 
ATOM     17  C   UNL     1       6.811   5.955  16.109  0.00  0.00    +0.000 C 
BRANCH  14  18
ATOM     18  O   UNL     1       8.127   5.383  14.018  0.00  0.00    +0.000 OA
BRANCH  18  20
ATOM     19  C   UNL     1       7.302   4.427  11.969  0.00  0.00    +0.000 C 
ATOM     20  C   UNL     1       8.060   5.575  12.606  0.00  0.00    +0.000 C 
ENDBRANCH  18  20
ENDBRANCH  14  18
ENDBRANCH   1  16
TORSDOF 4
ENDMDL
MODEL 4
REMARK VINA RESULT:      -5.5      6.466      7.520
REMARK  Name = 
REMARK  5 active torsions:
REMARK  status: ('A' for Active; 'I' for Inactive)
REMARK    1  A    between atoms: C_1  and  C_2
REMARK    2  A    between atoms: C_2  and  O_3
REMARK    3  A    between atoms: O_3  and  C_4
REMARK    4  A    between atoms: C_6  and  N_7
REMARK    5  A    between atoms: N_10  and  C_11
REMARK                            x       y       z     vdW  Elec       q    Type
REMARK                         _______ _______ _______ _____ _____    ______ ____
ROOT
ATOM      1  N   UNL     1       8.621   8.381  18.658  0.00  0.00    +0.000 N 
ATOM      2  C   UNL     1       7.735   7.741  17.803  0.00  0.00    +0.000 C 
ATOM      3  O   UNL     1       6.915   8.336  17.131  0.00  0.00    +0.000 OA
ATOM      4  N   UNL     1       7.880   6.360  17.849  0.00  0.00    +0.000 N 
ATOM      5  H   UNL     1       9.487   7.880  18.776  0.00  0.00    +0.000 HD
ATOM      6  H   UNL     1       8.091   6.006  18.772  0.00  0.00    +0.000 HD
ENDROOT
BRANCH   4   7
ATOM      7  C   UNL     1       7.078   5.527  17.024  0.00  0.00    +0.000 A 
ATOM      8  C   UNL     1       7.449   5.318  15.693  0.00  0.00    +0.000 A 
ATOM      9  C   UNL     1       6.696   4.448  14.922  0.00  0.00    +0.000 A 
ATOM     10  N   UNL     1       5.609   3.788  15.377  0.00  0.00    +0.000 NA
ATOM     11  C   UNL     1       5.248   4.033  16.657  0.00  0.00    +0.000 A 
ATOM     12  C   UNL     1       5.941   4.880  17.513  0.00  0.00    +0.000 A 
ATOM     13 BR   UNL     1       5.234   5.228  19.234  0.00  0.00    +0.000 Br
ENDBRANCH   4   7
BRANCH   1  16
ATOM     14  C   UNL     1       9.930  11.583  18.968  0.00  0.00    +0.000 C 
ATOM     15  C   UNL     1       9.438  10.475  19.933  0.00  0.00    +0.000 C 
ATOM     16  C   UNL     1       8.662   9.867  18.738  0.00  0.00    +0.000 C 
ATOM     17  C   UNL     1       9.712  10.546  17.827  0.00  0.00    +0.000 C 
BRANCH  14  18
ATOM     18  O   UNL     1       9.138  12.792  18.856  0.00  0.00    +0.000 OA
BRANCH  18  20
ATOM     19  C   UNL     1      11.140  13.912  18.127  0.00  0.00    +0.000 C 
ATOM     20  C   UNL     1       9.854  14.025  18.922  0.00  0.00    +0.000 C 
ENDBRANCH  18  20
ENDBRANCH  14  18
ENDBRANCH   1  16
TORSDOF 4
ENDMDL
MODEL 5
REMARK VINA RESULT:      -5.5      3.509      7.819
REMARK  Name = 
REMARK  5 active torsions:
REMARK  status: ('A' for Active; 'I' for Inactive)
REMARK    1  A    between atoms: C_1  and  C_2
REMARK    2  A    between atoms: C_2  and  O_3
REMARK    3  A    between atoms: O_3  and  C_4
REMARK    4  A    between atoms: C_6  and  N_7
REMARK    5  A    between atoms: N_10  and  C_11
REMARK                            x       y       z     vdW  Elec       q    Type
REMARK                         _______ _______ _______ _____ _____    ______ ____
ROOT
ATOM      1  N   UNL     1       2.388   8.130  17.896  0.00  0.00    +0.000 N 
ATOM      2  C   UNL     1       1.677   9.030  18.677  0.00  0.00    +0.000 C 
ATOM      3  O   UNL     1       1.339   8.793  19.820  0.00  0.00    +0.000 OA
ATOM      4  N   UNL     1       1.374  10.192  17.979  0.00  0.00    +0.000 N 
ATOM      5  H   UNL     1       2.975   8.579  17.211  0.00  0.00    +0.000 HD
ATOM      6  H   UNL     1       1.157  10.034  17.004  0.00  0.00    +0.000 HD
ENDROOT
BRANCH   4   7
ATOM      7  C   UNL     1       0.669  11.248  18.616  0.00  0.00    +0.000 A 
ATOM      8  C   UNL     1       1.374  12.172  19.392  0.00  0.00    +0.000 A 
ATOM      9  C   UNL     1       0.683  13.236  19.950  0.00  0.00    +0.000 A 
ATOM     10  N   UNL     1      -0.644  13.435  19.796  0.00  0.00    +0.000 NA
ATOM     11  C   UNL     1      -1.311  12.508  19.070  0.00  0.00    +0.000 A 
ATOM     12  C   UNL     1      -0.709  11.413  18.463  0.00  0.00    +0.000 A 
ATOM     13 BR   UNL     1      -1.796  10.130  17.595  0.00  0.00    +0.000 Br
ENDBRANCH   4   7
BRANCH   1  16
ATOM     14  C   UNL     1       3.393   4.807  18.000  0.00  0.00    +0.000 C 
ATOM     15  C   UNL     1       2.047   5.572  18.044  0.00  0.00    +0.000 C 
ATOM     16  C   UNL     1       2.848   6.832  18.459  0.00  0.00    +0.000 C 
ATOM     17  C   UNL     1       4.056   6.191  17.734  0.00  0.00    +0.000 C 
BRANCH  14  18
ATOM     18  O   UNL     1       3.838   4.137  19.205  0.00  0.00    +0.000 OA
BRANCH  18  20
ATOM     19  C   UNL     1       3.281   2.111  18.031  0.00  0.00    +0.000 C 
ATOM     20  C   UNL     1       4.173   2.756  19.074  0.00  0.00    +0.000 C 
ENDBRANCH  18  20
ENDBRANCH  14  18
ENDBRANCH   1  16
TORSDOF 4
ENDMDL
MODEL 6
REMARK VINA RESULT:      -5.4      4.591      8.295
REMARK  Name = 
REMARK  5 active torsions:
REMARK  status: ('A' for Active; 'I' for Inactive)
REMARK    1  A    between atoms: C_1  and  C_2
REMARK    2  A    between atoms: C_2  and  O_3
REMARK    3  A    between atoms: O_3  and  C_4
REMARK    4  A    between atoms: C_6  and  N_7
REMARK    5  A    between atoms: N_10  and  C_11
REMARK                            x       y       z     vdW  Elec       q    Type
REMARK                         _______ _______ _______ _____ _____    ______ ____
ROOT
ATOM      1  N   UNL     1       5.980   5.123  17.634  0.00  0.00    +0.000 N 
ATOM      2  C   UNL     1       4.763   4.568  18.004  0.00  0.00    +0.000 C 
ATOM      3  O   UNL     1       4.028   4.000  17.220  0.00  0.00    +0.000 OA
ATOM      4  N   UNL     1       4.486   4.780  19.349  0.00  0.00    +0.000 N 
ATOM      5  H   UNL     1       6.654   5.132  18.383  0.00  0.00    +0.000 HD
ATOM      6  H   UNL     1       4.795   5.681  19.688  0.00  0.00    +0.000 HD
ENDROOT
BRANCH   4   7
ATOM      7  C   UNL     1       3.295   4.264  19.925  0.00  0.00    +0.000 A 
ATOM      8  C   UNL     1       2.169   5.085  20.022  0.00  0.00    +0.000 A 
ATOM      9  C   UNL     1       0.995   4.546  20.522  0.00  0.00    +0.000 A 
ATOM     10  N   UNL     1       0.870   3.267  20.935  0.00  0.00    +0.000 NA
ATOM     11  C   UNL     1       1.983   2.501  20.865  0.00  0.00    +0.000 A 
ATOM     12  C   UNL     1       3.204   2.944  20.371  0.00  0.00    +0.000 A 
ATOM     13 BR   UNL     1       4.705   1.796  20.466  0.00  0.00    +0.000 Br
ENDBRANCH   4   7
BRANCH   1  16
ATOM     14  C   UNL     1       5.988   4.427  14.231  0.00  0.00    +0.000 C 
ATOM     15  C   UNL     1       6.215   3.628  15.539  0.00  0.00    +0.000 C 
ATOM     16  C   UNL     1       6.490   4.981  16.243  0.00  0.00    +0.000 C 
ATOM     17  C   UNL     1       5.608   5.627  15.149  0.00  0.00    +0.000 C 
BRANCH  14  18
ATOM     18  O   UNL     1       7.126   4.657  13.364  0.00  0.00    +0.000 OA
BRANCH  18  20
ATOM     19  C   UNL     1       5.930   3.100  11.972  0.00  0.00    +0.000 C 
ATOM     20  C   UNL     1       7.020   4.153  12.034  0.00  0.00    +0.000 C 
ENDBRANCH  18  20
ENDBRANCH  14  18
ENDBRANCH   1  16
TORSDOF 4
ENDMDL
MODEL 7
REMARK VINA RESULT:      -5.4      2.238      2.467
REMARK  Name = 
REMARK  5 active torsions:
REMARK  status: ('A' for Active; 'I' for Inactive)
REMARK    1  A    between atoms: C_1  and  C_2
REMARK    2  A    between atoms: C_2  and  O_3
REMARK    3  A    between atoms: O_3  and  C_4
REMARK    4  A    between atoms: C_6  and  N_7
REMARK    5  A    between atoms: N_10  and  C_11
REMARK                            x       y       z     vdW  Elec       q    Type
REMARK                         _______ _______ _______ _____ _____    ______ ____
ROOT
ATOM      1  N   UNL     1       1.719   8.767  18.024  0.00  0.00    +0.000 N 
ATOM      2  C   UNL     1       2.406   7.734  18.646  0.00  0.00    +0.000 C 
ATOM      3  O   UNL     1       2.363   7.536  19.844  0.00  0.00    +0.000 OA
ATOM      4  N   UNL     1       3.162   7.000  17.741  0.00  0.00    +0.000 N 
ATOM      5  H   UNL     1       1.464   8.555  17.072  0.00  0.00    +0.000 HD
ATOM      6  H   UNL     1       3.578   7.562  17.010  0.00  0.00    +0.000 HD
ENDROOT
BRANCH   4   7
ATOM      7  C   UNL     1       3.919   5.881  18.181  0.00  0.00    +0.000 A 
ATOM      8  C   UNL     1       5.269   6.049  18.500  0.00  0.00    +0.000 A 
ATOM      9  C   UNL     1       5.975   4.965  18.994  0.00  0.00    +0.000 A 
ATOM     10  N   UNL     1       5.439   3.740  19.183  0.00  0.00    +0.000 NA
ATOM     11  C   UNL     1       4.140   3.592  18.834  0.00  0.00    +0.000 A 
ATOM     12  C   UNL     1       3.345   4.618  18.339  0.00  0.00    +0.000 A 
ATOM     13 BR   UNL     1       1.584   4.223  17.768  0.00  0.00    +0.000 Br
ENDBRANCH   4   7
BRANCH   1  16
ATOM     14  C   UNL     1      -0.328  11.473  18.765  0.00  0.00    +0.000 C 
ATOM     15  C   UNL     1       1.187  11.162  18.838  0.00  0.00    +0.000 C 
ATOM     16  C   UNL     1       0.816   9.658  18.803  0.00  0.00    +0.000 C 
ATOM     17  C   UNL     1      -0.477  10.087  18.070  0.00  0.00    +0.000 C 
BRANCH  14  18
ATOM     18  O   UNL     1      -1.058  11.615  20.009  0.00  0.00    +0.000 OA
BRANCH  18  20
ATOM     19  C   UNL     1      -3.275  12.553  20.008  0.00  0.00    +0.000 C 
ATOM     20  C   UNL     1      -1.793  12.826  20.176  0.00  0.00    +0.000 C 
ENDBRANCH  18  20
ENDBRANCH  14  18
ENDBRANCH   1  16
TORSDOF 4
ENDMDL
MODEL 8
REMARK VINA RESULT:      -5.3      7.084      9.467
REMARK  Name = 
REMARK  5 active torsions:
REMARK  status: ('A' for Active; 'I' for Inactive)
REMARK    1  A    between atoms: C_1  and  C_2
REMARK    2  A    between atoms: C_2  and  O_3
REMARK    3  A    between atoms: O_3  and  C_4
REMARK    4  A    between atoms: C_6  and  N_7
REMARK    5  A    between atoms: N_10  and  C_11
REMARK                            x       y       z     vdW  Elec       q    Type
REMARK                         _______ _______ _______ _____ _____    ______ ____
ROOT
ATOM      1  N   UNL     1       8.562   7.891  18.829  0.00  0.00    +0.000 N 
ATOM      2  C   UNL     1       8.570   9.240  18.505  0.00  0.00    +0.000 C 
ATOM      3  O   UNL     1       7.740   9.753  17.781  0.00  0.00    +0.000 OA
ATOM      4  N   UNL     1       9.652   9.901  19.072  0.00  0.00    +0.000 N 
ATOM      5  H   UNL     1       8.966   7.699  19.732  0.00  0.00    +0.000 HD
ATOM      6  H   UNL     1      10.498   9.347  19.098  0.00  0.00    +0.000 HD
ENDROOT
BRANCH   4   7
ATOM      7  C   UNL     1       9.822  11.298  18.877  0.00  0.00    +0.000 A 
ATOM      8  C   UNL     1      10.360  11.762  17.674  0.00  0.00    +0.000 A 
ATOM      9  C   UNL     1      10.454  13.129  17.471  0.00  0.00    +0.000 A 
ATOM     10  N   UNL     1      10.062  14.052  18.375  0.00  0.00    +0.000 NA
ATOM     11  C   UNL     1       9.577  13.579  19.546  0.00  0.00    +0.000 A 
ATOM     12  C   UNL     1       9.434  12.230  19.842  0.00  0.00    +0.000 A 
ATOM     13 BR   UNL     1       8.869  11.723  21.576  0.00  0.00    +0.000 Br
ENDBRANCH   4   7
BRANCH   1  16
ATOM     14  C   UNL     1       6.996   5.238  17.226  0.00  0.00    +0.000 C 
ATOM     15  C   UNL     1       7.450   6.668  16.842  0.00  0.00    +0.000 C 
ATOM     16  C   UNL     1       7.468   7.001  18.355  0.00  0.00    +0.000 C 
ATOM     17  C   UNL     1       7.699   5.489  18.593  0.00  0.00    +0.000 C 
BRANCH  14  18
ATOM     18  O   UNL     1       5.574   4.971  17.310  0.00  0.00    +0.000 OA
BRANCH  18  20
ATOM     19  C   UNL     1       6.101   3.796  15.277  0.00  0.00    +0.000 C 
ATOM     20  C   UNL     1       5.025   4.139  16.289  0.00  0.00    +0.000 C 
ENDBRANCH  18  20
ENDBRANCH  14  18
ENDBRANCH   1  16
TORSDOF 4
ENDMDL
MODEL 9
REMARK VINA RESULT:      -5.3      3.728      8.067
REMARK  Name = 
REMARK  5 active torsions:
REMARK  status: ('A' for Active; 'I' for Inactive)
REMARK    1  A    between atoms: C_1  and  C_2
REMARK    2  A    between atoms: C_2  and  O_3
REMARK    3  A    between atoms: O_3  and  C_4
REMARK    4  A    between atoms: C_6  and  N_7
REMARK    5  A    between atoms: N_10  and  C_11
REMARK                            x       y       z     vdW  Elec       q    Type
REMARK                         _______ _______ _______ _____ _____    ______ ____
ROOT
ATOM      1  N   UNL     1       2.175   8.320  17.772  0.00  0.00    +0.000 N 
ATOM      2  C   UNL     1       1.438   9.166  18.587  0.00  0.00    +0.000 C 
ATOM      3  O   UNL     1       1.278   8.969  19.776  0.00  0.00    +0.000 OA
ATOM      4  N   UNL     1       0.886  10.221  17.871  0.00  0.00    +0.000 N 
ATOM      5  H   UNL     1       2.604   8.795  16.993  0.00  0.00    +0.000 HD
ATOM      6  H   UNL     1       0.580   9.963  16.942  0.00  0.00    +0.000 HD
ENDROOT
BRANCH   4   7
ATOM      7  C   UNL     1       0.114  11.212  18.535  0.00  0.00    +0.000 A 
ATOM      8  C   UNL     1      -1.221  10.946  18.849  0.00  0.00    +0.000 A 
ATOM      9  C   UNL     1      -1.939  11.895  19.558  0.00  0.00    +0.000 A 
ATOM     10  N   UNL     1      -1.428  13.077  19.963  0.00  0.00    +0.000 NA
ATOM     11  C   UNL     1      -0.144  13.328  19.617  0.00  0.00    +0.000 A 
ATOM     12  C   UNL     1       0.661  12.439  18.916  0.00  0.00    +0.000 A 
ATOM     13 BR   UNL     1       2.393  12.988  18.387  0.00  0.00    +0.000 Br
ENDBRANCH   4   7
BRANCH   1  16
ATOM     14  C   UNL     1       3.631   5.171  17.939  0.00  0.00    +0.000 C 
ATOM     15  C   UNL     1       2.213   5.762  18.140  0.00  0.00    +0.000 C 
ATOM     16  C   UNL     1       2.886   7.143  18.342  0.00  0.00    +0.000 C 
ATOM     17  C   UNL     1       4.052   6.599  17.482  0.00  0.00    +0.000 C 
BRANCH  14  18
ATOM     18  O   UNL     1       4.333   4.668  19.102  0.00  0.00    +0.000 OA
BRANCH  18  20
ATOM     19  C   UNL     1       3.791   2.593  18.009  0.00  0.00    +0.000 C 
ATOM     20  C   UNL     1       4.469   3.251  19.195  0.00  0.00    +0.000 C 
ENDBRANCH  18  20
ENDBRANCH  14  18
ENDBRANCH   1  16
TORSDOF 4
ENDMDL
