MODEL 1
REMARK VINA RESULT:      -8.4      0.000      0.000
REMARK  Name = 
REMARK  4 active torsions:
REMARK  status: ('A' for Active; 'I' for Inactive)
REMARK    1  A    between atoms: C_2  and  C_4
REMARK    2  A    between atoms: N_14  and  N_15
REMARK    3  A    between atoms: C_16  and  C_18
REMARK    4  A    between atoms: C_23  and  O_24
REMARK                            x       y       z     vdW  Elec       q    Type
REMARK                         _______ _______ _______ _____ _____    ______ ____
ROOT
ATOM      1  C   UNL     1       3.224   4.204  19.589  0.00  0.00    +0.000 A 
ATOM      2  C   UNL     1       2.607   5.225  20.206  0.00  0.00    +0.000 A 
ATOM      3  C   UNL     1       2.415   6.494  19.527  0.00  0.00    +0.000 A 
ATOM      4  C   UNL     1       1.820   7.586  20.162  0.00  0.00    +0.000 A 
ATOM      5  C   UNL     1       1.661   8.792  19.475  0.00  0.00    +0.000 A 
ATOM      6  C   UNL     1       2.090   8.910  18.152  0.00  0.00    +0.000 A 
ATOM      7  C   UNL     1       2.687   7.823  17.512  0.00  0.00    +0.000 A 
ATOM      8  C   UNL     1       2.846   6.627  18.212  0.00  0.00    +0.000 A 
ATOM      9  O   UNL     1       3.469   5.557  17.544  0.00  0.00    +0.000 OA
ATOM     10  C   UNL     1       3.690   4.344  18.192  0.00  0.00    +0.000 A 
ATOM     11  N   UNL     1       4.291   3.368  17.580  0.00  0.00    +0.000 NA
ENDROOT
BRANCH   1  13
ATOM     12  N   UNL     1       4.586   2.307  20.261  0.00  0.00    +0.000 N 
ATOM     13  C   UNL     1       3.401   2.958  20.394  0.00  0.00    +0.000 C 
ATOM     14  O   UNL     1       2.541   2.535  21.160  0.00  0.00    +0.000 OA
ATOM     15  H   UNL     1       4.708   1.422  20.733  0.00  0.00    +0.000 HD
ATOM     16  H   UNL     1       5.255   2.549  19.528  0.00  0.00    +0.000 HD
ENDBRANCH   1  13
BRANCH  11  17
ATOM     17  N   UNL     1       4.689   3.571  16.296  0.00  0.00    +0.000 N 
ATOM     18  C   UNL     1       5.997   3.937  16.038  0.00  0.00    +0.000 C 
ATOM     19  O   UNL     1       6.845   4.099  16.915  0.00  0.00    +0.000 OA
ATOM     20  H   UNL     1       4.022   3.454  15.533  0.00  0.00    +0.000 HD
BRANCH  18  21
ATOM     21  C   UNL     1       6.366   4.143  14.601  0.00  0.00    +0.000 A 
ATOM     22  C   UNL     1       5.704   3.347  13.651  0.00  0.00    +0.000 A 
ATOM     23  C   UNL     1       5.994   3.462  12.289  0.00  0.00    +0.000 A 
ATOM     24  C   UNL     1       6.948   4.382  11.860  0.00  0.00    +0.000 A 
ATOM     25  C   UNL     1       7.613   5.182  12.788  0.00  0.00    +0.000 A 
ATOM     26  C   UNL     1       7.327   5.062  14.152  0.00  0.00    +0.000 A 
BRANCH  26  27
ATOM     27  O   UNL     1       8.010   5.856  15.038  0.00  0.00    +0.000 OA
ATOM     28  H   UNL     1       7.912   6.784  14.760  0.00  0.00    +0.000 HD
ENDBRANCH  26  27
ENDBRANCH  18  21
ENDBRANCH  11  17
TORSDOF 4
ENDMDL
MODEL 2
REMARK VINA RESULT:      -8.3      3.505      7.825
REMARK  Name = 
REMARK  4 active torsions:
REMARK  status: ('A' for Active; 'I' for Inactive)
REMARK    1  A    between atoms: C_2  and  C_4
REMARK    2  A    between atoms: N_14  and  N_15
REMARK    3  A    between atoms: C_16  and  C_18
REMARK    4  A    between atoms: C_23  and  O_24
REMARK                            x       y       z     vdW  Elec       q    Type
REMARK                         _______ _______ _______ _____ _____    ______ ____
ROOT
ATOM      1  C   UNL     1       2.601   4.470  20.044  0.00  0.00    +0.000 A 
ATOM      2  C   UNL     1       3.397   3.859  19.152  0.00  0.00    +0.000 A 
ATOM      3  C   UNL     1       4.045   4.615  18.096  0.00  0.00    +0.000 A 
ATOM      4  C   UNL     1       4.840   3.997  17.129  0.00  0.00    +0.000 A 
ATOM      5  C   UNL     1       5.440   4.761  16.124  0.00  0.00    +0.000 A 
ATOM      6  C   UNL     1       5.253   6.144  16.087  0.00  0.00    +0.000 A 
ATOM      7  C   UNL     1       4.458   6.768  17.050  0.00  0.00    +0.000 A 
ATOM      8  C   UNL     1       3.860   5.992  18.042  0.00  0.00    +0.000 A 
ATOM      9  O   UNL     1       3.050   6.650  18.987  0.00  0.00    +0.000 OA
ATOM     10  C   UNL     1       2.395   5.934  19.985  0.00  0.00    +0.000 A 
ATOM     11  N   UNL     1       1.626   6.542  20.838  0.00  0.00    +0.000 NA
ENDROOT
BRANCH   1  13
ATOM     12  N   UNL     1       0.684   3.184  20.807  0.00  0.00    +0.000 N 
ATOM     13  C   UNL     1       1.955   3.589  21.063  0.00  0.00    +0.000 C 
ATOM     14  O   UNL     1       2.533   3.220  22.082  0.00  0.00    +0.000 OA
ATOM     15  H   UNL     1       0.193   2.651  21.511  0.00  0.00    +0.000 HD
ATOM     16  H   UNL     1       0.132   3.591  20.051  0.00  0.00    +0.000 HD
ENDBRANCH   1  13
BRANCH  11  17
ATOM     17  N   UNL     1       1.488   7.889  20.722  0.00  0.00    +0.000 N 
ATOM     18  C   UNL     1       0.345   8.501  21.203  0.00  0.00    +0.000 C 
ATOM     19  O   UNL     1      -0.580   7.891  21.738  0.00  0.00    +0.000 OA
ATOM     20  H   UNL     1       2.225   8.440  20.282  0.00  0.00    +0.000 HD
BRANCH  18  21
ATOM     21  C   UNL     1       0.260   9.987  21.044  0.00  0.00    +0.000 A 
ATOM     22  C   UNL     1       0.530  10.509  19.767  0.00  0.00    +0.000 A 
ATOM     23  C   UNL     1       0.486  11.885  19.530  0.00  0.00    +0.000 A 
ATOM     24  C   UNL     1       0.167  12.758  20.567  0.00  0.00    +0.000 A 
ATOM     25  C   UNL     1      -0.106  12.257  21.841  0.00  0.00    +0.000 A 
ATOM     26  C   UNL     1      -0.057  10.880  22.079  0.00  0.00    +0.000 A 
BRANCH  26  27
ATOM     27  O   UNL     1      -0.318  10.424  23.347  0.00  0.00    +0.000 OA
ATOM     28  H   UNL     1      -0.242  11.173  23.966  0.00  0.00    +0.000 HD
ENDBRANCH  26  27
ENDBRANCH  18  21
ENDBRANCH  11  17
TORSDOF 4
ENDMDL
MODEL 3
REMARK VINA RESULT:      -8.1      1.114      1.226
REMARK  Name = 
REMARK  4 active torsions:
REMARK  status: ('A' for Active; 'I' for Inactive)
REMARK    1  A    between atoms: C_2  and  C_4
REMARK    2  A    between atoms: N_14  and  N_15
REMARK    3  A    between atoms: C_16  and  C_18
REMARK    4  A    between atoms: C_23  and  O_24
REMARK                            x       y       z     vdW  Elec       q    Type
REMARK                         _______ _______ _______ _____ _____    ______ ____
ROOT
ATOM      1  C   UNL     1       2.261   4.620  20.208  0.00  0.00    +0.000 A 
ATOM      2  C   UNL     1       1.677   5.693  20.764  0.00  0.00    +0.000 A 
ATOM      3  C   UNL     1       1.689   6.978  20.086  0.00  0.00    +0.000 A 
ATOM      4  C   UNL     1       1.130   8.120  20.664  0.00  0.00    +0.000 A 
ATOM      5  C   UNL     1       1.170   9.339  19.981  0.00  0.00    +0.000 A 
ATOM      6  C   UNL     1       1.761   9.419  18.719  0.00  0.00    +0.000 A 
ATOM      7  C   UNL     1       2.322   8.281  18.137  0.00  0.00    +0.000 A 
ATOM      8  C   UNL     1       2.282   7.073  18.832  0.00  0.00    +0.000 A 
ATOM      9  O   UNL     1       2.873   5.950  18.225  0.00  0.00    +0.000 OA
ATOM     10  C   UNL     1       2.900   4.720  18.876  0.00  0.00    +0.000 A 
ATOM     11  N   UNL     1       3.472   3.692  18.324  0.00  0.00    +0.000 NA
ENDROOT
BRANCH   1  13
ATOM     12  N   UNL     1       1.845   2.230  20.357  0.00  0.00    +0.000 N 
ATOM     13  C   UNL     1       2.222   3.360  21.009  0.00  0.00    +0.000 C 
ATOM     14  O   UNL     1       2.532   3.319  22.196  0.00  0.00    +0.000 OA
ATOM     15  H   UNL     1       1.735   1.377  20.887  0.00  0.00    +0.000 HD
ATOM     16  H   UNL     1       1.442   2.259  19.418  0.00  0.00    +0.000 HD
ENDBRANCH   1  13
BRANCH  11  17
ATOM     17  N   UNL     1       4.035   3.860  17.099  0.00  0.00    +0.000 N 
ATOM     18  C   UNL     1       5.385   4.145  17.003  0.00  0.00    +0.000 C 
ATOM     19  O   UNL     1       6.127   4.263  17.977  0.00  0.00    +0.000 OA
ATOM     20  H   UNL     1       3.461   3.776  16.260  0.00  0.00    +0.000 HD
BRANCH  18  21
ATOM     21  C   UNL     1       5.939   4.316  15.622  0.00  0.00    +0.000 A 
ATOM     22  C   UNL     1       5.359   3.544  14.601  0.00  0.00    +0.000 A 
ATOM     23  C   UNL     1       5.820   3.631  13.285  0.00  0.00    +0.000 A 
ATOM     24  C   UNL     1       6.866   4.496  12.973  0.00  0.00    +0.000 A 
ATOM     25  C   UNL     1       7.453   5.271  13.973  0.00  0.00    +0.000 A 
ATOM     26  C   UNL     1       6.994   5.180  15.292  0.00  0.00    +0.000 A 
BRANCH  26  27
ATOM     27  O   UNL     1       7.603   5.948  16.252  0.00  0.00    +0.000 OA
ATOM     28  H   UNL     1       8.155   6.617  15.809  0.00  0.00    +0.000 HD
ENDBRANCH  26  27
ENDBRANCH  18  21
ENDBRANCH  11  17
TORSDOF 4
ENDMDL
MODEL 4
REMARK VINA RESULT:      -8.1      3.245      7.869
REMARK  Name = 
REMARK  4 active torsions:
REMARK  status: ('A' for Active; 'I' for Inactive)
REMARK    1  A    between atoms: C_2  and  C_4
REMARK    2  A    between atoms: N_14  and  N_15
REMARK    3  A    between atoms: C_16  and  C_18
REMARK    4  A    between atoms: C_23  and  O_24
REMARK                            x       y       z     vdW  Elec       q    Type
REMARK                         _______ _______ _______ _____ _____    ______ ____
ROOT
ATOM      1  C   UNL     1       4.188   5.842  17.126  0.00  0.00    +0.000 A 
ATOM      2  C   UNL     1       4.195   4.500  17.104  0.00  0.00    +0.000 A 
ATOM      3  C   UNL     1       3.230   3.740  17.880  0.00  0.00    +0.000 A 
ATOM      4  C   UNL     1       3.246   2.344  17.911  0.00  0.00    +0.000 A 
ATOM      5  C   UNL     1       2.304   1.652  18.677  0.00  0.00    +0.000 A 
ATOM      6  C   UNL     1       1.342   2.351  19.408  0.00  0.00    +0.000 A 
ATOM      7  C   UNL     1       1.322   3.746  19.382  0.00  0.00    +0.000 A 
ATOM      8  C   UNL     1       2.272   4.424  18.619  0.00  0.00    +0.000 A 
ATOM      9  O   UNL     1       2.235   5.830  18.630  0.00  0.00    +0.000 OA
ATOM     10  C   UNL     1       3.173   6.573  17.918  0.00  0.00    +0.000 A 
ATOM     11  N   UNL     1       3.154   7.872  17.954  0.00  0.00    +0.000 NA
ENDROOT
BRANCH   1  13
ATOM     12  N   UNL     1       6.238   7.142  17.013  0.00  0.00    +0.000 N 
ATOM     13  C   UNL     1       5.248   6.520  16.322  0.00  0.00    +0.000 C 
ATOM     14  O   UNL     1       5.257   6.511  15.094  0.00  0.00    +0.000 OA
ATOM     15  H   UNL     1       6.927   7.674  16.500  0.00  0.00    +0.000 HD
ATOM     16  H   UNL     1       6.178   7.293  18.021  0.00  0.00    +0.000 HD
ENDBRANCH   1  13
BRANCH  11  17
ATOM     17  N   UNL     1       2.190   8.473  18.701  0.00  0.00    +0.000 N 
ATOM     18  C   UNL     1       1.697   9.705  18.312  0.00  0.00    +0.000 C 
ATOM     19  O   UNL     1       2.084  10.310  17.313  0.00  0.00    +0.000 OA
ATOM     20  H   UNL     1       1.839   8.014  19.541  0.00  0.00    +0.000 HD
BRANCH  18  21
ATOM     21  C   UNL     1       0.637  10.309  19.181  0.00  0.00    +0.000 A 
ATOM     22  C   UNL     1       0.903  10.377  20.559  0.00  0.00    +0.000 A 
ATOM     23  C   UNL     1      -0.034  10.914  21.446  0.00  0.00    +0.000 A 
ATOM     24  C   UNL     1      -1.249  11.393  20.964  0.00  0.00    +0.000 A 
ATOM     25  C   UNL     1      -1.530  11.335  19.598  0.00  0.00    +0.000 A 
ATOM     26  C   UNL     1      -0.593  10.793  18.711  0.00  0.00    +0.000 A 
BRANCH  26  27
ATOM     27  O   UNL     1      -0.909  10.739  17.377  0.00  0.00    +0.000 OA
ATOM     28  H   UNL     1      -1.876  10.804  17.285  0.00  0.00    +0.000 HD
ENDBRANCH  26  27
ENDBRANCH  18  21
ENDBRANCH  11  17
TORSDOF 4
ENDMDL
MODEL 5
REMARK VINA RESULT:      -8.1      3.287      7.713
REMARK  Name = 
REMARK  4 active torsions:
REMARK  status: ('A' for Active; 'I' for Inactive)
REMARK    1  A    between atoms: C_2  and  C_4
REMARK    2  A    between atoms: N_14  and  N_15
REMARK    3  A    between atoms: C_16  and  C_18
REMARK    4  A    between atoms: C_23  and  O_24
REMARK                            x       y       z     vdW  Elec       q    Type
REMARK                         _______ _______ _______ _____ _____    ______ ____
ROOT
ATOM      1  C   UNL     1       2.453   4.425  19.927  0.00  0.00    +0.000 A 
ATOM      2  C   UNL     1       3.244   3.852  19.006  0.00  0.00    +0.000 A 
ATOM      3  C   UNL     1       3.924   4.659  18.008  0.00  0.00    +0.000 A 
ATOM      4  C   UNL     1       4.714   4.084  17.010  0.00  0.00    +0.000 A 
ATOM      5  C   UNL     1       5.345   4.896  16.064  0.00  0.00    +0.000 A 
ATOM      6  C   UNL     1       5.194   6.283  16.116  0.00  0.00    +0.000 A 
ATOM      7  C   UNL     1       4.405   6.863  17.110  0.00  0.00    +0.000 A 
ATOM      8  C   UNL     1       3.775   6.041  18.043  0.00  0.00    +0.000 A 
ATOM      9  O   UNL     1       2.972   6.656  19.020  0.00  0.00    +0.000 OA
ATOM     10  C   UNL     1       2.286   5.895  19.963  0.00  0.00    +0.000 A 
ATOM     11  N   UNL     1       1.523   6.466  20.846  0.00  0.00    +0.000 NA
ENDROOT
BRANCH   1  13
ATOM     12  N   UNL     1       0.645   2.883  20.438  0.00  0.00    +0.000 N 
ATOM     13  C   UNL     1       1.773   3.497  20.880  0.00  0.00    +0.000 C 
ATOM     14  O   UNL     1       2.205   3.269  22.006  0.00  0.00    +0.000 OA
ATOM     15  H   UNL     1       0.120   2.309  21.083  0.00  0.00    +0.000 HD
ATOM     16  H   UNL     1       0.183   3.164  19.572  0.00  0.00    +0.000 HD
ENDBRANCH   1  13
BRANCH  11  17
ATOM     17  N   UNL     1       1.422   7.821  20.818  0.00  0.00    +0.000 N 
ATOM     18  C   UNL     1       0.239   8.424  21.205  0.00  0.00    +0.000 C 
ATOM     19  O   UNL     1      -0.753   7.799  21.578  0.00  0.00    +0.000 OA
ATOM     20  H   UNL     1       2.215   8.384  20.511  0.00  0.00    +0.000 HD
BRANCH  18  21
ATOM     21  C   UNL     1       0.198   9.920  21.150  0.00  0.00    +0.000 A 
ATOM     22  C   UNL     1      -0.413  10.582  22.229  0.00  0.00    +0.000 A 
ATOM     23  C   UNL     1      -0.507  11.975  22.256  0.00  0.00    +0.000 A 
ATOM     24  C   UNL     1       0.014  12.726  21.205  0.00  0.00    +0.000 A 
ATOM     25  C   UNL     1       0.625  12.086  20.127  0.00  0.00    +0.000 A 
ATOM     26  C   UNL     1       0.714  10.690  20.097  0.00  0.00    +0.000 A 
BRANCH  26  27
ATOM     27  O   UNL     1       1.311  10.093  19.014  0.00  0.00    +0.000 OA
ATOM     28  H   UNL     1       1.210   9.128  19.099  0.00  0.00    +0.000 HD
ENDBRANCH  26  27
ENDBRANCH  18  21
ENDBRANCH  11  17
TORSDOF 4
ENDMDL
MODEL 6
REMARK VINA RESULT:      -8.0      3.419      7.727
REMARK  Name = 
REMARK  4 active torsions:
REMARK  status: ('A' for Active; 'I' for Inactive)
REMARK    1  A    between atoms: C_2  and  C_4
REMARK    2  A    between atoms: N_14  and  N_15
REMARK    3  A    between atoms: C_16  and  C_18
REMARK    4  A    between atoms: C_23  and  O_24
REMARK                            x       y       z     vdW  Elec       q    Type
REMARK                         _______ _______ _______ _____ _____    ______ ____
ROOT
ATOM      1  C   UNL     1       4.307   6.177  17.918  0.00  0.00    +0.000 A 
ATOM      2  C   UNL     1       4.555   4.972  18.455  0.00  0.00    +0.000 A 
ATOM      3  C   UNL     1       3.615   4.365  19.380  0.00  0.00    +0.000 A 
ATOM      4  C   UNL     1       3.871   3.134  19.989  0.00  0.00    +0.000 A 
ATOM      5  C   UNL     1       2.942   2.588  20.879  0.00  0.00    +0.000 A 
ATOM      6  C   UNL     1       1.754   3.266  21.158  0.00  0.00    +0.000 A 
ATOM      7  C   UNL     1       1.492   4.496  20.554  0.00  0.00    +0.000 A 
ATOM      8  C   UNL     1       2.431   5.033  19.674  0.00  0.00    +0.000 A 
ATOM      9  O   UNL     1       2.145   6.284  19.096  0.00  0.00    +0.000 OA
ATOM     10  C   UNL     1       3.052   6.895  18.234  0.00  0.00    +0.000 A 
ATOM     11  N   UNL     1       2.796   8.063  17.725  0.00  0.00    +0.000 NA
ENDROOT
BRANCH   1  13
ATOM     12  N   UNL     1       5.069   6.757  15.684  0.00  0.00    +0.000 N 
ATOM     13  C   UNL     1       5.360   6.723  17.010  0.00  0.00    +0.000 C 
ATOM     14  O   UNL     1       6.437   7.145  17.422  0.00  0.00    +0.000 OA
ATOM     15  H   UNL     1       5.787   7.050  15.037  0.00  0.00    +0.000 HD
ATOM     16  H   UNL     1       4.251   6.281  15.300  0.00  0.00    +0.000 HD
ENDBRANCH   1  13
BRANCH  11  17
ATOM     17  N   UNL     1       1.622   8.659  18.060  0.00  0.00    +0.000 N 
ATOM     18  C   UNL     1       1.555  10.038  18.134  0.00  0.00    +0.000 C 
ATOM     19  O   UNL     1       2.512  10.779  17.916  0.00  0.00    +0.000 OA
ATOM     20  H   UNL     1       0.799   8.088  18.255  0.00  0.00    +0.000 HD
BRANCH  18  21
ATOM     21  C   UNL     1       0.230  10.628  18.507  0.00  0.00    +0.000 A 
ATOM     22  C   UNL     1      -0.905  10.112  17.857  0.00  0.00    +0.000 A 
ATOM     23  C   UNL     1      -2.180  10.610  18.134  0.00  0.00    +0.000 A 
ATOM     24  C   UNL     1      -2.338  11.629  19.069  0.00  0.00    +0.000 A 
ATOM     25  C   UNL     1      -1.224  12.152  19.726  0.00  0.00    +0.000 A 
ATOM     26  C   UNL     1       0.054  11.657  19.444  0.00  0.00    +0.000 A 
BRANCH  26  27
ATOM     27  O   UNL     1       1.129  12.204  20.100  0.00  0.00    +0.000 OA
ATOM     28  H   UNL     1       1.860  12.303  19.464  0.00  0.00    +0.000 HD
ENDBRANCH  26  27
ENDBRANCH  18  21
ENDBRANCH  11  17
TORSDOF 4
ENDMDL
MODEL 7
REMARK VINA RESULT:      -7.9      3.266      7.837
REMARK  Name = 
REMARK  4 active torsions:
REMARK  status: ('A' for Active; 'I' for Inactive)
REMARK    1  A    between atoms: C_2  and  C_4
REMARK    2  A    between atoms: N_14  and  N_15
REMARK    3  A    between atoms: C_16  and  C_18
REMARK    4  A    between atoms: C_23  and  O_24
REMARK                            x       y       z     vdW  Elec       q    Type
REMARK                         _______ _______ _______ _____ _____    ______ ____
ROOT
ATOM      1  C   UNL     1       4.200   5.894  17.126  0.00  0.00    +0.000 A 
ATOM      2  C   UNL     1       4.233   4.552  17.112  0.00  0.00    +0.000 A 
ATOM      3  C   UNL     1       3.273   3.779  17.878  0.00  0.00    +0.000 A 
ATOM      4  C   UNL     1       3.315   2.383  17.918  0.00  0.00    +0.000 A 
ATOM      5  C   UNL     1       2.375   1.677  18.674  0.00  0.00    +0.000 A 
ATOM      6  C   UNL     1       1.389   2.362  19.387  0.00  0.00    +0.000 A 
ATOM      7  C   UNL     1       1.343   3.756  19.352  0.00  0.00    +0.000 A 
ATOM      8  C   UNL     1       2.290   4.448  18.599  0.00  0.00    +0.000 A 
ATOM      9  O   UNL     1       2.227   5.854  18.601  0.00  0.00    +0.000 OA
ATOM     10  C   UNL     1       3.161   6.610  17.898  0.00  0.00    +0.000 A 
ATOM     11  N   UNL     1       3.115   7.909  17.926  0.00  0.00    +0.000 NA
ENDROOT
BRANCH   1  13
ATOM     12  N   UNL     1       6.273   7.160  17.032  0.00  0.00    +0.000 N 
ATOM     13  C   UNL     1       5.259   6.588  16.333  0.00  0.00    +0.000 C 
ATOM     14  O   UNL     1       5.246   6.634  15.106  0.00  0.00    +0.000 OA
ATOM     15  H   UNL     1       6.963   7.702  16.531  0.00  0.00    +0.000 HD
ATOM     16  H   UNL     1       6.234   7.267  18.047  0.00  0.00    +0.000 HD
ENDBRANCH   1  13
BRANCH  11  17
ATOM     17  N   UNL     1       2.130   8.495  18.656  0.00  0.00    +0.000 N 
ATOM     18  C   UNL     1       1.771   9.803  18.387  0.00  0.00    +0.000 C 
ATOM     19  O   UNL     1       2.299  10.489  17.513  0.00  0.00    +0.000 OA
ATOM     20  H   UNL     1       1.664   7.970  19.395  0.00  0.00    +0.000 HD
BRANCH  18  21
ATOM     21  C   UNL     1       0.677  10.386  19.228  0.00  0.00    +0.000 A 
ATOM     22  C   UNL     1      -0.184  11.307  18.608  0.00  0.00    +0.000 A 
ATOM     23  C   UNL     1      -1.224  11.910  19.320  0.00  0.00    +0.000 A 
ATOM     24  C   UNL     1      -1.420  11.593  20.662  0.00  0.00    +0.000 A 
ATOM     25  C   UNL     1      -0.576  10.680  21.294  0.00  0.00    +0.000 A 
ATOM     26  C   UNL     1       0.469  10.081  20.582  0.00  0.00    +0.000 A 
BRANCH  26  27
ATOM     27  O   UNL     1       1.288   9.196  21.239  0.00  0.00    +0.000 OA
ATOM     28  H   UNL     1       1.331   8.373  20.721  0.00  0.00    +0.000 HD
ENDBRANCH  26  27
ENDBRANCH  18  21
ENDBRANCH  11  17
TORSDOF 4
ENDMDL
MODEL 8
REMARK VINA RESULT:      -7.8      3.133      7.383
REMARK  Name = 
REMARK  4 active torsions:
REMARK  status: ('A' for Active; 'I' for Inactive)
REMARK    1  A    between atoms: C_2  and  C_4
REMARK    2  A    between atoms: N_14  and  N_15
REMARK    3  A    between atoms: C_16  and  C_18
REMARK    4  A    between atoms: C_23  and  O_24
REMARK                            x       y       z     vdW  Elec       q    Type
REMARK                         _______ _______ _______ _____ _____    ______ ____
ROOT
ATOM      1  C   UNL     1       2.644   4.659  19.561  0.00  0.00    +0.000 A 
ATOM      2  C   UNL     1       3.402   3.909  18.746  0.00  0.00    +0.000 A 
ATOM      3  C   UNL     1       4.124   4.514  17.641  0.00  0.00    +0.000 A 
ATOM      4  C   UNL     1       4.883   3.750  16.750  0.00  0.00    +0.000 A 
ATOM      5  C   UNL     1       5.556   4.371  15.695  0.00  0.00    +0.000 A 
ATOM      6  C   UNL     1       5.480   5.755  15.530  0.00  0.00    +0.000 A 
ATOM      7  C   UNL     1       4.723   6.524  16.416  0.00  0.00    +0.000 A 
ATOM      8  C   UNL     1       4.050   5.891  17.460  0.00  0.00    +0.000 A 
ATOM      9  O   UNL     1       3.281   6.692  18.323  0.00  0.00    +0.000 OA
ATOM     10  C   UNL     1       2.556   6.123  19.367  0.00  0.00    +0.000 A 
ATOM     11  N   UNL     1       1.824   6.864  20.145  0.00  0.00    +0.000 NA
ENDROOT
BRANCH   1  13
ATOM     12  N   UNL     1       0.582   3.738  20.461  0.00  0.00    +0.000 N 
ATOM     13  C   UNL     1       1.915   3.928  20.641  0.00  0.00    +0.000 C 
ATOM     14  O   UNL     1       2.476   3.492  21.642  0.00  0.00    +0.000 OA
ATOM     15  H   UNL     1       0.047   3.315  21.206  0.00  0.00    +0.000 HD
ATOM     16  H   UNL     1       0.066   4.213  19.719  0.00  0.00    +0.000 HD
ENDBRANCH   1  13
BRANCH  11  17
ATOM     17  N   UNL     1       1.796   8.202  19.906  0.00  0.00    +0.000 N 
ATOM     18  C   UNL     1       0.811   8.977  20.490  0.00  0.00    +0.000 C 
ATOM     19  O   UNL     1      -0.065   8.525  21.226  0.00  0.00    +0.000 OA
ATOM     20  H   UNL     1       2.498   8.625  19.299  0.00  0.00    +0.000 HD
BRANCH  18  21
ATOM     21  C   UNL     1       0.840  10.443  20.185  0.00  0.00    +0.000 A 
ATOM     22  C   UNL     1       0.516  11.321  21.234  0.00  0.00    +0.000 A 
ATOM     23  C   UNL     1       0.506  12.703  21.036  0.00  0.00    +0.000 A 
ATOM     24  C   UNL     1       0.825  13.227  19.786  0.00  0.00    +0.000 A 
ATOM     25  C   UNL     1       1.151  12.371  18.733  0.00  0.00    +0.000 A 
ATOM     26  C   UNL     1       1.155  10.986  18.930  0.00  0.00    +0.000 A 
BRANCH  26  27
ATOM     27  O   UNL     1       1.468  10.174  17.869  0.00  0.00    +0.000 OA
ATOM     28  H   UNL     1       0.855  10.372  17.138  0.00  0.00    +0.000 HD
ENDBRANCH  26  27
ENDBRANCH  18  21
ENDBRANCH  11  17
TORSDOF 4
ENDMDL
MODEL 9
REMARK VINA RESULT:      -7.5      4.963      7.116
REMARK  Name = 
REMARK  4 active torsions:
REMARK  status: ('A' for Active; 'I' for Inactive)
REMARK    1  A    between atoms: C_2  and  C_4
REMARK    2  A    between atoms: N_14  and  N_15
REMARK    3  A    between atoms: C_16  and  C_18
REMARK    4  A    between atoms: C_23  and  O_24
REMARK                            x       y       z     vdW  Elec       q    Type
REMARK                         _______ _______ _______ _____ _____    ______ ____
ROOT
ATOM      1  C   UNL     1      -0.854  11.143  19.766  0.00  0.00    +0.000 A 
ATOM      2  C   UNL     1      -2.034  11.561  19.284  0.00  0.00    +0.000 A 
ATOM      3  C   UNL     1      -2.521  11.086  18.001  0.00  0.00    +0.000 A 
ATOM      4  C   UNL     1      -3.724  11.541  17.455  0.00  0.00    +0.000 A 
ATOM      5  C   UNL     1      -4.152  11.064  16.214  0.00  0.00    +0.000 A 
ATOM      6  C   UNL     1      -3.386  10.127  15.518  0.00  0.00    +0.000 A 
ATOM      7  C   UNL     1      -2.183   9.670  16.057  0.00  0.00    +0.000 A 
ATOM      8  C   UNL     1      -1.764  10.160  17.294  0.00  0.00    +0.000 A 
ATOM      9  O   UNL     1      -0.537   9.692  17.800  0.00  0.00    +0.000 OA
ATOM     10  C   UNL     1      -0.041  10.163  19.013  0.00  0.00    +0.000 A 
ATOM     11  N   UNL     1       1.106   9.749  19.463  0.00  0.00    +0.000 NA
ENDROOT
BRANCH   1  13
ATOM     12  N   UNL     1       0.657  12.535  21.065  0.00  0.00    +0.000 N 
ATOM     13  C   UNL     1      -0.433  11.726  21.076  0.00  0.00    +0.000 C 
ATOM     14  O   UNL     1      -1.040  11.514  22.122  0.00  0.00    +0.000 OA
ATOM     15  H   UNL     1       1.012  12.883  21.944  0.00  0.00    +0.000 HD
ATOM     16  H   UNL     1       1.265  12.609  20.247  0.00  0.00    +0.000 HD
ENDBRANCH   1  13
BRANCH  11  17
ATOM     17  N   UNL     1       1.794   8.846  18.716  0.00  0.00    +0.000 N 
ATOM     18  C   UNL     1       2.159   7.635  19.277  0.00  0.00    +0.000 C 
ATOM     19  O   UNL     1       1.899   7.316  20.436  0.00  0.00    +0.000 OA
ATOM     20  H   UNL     1       2.038   9.065  17.750  0.00  0.00    +0.000 HD
BRANCH  18  21
ATOM     21  C   UNL     1       2.914   6.688  18.397  0.00  0.00    +0.000 A 
ATOM     22  C   UNL     1       3.918   7.236  17.581  0.00  0.00    +0.000 A 
ATOM     23  C   UNL     1       4.665   6.428  16.720  0.00  0.00    +0.000 A 
ATOM     24  C   UNL     1       4.419   5.058  16.668  0.00  0.00    +0.000 A 
ATOM     25  C   UNL     1       3.427   4.496  17.471  0.00  0.00    +0.000 A 
ATOM     26  C   UNL     1       2.676   5.307  18.330  0.00  0.00    +0.000 A 
BRANCH  26  27
ATOM     27  O   UNL     1       1.699   4.721  19.097  0.00  0.00    +0.000 OA
ATOM     28  H   UNL     1       0.935   4.526  18.526  0.00  0.00    +0.000 HD
ENDBRANCH  26  27
ENDBRANCH  18  21
ENDBRANCH  11  17
TORSDOF 4
ENDMDL
