MODEL 1
REMARK VINA RESULT:      -7.3      0.000      0.000
REMARK  Name = 
REMARK  14 active torsions:
REMARK  status: ('A' for Active; 'I' for Inactive)
REMARK    1  A    between atoms: C_1  and  O_2
REMARK    2  A    between atoms: O_2  and  C_3
REMARK    3  A    between atoms: N_9  and  C_10
REMARK    4  A    between atoms: C_10  and  C_11
REMARK    5  A    between atoms: C_11  and  C_12
REMARK    6  A    between atoms: C_12  and  C_13
REMARK    7  A    between atoms: C_13  and  C_14
REMARK    8  A    between atoms: C_14  and  C_15
REMARK    9  A    between atoms: N_17  and  C_18
REMARK   10  A    between atoms: C_18  and  C_19
REMARK   11  A    between atoms: C_19  and  C_20
REMARK   12  A    between atoms: C_20  and  N_21
REMARK   13  A    between atoms: C_31  and  O_32
REMARK   14  A    between atoms: O_32  and  C_33
REMARK                            x       y       z     vdW  Elec       q    Type
REMARK                         _______ _______ _______ _____ _____    ______ ____
ROOT
ATOM      1  C   UNL     1       1.714   9.425  19.792  0.00  0.00    +0.000 C 
ENDROOT
BRANCH   1   8
ATOM      2  C   UNL     1      -3.996  11.673  17.837  0.00  0.00    +0.000 A 
ATOM      3  C   UNL     1      -3.268  11.894  19.023  0.00  0.00    +0.000 A 
ATOM      4  C   UNL     1      -2.014  11.306  19.192  0.00  0.00    +0.000 A 
ATOM      5  N   UNL     1      -1.301  11.452  20.384  0.00  0.00    +0.000 N 
ATOM      6  C   UNL     1      -0.094  10.844  20.627  0.00  0.00    +0.000 A 
ATOM      7  O   UNL     1       0.458  10.995  21.718  0.00  0.00    +0.000 OA
ATOM      8  N   UNL     1       0.435  10.082  19.594  0.00  0.00    +0.000 N 
ATOM      9  C   UNL     1      -0.168   9.911  18.356  0.00  0.00    +0.000 A 
ATOM     10  O   UNL     1       0.319   9.258  17.436  0.00  0.00    +0.000 OA
ATOM     11  C   UNL     1      -1.477  10.549  18.164  0.00  0.00    +0.000 A 
ATOM     12  C   UNL     1      -2.159  10.373  16.961  0.00  0.00    +0.000 A 
ATOM     13  C   UNL     1      -3.430  10.917  16.786  0.00  0.00    +0.000 A 
ATOM     14  H   UNL     1      -1.673  12.009  21.143  0.00  0.00    +0.000 HD
BRANCH   2  16
ATOM     15  C   UNL     1      -6.343  11.446  18.148  0.00  0.00    +0.000 C 
ATOM     16  O   UNL     1      -5.231  12.277  17.819  0.00  0.00    +0.000 OA
ENDBRANCH   2  16
BRANCH  13  17
ATOM     17  O   UNL     1      -4.151  10.770  15.637  0.00  0.00    +0.000 OA
ATOM     18  C   UNL     1      -3.516  10.214  14.495  0.00  0.00    +0.000 C 
ENDBRANCH  13  17
ENDBRANCH   1   8
BRANCH   1  19
ATOM     19  C   UNL     1       1.567   8.053  20.463  0.00  0.00    +0.000 C 
BRANCH  19  20
ATOM     20  C   UNL     1       2.416   6.982  19.767  0.00  0.00    +0.000 C 
BRANCH  20  21
ATOM     21  C   UNL     1       2.462   7.130  18.245  0.00  0.00    +0.000 C 
BRANCH  21  22
ATOM     22  C   UNL     1       3.873   7.429  17.744  0.00  0.00    +0.000 C 
BRANCH  22  23
ATOM     23  C   UNL     1       4.390   6.289  16.910  0.00  0.00    +0.000 C 
ATOM     24  O   UNL     1       5.105   6.476  15.925  0.00  0.00    +0.000 OA
ATOM     25  N   UNL     1       4.012   5.052  17.364  0.00  0.00    +0.000 N 
ATOM     26  H   UNL     1       3.554   4.972  18.268  0.00  0.00    +0.000 HD
BRANCH  25  27
ATOM     27  C   UNL     1       4.481   3.846  16.716  0.00  0.00    +0.000 C 
BRANCH  27  28
ATOM     28  C   UNL     1       4.401   2.655  17.654  0.00  0.00    +0.000 C 
BRANCH  28  29
ATOM     29  C   UNL     1       2.952   2.216  17.835  0.00  0.00    +0.000 C 
BRANCH  29  30
ATOM     30  N   UNL     1       2.460   2.554  19.155  0.00  0.00    +0.000 N 
ATOM     31  C   UNL     1       3.328   2.931  20.240  0.00  0.00    +0.000 C 
ATOM     32  C   UNL     1       2.450   2.748  21.462  0.00  0.00    +0.000 C 
ATOM     33  C   UNL     1       1.043   3.031  20.946  0.00  0.00    +0.000 C 
ATOM     34  C   UNL     1       1.120   2.584  19.508  0.00  0.00    +0.000 C 
ATOM     35  O   UNL     1       0.168   2.339  18.786  0.00  0.00    +0.000 OA
ENDBRANCH  29  30
ENDBRANCH  28  29
ENDBRANCH  27  28
ENDBRANCH  25  27
ENDBRANCH  22  23
ENDBRANCH  21  22
ENDBRANCH  20  21
ENDBRANCH  19  20
ENDBRANCH   1  19
TORSDOF 12
ENDMDL
MODEL 2
REMARK VINA RESULT:      -7.3      2.897      5.014
REMARK  Name = 
REMARK  14 active torsions:
REMARK  status: ('A' for Active; 'I' for Inactive)
REMARK    1  A    between atoms: C_1  and  O_2
REMARK    2  A    between atoms: O_2  and  C_3
REMARK    3  A    between atoms: N_9  and  C_10
REMARK    4  A    between atoms: C_10  and  C_11
REMARK    5  A    between atoms: C_11  and  C_12
REMARK    6  A    between atoms: C_12  and  C_13
REMARK    7  A    between atoms: C_13  and  C_14
REMARK    8  A    between atoms: C_14  and  C_15
REMARK    9  A    between atoms: N_17  and  C_18
REMARK   10  A    between atoms: C_18  and  C_19
REMARK   11  A    between atoms: C_19  and  C_20
REMARK   12  A    between atoms: C_20  and  N_21
REMARK   13  A    between atoms: C_31  and  O_32
REMARK   14  A    between atoms: O_32  and  C_33
REMARK                            x       y       z     vdW  Elec       q    Type
REMARK                         _______ _______ _______ _____ _____    ______ ____
ROOT
ATOM      1  C   UNL     1       2.553   6.696  19.937  0.00  0.00    +0.000 C 
ENDROOT
BRANCH   1   8
ATOM      2  C   UNL     1      -0.406  12.417  19.894  0.00  0.00    +0.000 A 
ATOM      3  C   UNL     1       0.212  11.684  18.862  0.00  0.00    +0.000 A 
ATOM      4  C   UNL     1       0.760  10.429  19.128  0.00  0.00    +0.000 A 
ATOM      5  N   UNL     1       1.438   9.710  18.141  0.00  0.00    +0.000 N 
ATOM      6  C   UNL     1       2.050   8.501  18.365  0.00  0.00    +0.000 A 
ATOM      7  O   UNL     1       2.659   7.945  17.450  0.00  0.00    +0.000 OA
ATOM      8  N   UNL     1       1.935   7.977  19.646  0.00  0.00    +0.000 N 
ATOM      9  C   UNL     1       1.244   8.585  20.684  0.00  0.00    +0.000 A 
ATOM     10  O   UNL     1       1.122   8.102  21.807  0.00  0.00    +0.000 OA
ATOM     11  C   UNL     1       0.644   9.896  20.402  0.00  0.00    +0.000 A 
ATOM     12  C   UNL     1      -0.019  10.583  21.417  0.00  0.00    +0.000 A 
ATOM     13  C   UNL     1      -0.538  11.855  21.183  0.00  0.00    +0.000 A 
ATOM     14  H   UNL     1       1.526  10.079  17.202  0.00  0.00    +0.000 HD
BRANCH   2  16
ATOM     15  C   UNL     1       0.088  14.714  19.523  0.00  0.00    +0.000 C 
ATOM     16  O   UNL     1      -0.865  13.652  19.504  0.00  0.00    +0.000 OA
ENDBRANCH   2  16
BRANCH  13  17
ATOM     17  O   UNL     1      -1.187  12.581  22.139  0.00  0.00    +0.000 OA
ATOM     18  C   UNL     1      -2.129  11.926  22.977  0.00  0.00    +0.000 C 
ENDBRANCH  13  17
ENDBRANCH   1   8
BRANCH   1  19
ATOM     19  C   UNL     1       1.671   5.513  19.519  0.00  0.00    +0.000 C 
BRANCH  19  20
ATOM     20  C   UNL     1       1.238   4.669  20.724  0.00  0.00    +0.000 C 
BRANCH  20  21
ATOM     21  C   UNL     1       1.563   3.181  20.579  0.00  0.00    +0.000 C 
BRANCH  21  22
ATOM     22  C   UNL     1       2.948   2.844  21.126  0.00  0.00    +0.000 C 
BRANCH  22  23
ATOM     23  C   UNL     1       3.858   2.390  20.017  0.00  0.00    +0.000 C 
ATOM     24  O   UNL     1       4.918   1.807  20.244  0.00  0.00    +0.000 OA
ATOM     25  N   UNL     1       3.383   2.666  18.761  0.00  0.00    +0.000 N 
ATOM     26  H   UNL     1       2.432   3.008  18.653  0.00  0.00    +0.000 HD
BRANCH  25  27
ATOM     27  C   UNL     1       4.103   2.235  17.583  0.00  0.00    +0.000 C 
BRANCH  27  28
ATOM     28  C   UNL     1       4.469   3.417  16.702  0.00  0.00    +0.000 C 
BRANCH  28  29
ATOM     29  C   UNL     1       4.327   4.722  17.477  0.00  0.00    +0.000 C 
BRANCH  29  30
ATOM     30  N   UNL     1       5.606   5.381  17.638  0.00  0.00    +0.000 N 
ATOM     31  C   UNL     1       6.575   4.979  18.625  0.00  0.00    +0.000 C 
ATOM     32  C   UNL     1       7.494   6.182  18.714  0.00  0.00    +0.000 C 
ATOM     33  C   UNL     1       7.442   6.785  17.314  0.00  0.00    +0.000 C 
ATOM     34  C   UNL     1       6.050   6.433  16.851  0.00  0.00    +0.000 C 
ATOM     35  O   UNL     1       5.453   6.957  15.926  0.00  0.00    +0.000 OA
ENDBRANCH  29  30
ENDBRANCH  28  29
ENDBRANCH  27  28
ENDBRANCH  25  27
ENDBRANCH  22  23
ENDBRANCH  21  22
ENDBRANCH  20  21
ENDBRANCH  19  20
ENDBRANCH   1  19
TORSDOF 12
ENDMDL
MODEL 3
REMARK VINA RESULT:      -7.2      2.952      5.213
REMARK  Name = 
REMARK  14 active torsions:
REMARK  status: ('A' for Active; 'I' for Inactive)
REMARK    1  A    between atoms: C_1  and  O_2
REMARK    2  A    between atoms: O_2  and  C_3
REMARK    3  A    between atoms: N_9  and  C_10
REMARK    4  A    between atoms: C_10  and  C_11
REMARK    5  A    between atoms: C_11  and  C_12
REMARK    6  A    between atoms: C_12  and  C_13
REMARK    7  A    between atoms: C_13  and  C_14
REMARK    8  A    between atoms: C_14  and  C_15
REMARK    9  A    between atoms: N_17  and  C_18
REMARK   10  A    between atoms: C_18  and  C_19
REMARK   11  A    between atoms: C_19  and  C_20
REMARK   12  A    between atoms: C_20  and  N_21
REMARK   13  A    between atoms: C_31  and  O_32
REMARK   14  A    between atoms: O_32  and  C_33
REMARK                            x       y       z     vdW  Elec       q    Type
REMARK                         _______ _______ _______ _____ _____    ______ ____
ROOT
ATOM      1  C   UNL     1       2.622   6.709  19.743  0.00  0.00    +0.000 C 
ENDROOT
BRANCH   1   8
ATOM      2  C   UNL     1      -0.351  12.334  20.746  0.00  0.00    +0.000 A 
ATOM      3  C   UNL     1       0.203  11.773  19.579  0.00  0.00    +0.000 A 
ATOM      4  C   UNL     1       0.770  10.498  19.618  0.00  0.00    +0.000 A 
ATOM      5  N   UNL     1       1.388   9.945  18.495  0.00  0.00    +0.000 N 
ATOM      6  C   UNL     1       2.016   8.724  18.495  0.00  0.00    +0.000 A 
ATOM      7  O   UNL     1       2.568   8.319  17.471  0.00  0.00    +0.000 OA
ATOM      8  N   UNL     1       1.982   8.011  19.686  0.00  0.00    +0.000 N 
ATOM      9  C   UNL     1       1.356   8.448  20.845  0.00  0.00    +0.000 A 
ATOM     10  O   UNL     1       1.305   7.800  21.888  0.00  0.00    +0.000 OA
ATOM     11  C   UNL     1       0.736   9.779  20.801  0.00  0.00    +0.000 A 
ATOM     12  C   UNL     1       0.135  10.297  21.947  0.00  0.00    +0.000 A 
ATOM     13  C   UNL     1      -0.402  11.583  21.941  0.00  0.00    +0.000 A 
ATOM     14  H   UNL     1       1.415  10.452  17.618  0.00  0.00    +0.000 HD
BRANCH   2  16
ATOM     15  C   UNL     1      -2.238  13.719  20.322  0.00  0.00    +0.000 C 
ATOM     16  O   UNL     1      -0.838  13.608  20.575  0.00  0.00    +0.000 OA
ENDBRANCH   2  16
BRANCH  13  17
ATOM     17  O   UNL     1      -0.992  12.149  23.033  0.00  0.00    +0.000 OA
ATOM     18  C   UNL     1      -2.325  11.781  23.360  0.00  0.00    +0.000 C 
ENDBRANCH  13  17
ENDBRANCH   1   8
BRANCH   1  19
ATOM     19  C   UNL     1       1.718   5.592  19.207  0.00  0.00    +0.000 C 
BRANCH  19  20
ATOM     20  C   UNL     1       1.340   4.587  20.302  0.00  0.00    +0.000 C 
BRANCH  20  21
ATOM     21  C   UNL     1       2.500   3.685  20.733  0.00  0.00    +0.000 C 
BRANCH  21  22
ATOM     22  C   UNL     1       2.471   2.338  20.014  0.00  0.00    +0.000 C 
BRANCH  22  23
ATOM     23  C   UNL     1       2.836   2.506  18.564  0.00  0.00    +0.000 C 
ATOM     24  O   UNL     1       2.028   2.291  17.661  0.00  0.00    +0.000 OA
ATOM     25  N   UNL     1       4.123   2.936  18.362  0.00  0.00    +0.000 N 
ATOM     26  H   UNL     1       4.676   3.240  19.158  0.00  0.00    +0.000 HD
BRANCH  25  27
ATOM     27  C   UNL     1       4.612   3.214  17.029  0.00  0.00    +0.000 C 
BRANCH  27  28
ATOM     28  C   UNL     1       4.501   4.693  16.703  0.00  0.00    +0.000 C 
BRANCH  28  29
ATOM     29  C   UNL     1       5.792   5.197  16.068  0.00  0.00    +0.000 C 
BRANCH  29  30
ATOM     30  N   UNL     1       6.575   5.971  17.010  0.00  0.00    +0.000 N 
ATOM     31  C   UNL     1       6.427   7.395  17.165  0.00  0.00    +0.000 C 
ATOM     32  C   UNL     1       7.701   7.796  17.883  0.00  0.00    +0.000 C 
ATOM     33  C   UNL     1       8.055   6.566  18.712  0.00  0.00    +0.000 C 
ATOM     34  C   UNL     1       7.515   5.434  17.876  0.00  0.00    +0.000 C 
ATOM     35  O   UNL     1       7.825   4.259  17.982  0.00  0.00    +0.000 OA
ENDBRANCH  29  30
ENDBRANCH  28  29
ENDBRANCH  27  28
ENDBRANCH  25  27
ENDBRANCH  22  23
ENDBRANCH  21  22
ENDBRANCH  20  21
ENDBRANCH  19  20
ENDBRANCH   1  19
TORSDOF 12
ENDMDL
MODEL 4
REMARK VINA RESULT:      -7.2      2.800      5.186
REMARK  Name = 
REMARK  14 active torsions:
REMARK  status: ('A' for Active; 'I' for Inactive)
REMARK    1  A    between atoms: C_1  and  O_2
REMARK    2  A    between atoms: O_2  and  C_3
REMARK    3  A    between atoms: N_9  and  C_10
REMARK    4  A    between atoms: C_10  and  C_11
REMARK    5  A    between atoms: C_11  and  C_12
REMARK    6  A    between atoms: C_12  and  C_13
REMARK    7  A    between atoms: C_13  and  C_14
REMARK    8  A    between atoms: C_14  and  C_15
REMARK    9  A    between atoms: N_17  and  C_18
REMARK   10  A    between atoms: C_18  and  C_19
REMARK   11  A    between atoms: C_19  and  C_20
REMARK   12  A    between atoms: C_20  and  N_21
REMARK   13  A    between atoms: C_31  and  O_32
REMARK   14  A    between atoms: O_32  and  C_33
REMARK                            x       y       z     vdW  Elec       q    Type
REMARK                         _______ _______ _______ _____ _____    ______ ____
ROOT
ATOM      1  C   UNL     1       2.778   6.435  19.856  0.00  0.00    +0.000 C 
ENDROOT
BRANCH   1   8
ATOM      2  C   UNL     1      -0.424  12.018  19.618  0.00  0.00    +0.000 A 
ATOM      3  C   UNL     1       0.229  11.280  18.612  0.00  0.00    +0.000 A 
ATOM      4  C   UNL     1       0.829  10.059  18.921  0.00  0.00    +0.000 A 
ATOM      5  N   UNL     1       1.542   9.339  17.960  0.00  0.00    +0.000 N 
ATOM      6  C   UNL     1       2.204   8.165  18.224  0.00  0.00    +0.000 A 
ATOM      7  O   UNL     1       2.840   7.606  17.330  0.00  0.00    +0.000 OA
ATOM      8  N   UNL     1       2.106   7.677  19.521  0.00  0.00    +0.000 N 
ATOM      9  C   UNL     1       1.385   8.289  20.537  0.00  0.00    +0.000 A 
ATOM     10  O   UNL     1       1.279   7.838  21.675  0.00  0.00    +0.000 OA
ATOM     11  C   UNL     1       0.731   9.563  20.210  0.00  0.00    +0.000 A 
ATOM     12  C   UNL     1       0.034  10.253  21.201  0.00  0.00    +0.000 A 
ATOM     13  C   UNL     1      -0.538  11.493  20.924  0.00  0.00    +0.000 A 
ATOM     14  H   UNL     1       1.617   9.680  17.009  0.00  0.00    +0.000 HD
BRANCH   2  16
ATOM     15  C   UNL     1      -0.013  14.307  19.116  0.00  0.00    +0.000 C 
ATOM     16  O   UNL     1      -0.934  13.219  19.186  0.00  0.00    +0.000 OA
ENDBRANCH   2  16
BRANCH  13  17
ATOM     17  O   UNL     1      -1.222  12.222  21.854  0.00  0.00    +0.000 OA
ATOM     18  C   UNL     1      -1.673  11.575  23.036  0.00  0.00    +0.000 C 
ENDBRANCH  13  17
ENDBRANCH   1   8
BRANCH   1  19
ATOM     19  C   UNL     1       1.865   5.465  20.617  0.00  0.00    +0.000 C 
BRANCH  19  20
ATOM     20  C   UNL     1       1.128   4.510  19.670  0.00  0.00    +0.000 C 
BRANCH  20  21
ATOM     21  C   UNL     1       1.494   3.039  19.877  0.00  0.00    +0.000 C 
BRANCH  21  22
ATOM     22  C   UNL     1       3.005   2.832  19.952  0.00  0.00    +0.000 C 
BRANCH  22  23
ATOM     23  C   UNL     1       3.570   2.570  18.583  0.00  0.00    +0.000 C 
ATOM     24  O   UNL     1       3.439   1.481  18.023  0.00  0.00    +0.000 OA
ATOM     25  N   UNL     1       4.208   3.650  18.029  0.00  0.00    +0.000 N 
ATOM     26  H   UNL     1       4.139   4.556  18.484  0.00  0.00    +0.000 HD
BRANCH  25  27
ATOM     27  C   UNL     1       4.748   3.586  16.688  0.00  0.00    +0.000 C 
BRANCH  27  28
ATOM     28  C   UNL     1       5.050   4.976  16.154  0.00  0.00    +0.000 C 
BRANCH  28  29
ATOM     29  C   UNL     1       6.548   5.146  15.929  0.00  0.00    +0.000 C 
BRANCH  29  30
ATOM     30  N   UNL     1       7.210   5.619  17.127  0.00  0.00    +0.000 N 
ATOM     31  C   UNL     1       7.783   4.733  18.107  0.00  0.00    +0.000 C 
ATOM     32  C   UNL     1       7.936   5.622  19.326  0.00  0.00    +0.000 C 
ATOM     33  C   UNL     1       8.167   7.010  18.738  0.00  0.00    +0.000 C 
ATOM     34  C   UNL     1       7.394   6.956  17.444  0.00  0.00    +0.000 C 
ATOM     35  O   UNL     1       7.039   7.920  16.786  0.00  0.00    +0.000 OA
ENDBRANCH  29  30
ENDBRANCH  28  29
ENDBRANCH  27  28
ENDBRANCH  25  27
ENDBRANCH  22  23
ENDBRANCH  21  22
ENDBRANCH  20  21
ENDBRANCH  19  20
ENDBRANCH   1  19
TORSDOF 12
ENDMDL
MODEL 5
REMARK VINA RESULT:      -7.2      2.745      3.903
REMARK  Name = 
REMARK  14 active torsions:
REMARK  status: ('A' for Active; 'I' for Inactive)
REMARK    1  A    between atoms: C_1  and  O_2
REMARK    2  A    between atoms: O_2  and  C_3
REMARK    3  A    between atoms: N_9  and  C_10
REMARK    4  A    between atoms: C_10  and  C_11
REMARK    5  A    between atoms: C_11  and  C_12
REMARK    6  A    between atoms: C_12  and  C_13
REMARK    7  A    between atoms: C_13  and  C_14
REMARK    8  A    between atoms: C_14  and  C_15
REMARK    9  A    between atoms: N_17  and  C_18
REMARK   10  A    between atoms: C_18  and  C_19
REMARK   11  A    between atoms: C_19  and  C_20
REMARK   12  A    between atoms: C_20  and  N_21
REMARK   13  A    between atoms: C_31  and  O_32
REMARK   14  A    between atoms: O_32  and  C_33
REMARK                            x       y       z     vdW  Elec       q    Type
REMARK                         _______ _______ _______ _____ _____    ______ ____
ROOT
ATOM      1  C   UNL     1       1.541   8.943  21.458  0.00  0.00    +0.000 C 
ENDROOT
BRANCH   1   8
ATOM      2  C   UNL     1      -3.058  13.439  21.793  0.00  0.00    +0.000 A 
ATOM      3  C   UNL     1      -2.354  12.912  20.693  0.00  0.00    +0.000 A 
ATOM      4  C   UNL     1      -1.414  11.900  20.886  0.00  0.00    +0.000 A 
ATOM      5  N   UNL     1      -0.652  11.407  19.824  0.00  0.00    +0.000 N 
ATOM      6  C   UNL     1       0.330  10.458  19.968  0.00  0.00    +0.000 A 
ATOM      7  O   UNL     1       0.982  10.098  18.987  0.00  0.00    +0.000 OA
ATOM      8  N   UNL     1       0.523   9.956  21.248  0.00  0.00    +0.000 N 
ATOM      9  C   UNL     1      -0.210  10.342  22.361  0.00  0.00    +0.000 A 
ATOM     10  O   UNL     1      -0.053   9.874  23.487  0.00  0.00    +0.000 OA
ATOM     11  C   UNL     1      -1.219  11.390  22.159  0.00  0.00    +0.000 A 
ATOM     12  C   UNL     1      -1.953  11.859  23.247  0.00  0.00    +0.000 A 
ATOM     13  C   UNL     1      -2.869  12.896  23.083  0.00  0.00    +0.000 A 
ATOM     14  H   UNL     1      -0.786  11.760  18.884  0.00  0.00    +0.000 HD
BRANCH   2  16
ATOM     15  C   UNL     1      -3.330  15.726  21.198  0.00  0.00    +0.000 C 
ATOM     16  O   UNL     1      -3.923  14.456  21.467  0.00  0.00    +0.000 OA
ENDBRANCH   2  16
BRANCH  13  17
ATOM     17  O   UNL     1      -3.608  13.406  24.111  0.00  0.00    +0.000 OA
ATOM     18  C   UNL     1      -4.520  12.552  24.789  0.00  0.00    +0.000 C 
ENDBRANCH  13  17
ENDBRANCH   1   8
BRANCH   1  19
ATOM     19  C   UNL     1       1.094   7.557  20.977  0.00  0.00    +0.000 C 
BRANCH  19  20
ATOM     20  C   UNL     1       2.235   6.792  20.296  0.00  0.00    +0.000 C 
BRANCH  20  21
ATOM     21  C   UNL     1       2.254   6.944  18.773  0.00  0.00    +0.000 C 
BRANCH  21  22
ATOM     22  C   UNL     1       3.677   7.049  18.229  0.00  0.00    +0.000 C 
BRANCH  22  23
ATOM     23  C   UNL     1       4.329   5.694  18.191  0.00  0.00    +0.000 C 
ATOM     24  O   UNL     1       5.174   5.355  19.021  0.00  0.00    +0.000 OA
ATOM     25  N   UNL     1       3.876   4.888  17.178  0.00  0.00    +0.000 N 
ATOM     26  H   UNL     1       3.070   5.179  16.633  0.00  0.00    +0.000 HD
BRANCH  25  27
ATOM     27  C   UNL     1       4.350   3.528  17.043  0.00  0.00    +0.000 C 
BRANCH  27  28
ATOM     28  C   UNL     1       3.204   2.537  17.143  0.00  0.00    +0.000 C 
BRANCH  28  29
ATOM     29  C   UNL     1       3.318   1.717  18.423  0.00  0.00    +0.000 C 
BRANCH  29  30
ATOM     30  N   UNL     1       2.549   2.309  19.498  0.00  0.00    +0.000 N 
ATOM     31  C   UNL     1       1.165   2.682  19.355  0.00  0.00    +0.000 C 
ATOM     32  C   UNL     1       0.942   3.625  20.521  0.00  0.00    +0.000 C 
ATOM     33  C   UNL     1       1.906   3.118  21.589  0.00  0.00    +0.000 C 
ATOM     34  C   UNL     1       3.038   2.548  20.772  0.00  0.00    +0.000 C 
ATOM     35  O   UNL     1       4.160   2.305  21.182  0.00  0.00    +0.000 OA
ENDBRANCH  29  30
ENDBRANCH  28  29
ENDBRANCH  27  28
ENDBRANCH  25  27
ENDBRANCH  22  23
ENDBRANCH  21  22
ENDBRANCH  20  21
ENDBRANCH  19  20
ENDBRANCH   1  19
TORSDOF 12
ENDMDL
MODEL 6
REMARK VINA RESULT:      -7.2      2.386      9.265
REMARK  Name = 
REMARK  14 active torsions:
REMARK  status: ('A' for Active; 'I' for Inactive)
REMARK    1  A    between atoms: C_1  and  O_2
REMARK    2  A    between atoms: O_2  and  C_3
REMARK    3  A    between atoms: N_9  and  C_10
REMARK    4  A    between atoms: C_10  and  C_11
REMARK    5  A    between atoms: C_11  and  C_12
REMARK    6  A    between atoms: C_12  and  C_13
REMARK    7  A    between atoms: C_13  and  C_14
REMARK    8  A    between atoms: C_14  and  C_15
REMARK    9  A    between atoms: N_17  and  C_18
REMARK   10  A    between atoms: C_18  and  C_19
REMARK   11  A    between atoms: C_19  and  C_20
REMARK   12  A    between atoms: C_20  and  N_21
REMARK   13  A    between atoms: C_31  and  O_32
REMARK   14  A    between atoms: O_32  and  C_33
REMARK                            x       y       z     vdW  Elec       q    Type
REMARK                         _______ _______ _______ _____ _____    ______ ____
ROOT
ATOM      1  C   UNL     1       0.530  10.734  19.711  0.00  0.00    +0.000 C 
ENDROOT
BRANCH   1   8
ATOM      2  C   UNL     1       3.707   5.212  18.766  0.00  0.00    +0.000 A 
ATOM      3  C   UNL     1       2.956   5.674  19.865  0.00  0.00    +0.000 A 
ATOM      4  C   UNL     1       2.325   6.917  19.806  0.00  0.00    +0.000 A 
ATOM      5  N   UNL     1       1.632   7.430  20.904  0.00  0.00    +0.000 N 
ATOM      6  C   UNL     1       1.047   8.673  20.922  0.00  0.00    +0.000 A 
ATOM      7  O   UNL     1       0.481   9.068  21.942  0.00  0.00    +0.000 OA
ATOM      8  N   UNL     1       1.138   9.416  19.753  0.00  0.00    +0.000 N 
ATOM      9  C   UNL     1       1.763   8.982  18.592  0.00  0.00    +0.000 A 
ATOM     10  O   UNL     1       1.816   9.634  17.552  0.00  0.00    +0.000 OA
ATOM     11  C   UNL     1       2.407   7.663  18.642  0.00  0.00    +0.000 A 
ATOM     12  C   UNL     1       3.095   7.190  17.525  0.00  0.00    +0.000 A 
ATOM     13  C   UNL     1       3.765   5.970  17.576  0.00  0.00    +0.000 A 
ATOM     14  H   UNL     1       1.553   6.896  21.761  0.00  0.00    +0.000 HD
BRANCH   2  16
ATOM     15  C   UNL     1       5.712   4.016  19.225  0.00  0.00    +0.000 C 
ATOM     16  O   UNL     1       4.307   3.993  18.974  0.00  0.00    +0.000 OA
ENDBRANCH   2  16
BRANCH  13  17
ATOM     17  O   UNL     1       4.465   5.460  16.521  0.00  0.00    +0.000 OA
ATOM     18  C   UNL     1       5.619   6.151  16.065  0.00  0.00    +0.000 C 
ENDBRANCH  13  17
ENDBRANCH   1   8
BRANCH   1  19
ATOM     19  C   UNL     1      -0.980  10.671  19.445  0.00  0.00    +0.000 C 
BRANCH  19  20
ATOM     20  C   UNL     1      -1.337  11.204  18.052  0.00  0.00    +0.000 C 
BRANCH  20  21
ATOM     21  C   UNL     1      -1.938  10.144  17.126  0.00  0.00    +0.000 C 
BRANCH  21  22
ATOM     22  C   UNL     1      -3.374   9.797  17.514  0.00  0.00    +0.000 C 
BRANCH  22  23
ATOM     23  C   UNL     1      -4.236  11.030  17.504  0.00  0.00    +0.000 C 
ATOM     24  O   UNL     1      -4.429  11.680  16.476  0.00  0.00    +0.000 OA
ATOM     25  N   UNL     1      -4.789  11.331  18.722  0.00  0.00    +0.000 N 
ATOM     26  H   UNL     1      -4.710  10.663  19.483  0.00  0.00    +0.000 HD
BRANCH  25  27
ATOM     27  C   UNL     1      -5.699  12.446  18.870  0.00  0.00    +0.000 C 
BRANCH  27  28
ATOM     28  C   UNL     1      -5.255  13.370  19.991  0.00  0.00    +0.000 C 
BRANCH  28  29
ATOM     29  C   UNL     1      -5.000  12.575  21.266  0.00  0.00    +0.000 C 
BRANCH  29  30
ATOM     30  N   UNL     1      -3.699  12.880  21.825  0.00  0.00    +0.000 N 
ATOM     31  C   UNL     1      -2.688  13.609  21.103  0.00  0.00    +0.000 C 
ATOM     32  C   UNL     1      -1.421  13.294  21.873  0.00  0.00    +0.000 C 
ATOM     33  C   UNL     1      -1.906  13.087  23.304  0.00  0.00    +0.000 C 
ATOM     34  C   UNL     1      -3.298  12.541  23.108  0.00  0.00    +0.000 C 
ATOM     35  O   UNL     1      -3.955  11.949  23.947  0.00  0.00    +0.000 OA
ENDBRANCH  29  30
ENDBRANCH  28  29
ENDBRANCH  27  28
ENDBRANCH  25  27
ENDBRANCH  22  23
ENDBRANCH  21  22
ENDBRANCH  20  21
ENDBRANCH  19  20
ENDBRANCH   1  19
TORSDOF 12
ENDMDL
MODEL 7
REMARK VINA RESULT:      -7.1      2.737      4.859
REMARK  Name = 
REMARK  14 active torsions:
REMARK  status: ('A' for Active; 'I' for Inactive)
REMARK    1  A    between atoms: C_1  and  O_2
REMARK    2  A    between atoms: O_2  and  C_3
REMARK    3  A    between atoms: N_9  and  C_10
REMARK    4  A    between atoms: C_10  and  C_11
REMARK    5  A    between atoms: C_11  and  C_12
REMARK    6  A    between atoms: C_12  and  C_13
REMARK    7  A    between atoms: C_13  and  C_14
REMARK    8  A    between atoms: C_14  and  C_15
REMARK    9  A    between atoms: N_17  and  C_18
REMARK   10  A    between atoms: C_18  and  C_19
REMARK   11  A    between atoms: C_19  and  C_20
REMARK   12  A    between atoms: C_20  and  N_21
REMARK   13  A    between atoms: C_31  and  O_32
REMARK   14  A    between atoms: O_32  and  C_33
REMARK                            x       y       z     vdW  Elec       q    Type
REMARK                         _______ _______ _______ _____ _____    ______ ____
ROOT
ATOM      1  C   UNL     1       1.543   8.700  21.487  0.00  0.00    +0.000 C 
ENDROOT
BRANCH   1   8
ATOM      2  C   UNL     1      -2.863  13.397  21.529  0.00  0.00    +0.000 A 
ATOM      3  C   UNL     1      -2.253  12.707  20.463  0.00  0.00    +0.000 A 
ATOM      4  C   UNL     1      -1.338  11.687  20.726  0.00  0.00    +0.000 A 
ATOM      5  N   UNL     1      -0.667  11.032  19.690  0.00  0.00    +0.000 N 
ATOM      6  C   UNL     1       0.288  10.067  19.893  0.00  0.00    +0.000 A 
ATOM      7  O   UNL     1       0.860   9.560  18.928  0.00  0.00    +0.000 OA
ATOM      8  N   UNL     1       0.549   9.722  21.213  0.00  0.00    +0.000 N 
ATOM      9  C   UNL     1      -0.094  10.276  22.311  0.00  0.00    +0.000 A 
ATOM     10  O   UNL     1       0.121   9.946  23.475  0.00  0.00    +0.000 OA
ATOM     11  C   UNL     1      -1.077  11.333  22.039  0.00  0.00    +0.000 A 
ATOM     12  C   UNL     1      -1.720  11.965  23.102  0.00  0.00    +0.000 A 
ATOM     13  C   UNL     1      -2.607  13.013  22.864  0.00  0.00    +0.000 A 
ATOM     14  H   UNL     1      -0.851  11.271  18.723  0.00  0.00    +0.000 HD
BRANCH   2  16
ATOM     15  C   UNL     1      -4.962  13.991  20.579  0.00  0.00    +0.000 C 
ATOM     16  O   UNL     1      -3.712  14.403  21.130  0.00  0.00    +0.000 OA
ENDBRANCH   2  16
BRANCH  13  17
ATOM     17  O   UNL     1      -3.258  13.679  23.862  0.00  0.00    +0.000 OA
ATOM     18  C   UNL     1      -2.555  14.670  24.598  0.00  0.00    +0.000 C 
ENDBRANCH  13  17
ENDBRANCH   1   8
BRANCH   1  19
ATOM     19  C   UNL     1       1.007   7.284  21.239  0.00  0.00    +0.000 C 
BRANCH  19  20
ATOM     20  C   UNL     1       1.958   6.458  20.365  0.00  0.00    +0.000 C 
BRANCH  20  21
ATOM     21  C   UNL     1       2.150   5.021  20.856  0.00  0.00    +0.000 C 
BRANCH  21  22
ATOM     22  C   UNL     1       1.027   4.102  20.378  0.00  0.00    +0.000 C 
BRANCH  22  23
ATOM     23  C   UNL     1       1.428   3.393  19.113  0.00  0.00    +0.000 C 
ATOM     24  O   UNL     1       0.592   2.949  18.325  0.00  0.00    +0.000 OA
ATOM     25  N   UNL     1       2.783   3.317  18.924  0.00  0.00    +0.000 N 
ATOM     26  H   UNL     1       3.401   3.842  19.537  0.00  0.00    +0.000 HD
BRANCH  25  27
ATOM     27  C   UNL     1       3.334   2.728  17.723  0.00  0.00    +0.000 C 
BRANCH  27  28
ATOM     28  C   UNL     1       3.761   3.799  16.735  0.00  0.00    +0.000 C 
BRANCH  28  29
ATOM     29  C   UNL     1       5.259   3.709  16.465  0.00  0.00    +0.000 C 
BRANCH  29  30
ATOM     30  N   UNL     1       5.977   4.787  17.113  0.00  0.00    +0.000 N 
ATOM     31  C   UNL     1       6.445   5.951  16.406  0.00  0.00    +0.000 C 
ATOM     32  C   UNL     1       7.476   6.535  17.352  0.00  0.00    +0.000 C 
ATOM     33  C   UNL     1       6.967   6.141  18.734  0.00  0.00    +0.000 C 
ATOM     34  C   UNL     1       6.259   4.836  18.469  0.00  0.00    +0.000 C 
ATOM     35  O   UNL     1       5.959   4.006  19.310  0.00  0.00    +0.000 OA
ENDBRANCH  29  30
ENDBRANCH  28  29
ENDBRANCH  27  28
ENDBRANCH  25  27
ENDBRANCH  22  23
ENDBRANCH  21  22
ENDBRANCH  20  21
ENDBRANCH  19  20
ENDBRANCH   1  19
TORSDOF 12
ENDMDL
MODEL 8
REMARK VINA RESULT:      -7.0      2.636      4.949
REMARK  Name = 
REMARK  14 active torsions:
REMARK  status: ('A' for Active; 'I' for Inactive)
REMARK    1  A    between atoms: C_1  and  O_2
REMARK    2  A    between atoms: O_2  and  C_3
REMARK    3  A    between atoms: N_9  and  C_10
REMARK    4  A    between atoms: C_10  and  C_11
REMARK    5  A    between atoms: C_11  and  C_12
REMARK    6  A    between atoms: C_12  and  C_13
REMARK    7  A    between atoms: C_13  and  C_14
REMARK    8  A    between atoms: C_14  and  C_15
REMARK    9  A    between atoms: N_17  and  C_18
REMARK   10  A    between atoms: C_18  and  C_19
REMARK   11  A    between atoms: C_19  and  C_20
REMARK   12  A    between atoms: C_20  and  N_21
REMARK   13  A    between atoms: C_31  and  O_32
REMARK   14  A    between atoms: O_32  and  C_33
REMARK                            x       y       z     vdW  Elec       q    Type
REMARK                         _______ _______ _______ _____ _____    ______ ____
ROOT
ATOM      1  C   UNL     1       2.580   7.312  19.680  0.00  0.00    +0.000 C 
ENDROOT
BRANCH   1   8
ATOM      2  C   UNL     1      -1.021  12.615  20.302  0.00  0.00    +0.000 A 
ATOM      3  C   UNL     1      -0.479  11.991  19.162  0.00  0.00    +0.000 A 
ATOM      4  C   UNL     1       0.250  10.808  19.294  0.00  0.00    +0.000 A 
ATOM      5  N   UNL     1       0.857  10.204  18.191  0.00  0.00    +0.000 N 
ATOM      6  C   UNL     1       1.636   9.077  18.273  0.00  0.00    +0.000 A 
ATOM      7  O   UNL     1       2.165   8.623  17.258  0.00  0.00    +0.000 OA
ATOM      8  N   UNL     1       1.775   8.511  19.534  0.00  0.00    +0.000 N 
ATOM      9  C   UNL     1       1.177   9.003  20.686  0.00  0.00    +0.000 A 
ATOM     10  O   UNL     1       1.282   8.483  21.794  0.00  0.00    +0.000 OA
ATOM     11  C   UNL     1       0.389  10.235  20.547  0.00  0.00    +0.000 A 
ATOM     12  C   UNL     1      -0.196  10.809  21.675  0.00  0.00    +0.000 A 
ATOM     13  C   UNL     1      -0.893  12.011  21.572  0.00  0.00    +0.000 A 
ATOM     14  H   UNL     1       0.759  10.603  17.265  0.00  0.00    +0.000 HD
BRANCH   2  16
ATOM     15  C   UNL     1      -0.872  14.968  19.983  0.00  0.00    +0.000 C 
ATOM     16  O   UNL     1      -1.679  13.792  20.034  0.00  0.00    +0.000 OA
ENDBRANCH   2  16
BRANCH  13  17
ATOM     17  O   UNL     1      -1.477  12.627  22.641  0.00  0.00    +0.000 OA
ATOM     18  C   UNL     1      -2.656  12.064  23.197  0.00  0.00    +0.000 C 
ENDBRANCH  13  17
ENDBRANCH   1   8
BRANCH   1  19
ATOM     19  C   UNL     1       1.753   6.031  19.516  0.00  0.00    +0.000 C 
BRANCH  19  20
ATOM     20  C   UNL     1       1.390   5.408  20.870  0.00  0.00    +0.000 C 
BRANCH  20  21
ATOM     21  C   UNL     1       2.050   4.050  21.117  0.00  0.00    +0.000 C 
BRANCH  21  22
ATOM     22  C   UNL     1       1.197   2.898  20.591  0.00  0.00    +0.000 C 
BRANCH  22  23
ATOM     23  C   UNL     1       1.497   2.638  19.140  0.00  0.00    +0.000 C 
ATOM     24  O   UNL     1       0.635   2.235  18.359  0.00  0.00    +0.000 OA
ATOM     25  N   UNL     1       2.792   2.914  18.783  0.00  0.00    +0.000 N 
ATOM     26  H   UNL     1       3.400   3.390  19.444  0.00  0.00    +0.000 HD
BRANCH  25  27
ATOM     27  C   UNL     1       3.228   2.785  17.409  0.00  0.00    +0.000 C 
BRANCH  27  28
ATOM     28  C   UNL     1       4.729   2.980  17.291  0.00  0.00    +0.000 C 
BRANCH  28  29
ATOM     29  C   UNL     1       5.045   4.110  16.317  0.00  0.00    +0.000 C 
BRANCH  29  30
ATOM     30  N   UNL     1       6.025   5.022  16.868  0.00  0.00    +0.000 N 
ATOM     31  C   UNL     1       7.107   4.590  17.715  0.00  0.00    +0.000 C 
ATOM     32  C   UNL     1       7.559   5.876  18.378  0.00  0.00    +0.000 C 
ATOM     33  C   UNL     1       7.254   6.949  17.338  0.00  0.00    +0.000 C 
ATOM     34  C   UNL     1       6.052   6.386  16.622  0.00  0.00    +0.000 C 
ATOM     35  O   UNL     1       5.279   7.018  15.922  0.00  0.00    +0.000 OA
ENDBRANCH  29  30
ENDBRANCH  28  29
ENDBRANCH  27  28
ENDBRANCH  25  27
ENDBRANCH  22  23
ENDBRANCH  21  22
ENDBRANCH  20  21
ENDBRANCH  19  20
ENDBRANCH   1  19
TORSDOF 12
ENDMDL
MODEL 9
REMARK VINA RESULT:      -7.0      3.173      4.776
REMARK  Name = 
REMARK  14 active torsions:
REMARK  status: ('A' for Active; 'I' for Inactive)
REMARK    1  A    between atoms: C_1  and  O_2
REMARK    2  A    between atoms: O_2  and  C_3
REMARK    3  A    between atoms: N_9  and  C_10
REMARK    4  A    between atoms: C_10  and  C_11
REMARK    5  A    between atoms: C_11  and  C_12
REMARK    6  A    between atoms: C_12  and  C_13
REMARK    7  A    between atoms: C_13  and  C_14
REMARK    8  A    between atoms: C_14  and  C_15
REMARK    9  A    between atoms: N_17  and  C_18
REMARK   10  A    between atoms: C_18  and  C_19
REMARK   11  A    between atoms: C_19  and  C_20
REMARK   12  A    between atoms: C_20  and  N_21
REMARK   13  A    between atoms: C_31  and  O_32
REMARK   14  A    between atoms: O_32  and  C_33
REMARK                            x       y       z     vdW  Elec       q    Type
REMARK                         _______ _______ _______ _____ _____    ______ ____
ROOT
ATOM      1  C   UNL     1       0.466  11.527  20.709  0.00  0.00    +0.000 C 
ENDROOT
BRANCH   1   8
ATOM      2  C   UNL     1      -5.170  13.438  23.171  0.00  0.00    +0.000 A 
ATOM      3  C   UNL     1      -4.160  12.611  23.699  0.00  0.00    +0.000 A 
ATOM      4  C   UNL     1      -2.996  12.376  22.966  0.00  0.00    +0.000 A 
ATOM      5  N   UNL     1      -2.009  11.506  23.434  0.00  0.00    +0.000 N 
ATOM      6  C   UNL     1      -0.876  11.189  22.726  0.00  0.00    +0.000 A 
ATOM      7  O   UNL     1      -0.066  10.386  23.193  0.00  0.00    +0.000 OA
ATOM      8  N   UNL     1      -0.718  11.816  21.497  0.00  0.00    +0.000 N 
ATOM      9  C   UNL     1      -1.614  12.730  20.961  0.00  0.00    +0.000 A 
ATOM     10  O   UNL     1      -1.455  13.303  19.886  0.00  0.00    +0.000 OA
ATOM     11  C   UNL     1      -2.829  13.001  21.741  0.00  0.00    +0.000 A 
ATOM     12  C   UNL     1      -3.793  13.871  21.235  0.00  0.00    +0.000 A 
ATOM     13  C   UNL     1      -4.980  14.090  21.932  0.00  0.00    +0.000 A 
ATOM     14  H   UNL     1      -2.109  11.046  24.331  0.00  0.00    +0.000 HD
BRANCH   2  16
ATOM     15  C   UNL     1      -7.269  12.537  23.835  0.00  0.00    +0.000 C 
ATOM     16  O   UNL     1      -6.277  13.552  23.978  0.00  0.00    +0.000 OA
ENDBRANCH   2  16
BRANCH  13  17
ATOM     17  O   UNL     1      -5.965  14.920  21.482  0.00  0.00    +0.000 OA
ATOM     18  C   UNL     1      -6.796  14.483  20.416  0.00  0.00    +0.000 C 
ENDBRANCH  13  17
ENDBRANCH   1   8
BRANCH   1  19
ATOM     19  C   UNL     1       0.159  10.627  19.505  0.00  0.00    +0.000 C 
BRANCH  19  20
ATOM     20  C   UNL     1       1.374  10.475  18.580  0.00  0.00    +0.000 C 
BRANCH  20  21
ATOM     21  C   UNL     1       1.339   9.206  17.725  0.00  0.00    +0.000 C 
BRANCH  21  22
ATOM     22  C   UNL     1       2.644   8.419  17.821  0.00  0.00    +0.000 C 
BRANCH  22  23
ATOM     23  C   UNL     1       2.481   7.238  18.739  0.00  0.00    +0.000 C 
ATOM     24  O   UNL     1       2.230   7.375  19.936  0.00  0.00    +0.000 OA
ATOM     25  N   UNL     1       2.616   6.026  18.113  0.00  0.00    +0.000 N 
ATOM     26  H   UNL     1       2.667   5.992  17.098  0.00  0.00    +0.000 HD
BRANCH  25  27
ATOM     27  C   UNL     1       2.420   4.789  18.838  0.00  0.00    +0.000 C 
BRANCH  27  28
ATOM     28  C   UNL     1       3.213   3.656  18.210  0.00  0.00    +0.000 C 
BRANCH  28  29
ATOM     29  C   UNL     1       4.585   3.540  18.864  0.00  0.00    +0.000 C 
BRANCH  29  30
ATOM     30  N   UNL     1       5.589   4.268  18.115  0.00  0.00    +0.000 N 
ATOM     31  C   UNL     1       5.676   4.225  16.678  0.00  0.00    +0.000 C 
ATOM     32  C   UNL     1       7.077   4.736  16.404  0.00  0.00    +0.000 C 
ATOM     33  C   UNL     1       7.347   5.697  17.558  0.00  0.00    +0.000 C 
ATOM     34  C   UNL     1       6.540   5.100  18.684  0.00  0.00    +0.000 C 
ATOM     35  O   UNL     1       6.682   5.346  19.869  0.00  0.00    +0.000 OA
ENDBRANCH  29  30
ENDBRANCH  28  29
ENDBRANCH  27  28
ENDBRANCH  25  27
ENDBRANCH  22  23
ENDBRANCH  21  22
ENDBRANCH  20  21
ENDBRANCH  19  20
ENDBRANCH   1  19
TORSDOF 12
ENDMDL
