MODEL 1
REMARK VINA RESULT:      -6.7      0.000      0.000
REMARK  Name = 
REMARK  11 active torsions:
REMARK  status: ('A' for Active; 'I' for Inactive)
REMARK    1  A    between atoms: C_1  and  C_2
REMARK    2  A    between atoms: C_2  and  N_3
REMARK    3  A    between atoms: C_4  and  C_5
REMARK    4  A    between atoms: C_14  and  N_15
REMARK    5  A    between atoms: C_16  and  C_18
REMARK    6  A    between atoms: C_18  and  O_19
REMARK    7  A    between atoms: O_19  and  C_20
REMARK    8  A    between atoms: C_22  and  C_23
REMARK    9  A    between atoms: N_25  and  C_26
REMARK   10  A    between atoms: C_26  and  C_27
REMARK   11  A    between atoms: C_29  and  C_30
REMARK                            x       y       z     vdW  Elec       q    Type
REMARK                         _______ _______ _______ _____ _____    ______ ____
ROOT
ATOM      1  N   UNL     1      -1.635  12.057  20.807  0.00  0.00    +0.000 N 
ATOM      2  C   UNL     1      -2.850  12.728  20.912  0.00  0.00    +0.000 A 
ATOM      3  N   UNL     1      -3.560  12.529  19.818  0.00  0.00    +0.000 NA
ATOM      4  C   UNL     1      -2.805  11.731  18.999  0.00  0.00    +0.000 A 
ATOM      5  C   UNL     1      -3.130  11.283  17.708  0.00  0.00    +0.000 A 
ATOM      6  C   UNL     1      -2.250  10.450  17.011  0.00  0.00    +0.000 A 
ATOM      7  C   UNL     1      -1.061  10.054  17.632  0.00  0.00    +0.000 A 
ATOM      8  C   UNL     1      -0.700  10.491  18.929  0.00  0.00    +0.000 A 
ATOM      9  C   UNL     1      -1.599  11.365  19.600  0.00  0.00    +0.000 A 
ENDROOT
BRANCH   2  10
ATOM     10  C   UNL     1      -3.352  13.496  22.075  0.00  0.00    +0.000 A 
ATOM     11  C   UNL     1      -3.046  14.842  22.326  0.00  0.00    +0.000 A 
ATOM     12  C   UNL     1      -3.420  15.456  23.513  0.00  0.00    +0.000 A 
ATOM     13  C   UNL     1      -4.176  14.732  24.412  0.00  0.00    +0.000 A 
ATOM     14  N   UNL     1      -4.582  13.465  24.184  0.00  0.00    +0.000 NA
ATOM     15  C   UNL     1      -4.170  12.883  23.025  0.00  0.00    +0.000 A 
ENDBRANCH   2  10
BRANCH   6  16
ATOM     16  N   UNL     1      -2.515   9.961  15.713  0.00  0.00    +0.000 N 
ATOM     17  C   UNL     1      -3.376  10.505  14.772  0.00  0.00    +0.000 C 
ATOM     18  O   UNL     1      -4.016  11.548  14.874  0.00  0.00    +0.000 OA
ATOM     19  H   UNL     1      -2.053   9.099  15.434  0.00  0.00    +0.000 HD
BRANCH  17  20
ATOM     20  C   UNL     1      -3.473   9.651  13.505  0.00  0.00    +0.000 C 
BRANCH  20  21
ATOM     21  O   UNL     1      -4.790   9.566  12.973  0.00  0.00    +0.000 OA
ATOM     22  C   UNL     1      -4.792   9.716  11.553  0.00  0.00    +0.000 C 
ENDBRANCH  20  21
ENDBRANCH  17  20
ENDBRANCH   6  16
BRANCH   8  23
ATOM     23  C   UNL     1       0.530   9.922  19.547  0.00  0.00    +0.000 C 
ATOM     24  O   UNL     1       1.631  10.393  19.306  0.00  0.00    +0.000 OA
ATOM     25  N   UNL     1       0.381   8.869  20.424  0.00  0.00    +0.000 N 
ATOM     26  H   UNL     1      -0.515   8.464  20.670  0.00  0.00    +0.000 HD
BRANCH  25  27
ATOM     27  C   UNL     1       1.565   8.246  20.991  0.00  0.00    +0.000 C 
BRANCH  27  28
ATOM     28  C   UNL     1       1.794   6.893  20.395  0.00  0.00    +0.000 A 
ATOM     29  N   UNL     1       1.373   5.752  20.910  0.00  0.00    +0.000 NA
ATOM     30  C   UNL     1       1.773   4.697  20.102  0.00  0.00    +0.000 A 
ATOM     31  C   UNL     1       1.415   3.312  20.499  0.00  0.00    +0.000 C 
ATOM     32  C   UNL     1       2.488   5.063  18.976  0.00  0.00    +0.000 A 
ATOM     33  S   UNL     1       2.671   6.762  18.921  0.00  0.00    +0.000 S 
ENDBRANCH  27  28
ENDBRANCH  25  27
ENDBRANCH   8  23
BRANCH   1  35
ATOM     34  C   UNL     1      -0.740  11.113  22.901  0.00  0.00    +0.000 C 
ATOM     35  C   UNL     1      -0.569  12.135  21.789  0.00  0.00    +0.000 C 
ENDBRANCH   1  35
TORSDOF 8
ENDMDL
MODEL 2
REMARK VINA RESULT:      -6.7      3.880      6.985
REMARK  Name = 
REMARK  11 active torsions:
REMARK  status: ('A' for Active; 'I' for Inactive)
REMARK    1  A    between atoms: C_1  and  C_2
REMARK    2  A    between atoms: C_2  and  N_3
REMARK    3  A    between atoms: C_4  and  C_5
REMARK    4  A    between atoms: C_14  and  N_15
REMARK    5  A    between atoms: C_16  and  C_18
REMARK    6  A    between atoms: C_18  and  O_19
REMARK    7  A    between atoms: O_19  and  C_20
REMARK    8  A    between atoms: C_22  and  C_23
REMARK    9  A    between atoms: N_25  and  C_26
REMARK   10  A    between atoms: C_26  and  C_27
REMARK   11  A    between atoms: C_29  and  C_30
REMARK                            x       y       z     vdW  Elec       q    Type
REMARK                         _______ _______ _______ _____ _____    ______ ____
ROOT
ATOM      1  N   UNL     1      -2.614  12.114  19.403  0.00  0.00    +0.000 N 
ATOM      2  C   UNL     1      -3.547  11.556  18.535  0.00  0.00    +0.000 A 
ATOM      3  N   UNL     1      -2.970  10.616  17.811  0.00  0.00    +0.000 NA
ATOM      4  C   UNL     1      -1.658  10.566  18.207  0.00  0.00    +0.000 A 
ATOM      5  C   UNL     1      -0.643   9.743  17.692  0.00  0.00    +0.000 A 
ATOM      6  C   UNL     1       0.648   9.801  18.226  0.00  0.00    +0.000 A 
ATOM      7  C   UNL     1       0.898  10.671  19.294  0.00  0.00    +0.000 A 
ATOM      8  C   UNL     1      -0.100  11.517  19.832  0.00  0.00    +0.000 A 
ATOM      9  C   UNL     1      -1.395  11.460  19.246  0.00  0.00    +0.000 A 
ENDROOT
BRANCH   2  10
ATOM     10  C   UNL     1      -4.991  11.873  18.447  0.00  0.00    +0.000 A 
ATOM     11  C   UNL     1      -5.601  12.480  17.340  0.00  0.00    +0.000 A 
ATOM     12  C   UNL     1      -6.926  12.892  17.383  0.00  0.00    +0.000 A 
ATOM     13  C   UNL     1      -7.658  12.616  18.519  0.00  0.00    +0.000 A 
ATOM     14  N   UNL     1      -7.153  11.950  19.580  0.00  0.00    +0.000 NA
ATOM     15  C   UNL     1      -5.842  11.590  19.515  0.00  0.00    +0.000 A 
ENDBRANCH   2  10
BRANCH   6  16
ATOM     16  N   UNL     1       1.713   9.001  17.759  0.00  0.00    +0.000 N 
ATOM     17  C   UNL     1       2.361   7.985  18.446  0.00  0.00    +0.000 C 
ATOM     18  O   UNL     1       2.082   7.555  19.561  0.00  0.00    +0.000 OA
ATOM     19  H   UNL     1       2.077   9.200  16.831  0.00  0.00    +0.000 HD
BRANCH  17  20
ATOM     20  C   UNL     1       3.530   7.397  17.652  0.00  0.00    +0.000 C 
BRANCH  20  21
ATOM     21  O   UNL     1       3.579   5.975  17.677  0.00  0.00    +0.000 OA
ATOM     22  C   UNL     1       4.734   5.501  18.369  0.00  0.00    +0.000 C 
ENDBRANCH  20  21
ENDBRANCH  17  20
ENDBRANCH   6  16
BRANCH   8  23
ATOM     23  C   UNL     1       0.234  12.321  21.040  0.00  0.00    +0.000 C 
ATOM     24  O   UNL     1       0.195  11.827  22.156  0.00  0.00    +0.000 OA
ATOM     25  N   UNL     1       0.620  13.631  20.853  0.00  0.00    +0.000 N 
ATOM     26  H   UNL     1       0.689  14.073  19.944  0.00  0.00    +0.000 HD
BRANCH  25  27
ATOM     27  C   UNL     1       0.887  14.464  22.014  0.00  0.00    +0.000 C 
BRANCH  27  28
ATOM     28  C   UNL     1      -0.387  14.998  22.592  0.00  0.00    +0.000 A 
ATOM     29  N   UNL     1      -0.918  14.622  23.741  0.00  0.00    +0.000 NA
ATOM     30  C   UNL     1      -2.102  15.312  23.959  0.00  0.00    +0.000 A 
ATOM     31  C   UNL     1      -2.877  15.037  25.194  0.00  0.00    +0.000 C 
ATOM     32  C   UNL     1      -2.443  16.212  22.965  0.00  0.00    +0.000 A 
ATOM     33  S   UNL     1      -1.265  16.198  21.727  0.00  0.00    +0.000 S 
ENDBRANCH  27  28
ENDBRANCH  25  27
ENDBRANCH   8  23
BRANCH   1  35
ATOM     34  C   UNL     1      -3.316  12.795  21.666  0.00  0.00    +0.000 C 
ATOM     35  C   UNL     1      -2.881  13.241  20.279  0.00  0.00    +0.000 C 
ENDBRANCH   1  35
TORSDOF 8
ENDMDL
MODEL 3
REMARK VINA RESULT:      -6.7      2.933      6.795
REMARK  Name = 
REMARK  11 active torsions:
REMARK  status: ('A' for Active; 'I' for Inactive)
REMARK    1  A    between atoms: C_1  and  C_2
REMARK    2  A    between atoms: C_2  and  N_3
REMARK    3  A    between atoms: C_4  and  C_5
REMARK    4  A    between atoms: C_14  and  N_15
REMARK    5  A    between atoms: C_16  and  C_18
REMARK    6  A    between atoms: C_18  and  O_19
REMARK    7  A    between atoms: O_19  and  C_20
REMARK    8  A    between atoms: C_22  and  C_23
REMARK    9  A    between atoms: N_25  and  C_26
REMARK   10  A    between atoms: C_26  and  C_27
REMARK   11  A    between atoms: C_29  and  C_30
REMARK                            x       y       z     vdW  Elec       q    Type
REMARK                         _______ _______ _______ _____ _____    ______ ____
ROOT
ATOM      1  N   UNL     1      -1.789  12.692  21.273  0.00  0.00    +0.000 N 
ATOM      2  C   UNL     1      -1.258  12.957  22.531  0.00  0.00    +0.000 A 
ATOM      3  N   UNL     1      -0.298  12.092  22.796  0.00  0.00    +0.000 NA
ATOM      4  C   UNL     1      -0.207  11.261  21.710  0.00  0.00    +0.000 A 
ATOM      5  C   UNL     1       0.649  10.159  21.547  0.00  0.00    +0.000 A 
ATOM      6  C   UNL     1       0.630   9.424  20.359  0.00  0.00    +0.000 A 
ATOM      7  C   UNL     1      -0.234   9.821  19.332  0.00  0.00    +0.000 A 
ATOM      8  C   UNL     1      -1.114  10.922  19.465  0.00  0.00    +0.000 A 
ATOM      9  C   UNL     1      -1.096  11.630  20.698  0.00  0.00    +0.000 A 
ENDROOT
BRANCH   2  10
ATOM     10  C   UNL     1      -1.620  14.068  23.442  0.00  0.00    +0.000 A 
ATOM     11  C   UNL     1      -0.859  15.233  23.609  0.00  0.00    +0.000 A 
ATOM     12  C   UNL     1      -1.171  16.162  24.592  0.00  0.00    +0.000 A 
ATOM     13  C   UNL     1      -2.302  15.952  25.353  0.00  0.00    +0.000 A 
ATOM     14  N   UNL     1      -3.127  14.898  25.175  0.00  0.00    +0.000 NA
ATOM     15  C   UNL     1      -2.773  13.991  24.224  0.00  0.00    +0.000 A 
ENDBRANCH   2  10
BRANCH   6  16
ATOM     16  N   UNL     1       1.465   8.309  20.127  0.00  0.00    +0.000 N 
ATOM     17  C   UNL     1       2.156   8.007  18.963  0.00  0.00    +0.000 C 
ATOM     18  O   UNL     1       2.217   8.689  17.945  0.00  0.00    +0.000 OA
ATOM     19  H   UNL     1       1.556   7.628  20.877  0.00  0.00    +0.000 HD
BRANCH  17  20
ATOM     20  C   UNL     1       2.891   6.667  19.051  0.00  0.00    +0.000 C 
BRANCH  20  21
ATOM     21  O   UNL     1       2.029   5.537  18.983  0.00  0.00    +0.000 OA
ATOM     22  C   UNL     1       2.019   4.809  20.211  0.00  0.00    +0.000 C 
ENDBRANCH  20  21
ENDBRANCH  17  20
ENDBRANCH   6  16
BRANCH   8  23
ATOM     23  C   UNL     1      -1.911  11.334  18.277  0.00  0.00    +0.000 C 
ATOM     24  O   UNL     1      -1.537  12.244  17.553  0.00  0.00    +0.000 OA
ATOM     25  N   UNL     1      -3.067  10.635  18.004  0.00  0.00    +0.000 N 
ATOM     26  H   UNL     1      -3.401   9.859  18.565  0.00  0.00    +0.000 HD
BRANCH  25  27
ATOM     27  C   UNL     1      -3.904  11.055  16.893  0.00  0.00    +0.000 C 
BRANCH  27  28
ATOM     28  C   UNL     1      -5.215  11.587  17.384  0.00  0.00    +0.000 A 
ATOM     29  N   UNL     1      -5.774  12.716  16.990  0.00  0.00    +0.000 NA
ATOM     30  C   UNL     1      -6.976  12.903  17.658  0.00  0.00    +0.000 A 
ATOM     31  C   UNL     1      -7.774  14.121  17.375  0.00  0.00    +0.000 C 
ATOM     32  C   UNL     1      -7.311  11.896  18.547  0.00  0.00    +0.000 A 
ATOM     33  S   UNL     1      -6.100  10.690  18.555  0.00  0.00    +0.000 S 
ENDBRANCH  27  28
ENDBRANCH  25  27
ENDBRANCH   8  23
BRANCH   1  35
ATOM     34  C   UNL     1      -4.246  12.730  21.068  0.00  0.00    +0.000 C 
ATOM     35  C   UNL     1      -2.927  13.390  20.700  0.00  0.00    +0.000 C 
ENDBRANCH   1  35
TORSDOF 8
ENDMDL
MODEL 4
REMARK VINA RESULT:      -6.6      3.135      6.713
REMARK  Name = 
REMARK  11 active torsions:
REMARK  status: ('A' for Active; 'I' for Inactive)
REMARK    1  A    between atoms: C_1  and  C_2
REMARK    2  A    between atoms: C_2  and  N_3
REMARK    3  A    between atoms: C_4  and  C_5
REMARK    4  A    between atoms: C_14  and  N_15
REMARK    5  A    between atoms: C_16  and  C_18
REMARK    6  A    between atoms: C_18  and  O_19
REMARK    7  A    between atoms: O_19  and  C_20
REMARK    8  A    between atoms: C_22  and  C_23
REMARK    9  A    between atoms: N_25  and  C_26
REMARK   10  A    between atoms: C_26  and  C_27
REMARK   11  A    between atoms: C_29  and  C_30
REMARK                            x       y       z     vdW  Elec       q    Type
REMARK                         _______ _______ _______ _____ _____    ______ ____
ROOT
ATOM      1  N   UNL     1      -1.670  12.670  21.172  0.00  0.00    +0.000 N 
ATOM      2  C   UNL     1      -0.996  12.941  22.358  0.00  0.00    +0.000 A 
ATOM      3  N   UNL     1       0.032  12.122  22.479  0.00  0.00    +0.000 NA
ATOM      4  C   UNL     1       0.023  11.315  21.371  0.00  0.00    +0.000 A 
ATOM      5  C   UNL     1       0.904  10.262  21.075  0.00  0.00    +0.000 A 
ATOM      6  C   UNL     1       0.769   9.546  19.883  0.00  0.00    +0.000 A 
ATOM      7  C   UNL     1      -0.239   9.915  18.984  0.00  0.00    +0.000 A 
ATOM      8  C   UNL     1      -1.147  10.967  19.253  0.00  0.00    +0.000 A 
ATOM      9  C   UNL     1      -1.006  11.655  20.490  0.00  0.00    +0.000 A 
ENDROOT
BRANCH   2  10
ATOM     10  C   UNL     1      -1.292  14.016  23.333  0.00  0.00    +0.000 A 
ATOM     11  C   UNL     1      -2.302  13.948  24.303  0.00  0.00    +0.000 A 
ATOM     12  C   UNL     1      -2.630  15.051  25.080  0.00  0.00    +0.000 A 
ATOM     13  C   UNL     1      -1.880  16.199  24.933  0.00  0.00    +0.000 A 
ATOM     14  N   UNL     1      -0.834  16.295  24.084  0.00  0.00    +0.000 NA
ATOM     15  C   UNL     1      -0.562  15.206  23.315  0.00  0.00    +0.000 A 
ENDBRANCH   2  10
BRANCH   6  16
ATOM     16  N   UNL     1       1.621   8.480  19.521  0.00  0.00    +0.000 N 
ATOM     17  C   UNL     1       2.275   8.304  18.310  0.00  0.00    +0.000 C 
ATOM     18  O   UNL     1       2.282   9.077  17.358  0.00  0.00    +0.000 OA
ATOM     19  H   UNL     1       1.755   7.736  20.201  0.00  0.00    +0.000 HD
BRANCH  17  20
ATOM     20  C   UNL     1       3.044   6.982  18.249  0.00  0.00    +0.000 C 
BRANCH  20  21
ATOM     21  O   UNL     1       2.931   6.200  19.433  0.00  0.00    +0.000 OA
ATOM     22  C   UNL     1       2.299   4.946  19.176  0.00  0.00    +0.000 C 
ENDBRANCH  20  21
ENDBRANCH  17  20
ENDBRANCH   6  16
BRANCH   8  23
ATOM     23  C   UNL     1      -2.110  11.357  18.186  0.00  0.00    +0.000 C 
ATOM     24  O   UNL     1      -1.808  12.181  17.337  0.00  0.00    +0.000 OA
ATOM     25  N   UNL     1      -3.339  10.735  18.171  0.00  0.00    +0.000 N 
ATOM     26  H   UNL     1      -3.621  10.030  18.842  0.00  0.00    +0.000 HD
BRANCH  25  27
ATOM     27  C   UNL     1      -4.327  11.141  17.186  0.00  0.00    +0.000 C 
BRANCH  27  28
ATOM     28  C   UNL     1      -5.566  11.654  17.852  0.00  0.00    +0.000 A 
ATOM     29  N   UNL     1      -6.035  11.235  19.013  0.00  0.00    +0.000 NA
ATOM     30  C   UNL     1      -7.204  11.918  19.321  0.00  0.00    +0.000 A 
ATOM     31  C   UNL     1      -7.912  11.597  20.585  0.00  0.00    +0.000 C 
ATOM     32  C   UNL     1      -7.595  12.856  18.382  0.00  0.00    +0.000 A 
ATOM     33  S   UNL     1      -6.485  12.888  17.083  0.00  0.00    +0.000 S 
ENDBRANCH  27  28
ENDBRANCH  25  27
ENDBRANCH   8  23
BRANCH   1  35
ATOM     34  C   UNL     1      -4.121  12.703  21.440  0.00  0.00    +0.000 C 
ATOM     35  C   UNL     1      -2.905  13.318  20.766  0.00  0.00    +0.000 C 
ENDBRANCH   1  35
TORSDOF 8
ENDMDL
MODEL 5
REMARK VINA RESULT:      -6.6      0.693      1.042
REMARK  Name = 
REMARK  11 active torsions:
REMARK  status: ('A' for Active; 'I' for Inactive)
REMARK    1  A    between atoms: C_1  and  C_2
REMARK    2  A    between atoms: C_2  and  N_3
REMARK    3  A    between atoms: C_4  and  C_5
REMARK    4  A    between atoms: C_14  and  N_15
REMARK    5  A    between atoms: C_16  and  C_18
REMARK    6  A    between atoms: C_18  and  O_19
REMARK    7  A    between atoms: O_19  and  C_20
REMARK    8  A    between atoms: C_22  and  C_23
REMARK    9  A    between atoms: N_25  and  C_26
REMARK   10  A    between atoms: C_26  and  C_27
REMARK   11  A    between atoms: C_29  and  C_30
REMARK                            x       y       z     vdW  Elec       q    Type
REMARK                         _______ _______ _______ _____ _____    ______ ____
ROOT
ATOM      1  N   UNL     1      -1.692  12.177  20.746  0.00  0.00    +0.000 N 
ATOM      2  C   UNL     1      -2.908  12.842  20.870  0.00  0.00    +0.000 A 
ATOM      3  N   UNL     1      -3.668  12.572  19.826  0.00  0.00    +0.000 NA
ATOM      4  C   UNL     1      -2.942  11.734  19.019  0.00  0.00    +0.000 A 
ATOM      5  C   UNL     1      -3.323  11.208  17.773  0.00  0.00    +0.000 A 
ATOM      6  C   UNL     1      -2.467  10.344  17.084  0.00  0.00    +0.000 A 
ATOM      7  C   UNL     1      -1.244   9.995  17.669  0.00  0.00    +0.000 A 
ATOM      8  C   UNL     1      -0.828  10.512  18.920  0.00  0.00    +0.000 A 
ATOM      9  C   UNL     1      -1.704  11.415  19.581  0.00  0.00    +0.000 A 
ENDROOT
BRANCH   2  10
ATOM     10  C   UNL     1      -3.365  13.672  22.009  0.00  0.00    +0.000 A 
ATOM     11  C   UNL     1      -4.078  13.179  23.111  0.00  0.00    +0.000 A 
ATOM     12  C   UNL     1      -4.611  14.035  24.065  0.00  0.00    +0.000 A 
ATOM     13  C   UNL     1      -4.353  15.385  23.947  0.00  0.00    +0.000 A 
ATOM     14  N   UNL     1      -3.594  15.909  22.962  0.00  0.00    +0.000 NA
ATOM     15  C   UNL     1      -3.114  15.044  22.026  0.00  0.00    +0.000 A 
ENDBRANCH   2  10
BRANCH   6  16
ATOM     16  N   UNL     1      -2.787   9.776  15.832  0.00  0.00    +0.000 N 
ATOM     17  C   UNL     1      -3.441  10.392  14.775  0.00  0.00    +0.000 C 
ATOM     18  O   UNL     1      -3.803  11.564  14.715  0.00  0.00    +0.000 OA
ATOM     19  H   UNL     1      -2.544   8.800  15.684  0.00  0.00    +0.000 HD
BRANCH  17  20
ATOM     20  C   UNL     1      -3.692   9.437  13.606  0.00  0.00    +0.000 C 
BRANCH  20  21
ATOM     21  O   UNL     1      -4.149  10.086  12.425  0.00  0.00    +0.000 OA
ATOM     22  C   UNL     1      -5.369   9.517  11.952  0.00  0.00    +0.000 C 
ENDBRANCH  20  21
ENDBRANCH  17  20
ENDBRANCH   6  16
BRANCH   8  23
ATOM     23  C   UNL     1       0.437   9.993  19.511  0.00  0.00    +0.000 C 
ATOM     24  O   UNL     1       1.519  10.460  19.191  0.00  0.00    +0.000 OA
ATOM     25  N   UNL     1       0.343   8.989  20.451  0.00  0.00    +0.000 N 
ATOM     26  H   UNL     1      -0.535   8.590  20.762  0.00  0.00    +0.000 HD
BRANCH  25  27
ATOM     27  C   UNL     1       1.560   8.413  20.997  0.00  0.00    +0.000 C 
BRANCH  27  28
ATOM     28  C   UNL     1       1.792   7.039  20.449  0.00  0.00    +0.000 A 
ATOM     29  N   UNL     1       1.343   5.919  20.986  0.00  0.00    +0.000 NA
ATOM     30  C   UNL     1       1.755   4.835  20.224  0.00  0.00    +0.000 A 
ATOM     31  C   UNL     1       1.370   3.468  20.652  0.00  0.00    +0.000 C 
ATOM     32  C   UNL     1       2.507   5.159  19.108  0.00  0.00    +0.000 A 
ATOM     33  S   UNL     1       2.710   6.853  19.006  0.00  0.00    +0.000 S 
ENDBRANCH  27  28
ENDBRANCH  25  27
ENDBRANCH   8  23
BRANCH   1  35
ATOM     34  C   UNL     1       0.408  13.382  21.209  0.00  0.00    +0.000 C 
ATOM     35  C   UNL     1      -0.581  12.323  21.670  0.00  0.00    +0.000 C 
ENDBRANCH   1  35
TORSDOF 8
ENDMDL
MODEL 6
REMARK VINA RESULT:      -6.6      1.478      1.743
REMARK  Name = 
REMARK  11 active torsions:
REMARK  status: ('A' for Active; 'I' for Inactive)
REMARK    1  A    between atoms: C_1  and  C_2
REMARK    2  A    between atoms: C_2  and  N_3
REMARK    3  A    between atoms: C_4  and  C_5
REMARK    4  A    between atoms: C_14  and  N_15
REMARK    5  A    between atoms: C_16  and  C_18
REMARK    6  A    between atoms: C_18  and  O_19
REMARK    7  A    between atoms: O_19  and  C_20
REMARK    8  A    between atoms: C_22  and  C_23
REMARK    9  A    between atoms: N_25  and  C_26
REMARK   10  A    between atoms: C_26  and  C_27
REMARK   11  A    between atoms: C_29  and  C_30
REMARK                            x       y       z     vdW  Elec       q    Type
REMARK                         _______ _______ _______ _____ _____    ______ ____
ROOT
ATOM      1  N   UNL     1      -0.297  11.839  20.364  0.00  0.00    +0.000 N 
ATOM      2  C   UNL     1      -1.354  12.641  20.781  0.00  0.00    +0.000 A 
ATOM      3  N   UNL     1      -2.378  12.483  19.964  0.00  0.00    +0.000 NA
ATOM      4  C   UNL     1      -1.984  11.580  19.011  0.00  0.00    +0.000 A 
ATOM      5  C   UNL     1      -2.725  11.127  17.907  0.00  0.00    +0.000 A 
ATOM      6  C   UNL     1      -2.180  10.181  17.035  0.00  0.00    +0.000 A 
ATOM      7  C   UNL     1      -0.900   9.678  17.298  0.00  0.00    +0.000 A 
ATOM      8  C   UNL     1      -0.125  10.117  18.398  0.00  0.00    +0.000 A 
ATOM      9  C   UNL     1      -0.692  11.106  19.248  0.00  0.00    +0.000 A 
ENDROOT
BRANCH   2  10
ATOM     10  C   UNL     1      -1.407  13.498  21.989  0.00  0.00    +0.000 A 
ATOM     11  C   UNL     1      -2.013  13.125  23.197  0.00  0.00    +0.000 A 
ATOM     12  C   UNL     1      -2.165  14.032  24.236  0.00  0.00    +0.000 A 
ATOM     13  C   UNL     1      -1.632  15.296  24.083  0.00  0.00    +0.000 A 
ATOM     14  N   UNL     1      -0.955  15.683  22.981  0.00  0.00    +0.000 NA
ATOM     15  C   UNL     1      -0.852  14.778  21.970  0.00  0.00    +0.000 A 
ENDBRANCH   2  10
BRANCH   6  16
ATOM     16  N   UNL     1      -2.869   9.679  15.910  0.00  0.00    +0.000 N 
ATOM     17  C   UNL     1      -3.491  10.415  14.912  0.00  0.00    +0.000 C 
ATOM     18  O   UNL     1      -3.498  11.636  14.793  0.00  0.00    +0.000 OA
ATOM     19  H   UNL     1      -2.954   8.669  15.824  0.00  0.00    +0.000 HD
BRANCH  17  20
ATOM     20  C   UNL     1      -4.214   9.527  13.896  0.00  0.00    +0.000 C 
BRANCH  20  21
ATOM     21  O   UNL     1      -4.005   9.918  12.544  0.00  0.00    +0.000 OA
ATOM     22  C   UNL     1      -5.135   9.612  11.728  0.00  0.00    +0.000 C 
ENDBRANCH  20  21
ENDBRANCH  17  20
ENDBRANCH   6  16
BRANCH   8  23
ATOM     23  C   UNL     1       1.176   9.440  18.658  0.00  0.00    +0.000 C 
ATOM     24  O   UNL     1       2.203   9.819  18.115  0.00  0.00    +0.000 OA
ATOM     25  N   UNL     1       1.188   8.392  19.553  0.00  0.00    +0.000 N 
ATOM     26  H   UNL     1       0.365   8.061  20.043  0.00  0.00    +0.000 HD
BRANCH  25  27
ATOM     27  C   UNL     1       2.426   7.666  19.778  0.00  0.00    +0.000 C 
BRANCH  27  28
ATOM     28  C   UNL     1       2.201   6.188  19.693  0.00  0.00    +0.000 A 
ATOM     29  N   UNL     1       1.808   5.419  20.692  0.00  0.00    +0.000 NA
ATOM     30  C   UNL     1       1.714   4.103  20.262  0.00  0.00    +0.000 A 
ATOM     31  C   UNL     1       1.297   3.058  21.230  0.00  0.00    +0.000 C 
ATOM     32  C   UNL     1       2.031   3.901  18.930  0.00  0.00    +0.000 A 
ATOM     33  S   UNL     1       2.461   5.383  18.195  0.00  0.00    +0.000 S 
ENDBRANCH  27  28
ENDBRANCH  25  27
ENDBRANCH   8  23
BRANCH   1  35
ATOM     34  C   UNL     1       1.943  12.869  20.353  0.00  0.00    +0.000 C 
ATOM     35  C   UNL     1       1.020  11.834  20.976  0.00  0.00    +0.000 C 
ENDBRANCH   1  35
TORSDOF 8
ENDMDL
MODEL 7
REMARK VINA RESULT:      -6.5      3.472      6.796
REMARK  Name = 
REMARK  11 active torsions:
REMARK  status: ('A' for Active; 'I' for Inactive)
REMARK    1  A    between atoms: C_1  and  C_2
REMARK    2  A    between atoms: C_2  and  N_3
REMARK    3  A    between atoms: C_4  and  C_5
REMARK    4  A    between atoms: C_14  and  N_15
REMARK    5  A    between atoms: C_16  and  C_18
REMARK    6  A    between atoms: C_18  and  O_19
REMARK    7  A    between atoms: O_19  and  C_20
REMARK    8  A    between atoms: C_22  and  C_23
REMARK    9  A    between atoms: N_25  and  C_26
REMARK   10  A    between atoms: C_26  and  C_27
REMARK   11  A    between atoms: C_29  and  C_30
REMARK                            x       y       z     vdW  Elec       q    Type
REMARK                         _______ _______ _______ _____ _____    ______ ____
ROOT
ATOM      1  N   UNL     1      -1.816  12.303  20.500  0.00  0.00    +0.000 N 
ATOM      2  C   UNL     1      -0.913  12.929  21.353  0.00  0.00    +0.000 A 
ATOM      3  N   UNL     1       0.308  12.497  21.099  0.00  0.00    +0.000 NA
ATOM      4  C   UNL     1       0.198  11.585  20.081  0.00  0.00    +0.000 A 
ATOM      5  C   UNL     1       1.228  10.831  19.496  0.00  0.00    +0.000 A 
ATOM      6  C   UNL     1       0.947   9.954  18.445  0.00  0.00    +0.000 A 
ATOM      7  C   UNL     1      -0.367   9.864  17.973  0.00  0.00    +0.000 A 
ATOM      8  C   UNL     1      -1.430  10.605  18.543  0.00  0.00    +0.000 A 
ATOM      9  C   UNL     1      -1.120  11.464  19.634  0.00  0.00    +0.000 A 
ENDROOT
BRANCH   2  10
ATOM     10  C   UNL     1      -1.207  13.979  22.355  0.00  0.00    +0.000 A 
ATOM     11  C   UNL     1      -1.702  13.727  23.643  0.00  0.00    +0.000 A 
ATOM     12  C   UNL     1      -2.104  14.762  24.475  0.00  0.00    +0.000 A 
ATOM     13  C   UNL     1      -1.929  16.059  24.036  0.00  0.00    +0.000 A 
ATOM     14  N   UNL     1      -1.371  16.366  22.846  0.00  0.00    +0.000 NA
ATOM     15  C   UNL     1      -1.018  15.326  22.042  0.00  0.00    +0.000 A 
ENDBRANCH   2  10
BRANCH   6  16
ATOM     16  N   UNL     1       1.934   9.169  17.809  0.00  0.00    +0.000 N 
ATOM     17  C   UNL     1       2.520   8.008  18.292  0.00  0.00    +0.000 C 
ATOM     18  O   UNL     1       2.240   7.418  19.330  0.00  0.00    +0.000 OA
ATOM     19  H   UNL     1       2.285   9.495  16.912  0.00  0.00    +0.000 HD
BRANCH  17  20
ATOM     20  C   UNL     1       3.617   7.479  17.364  0.00  0.00    +0.000 C 
BRANCH  20  21
ATOM     21  O   UNL     1       3.796   6.069  17.437  0.00  0.00    +0.000 OA
ATOM     22  C   UNL     1       4.985   5.655  16.765  0.00  0.00    +0.000 C 
ENDBRANCH  20  21
ENDBRANCH  17  20
ENDBRANCH   6  16
BRANCH   8  23
ATOM     23  C   UNL     1      -2.770  10.527  17.898  0.00  0.00    +0.000 C 
ATOM     24  O   UNL     1      -3.389   9.475  17.860  0.00  0.00    +0.000 OA
ATOM     25  N   UNL     1      -3.299  11.686  17.373  0.00  0.00    +0.000 N 
ATOM     26  H   UNL     1      -2.829  12.583  17.403  0.00  0.00    +0.000 HD
BRANCH  25  27
ATOM     27  C   UNL     1      -4.573  11.631  16.675  0.00  0.00    +0.000 C 
BRANCH  27  28
ATOM     28  C   UNL     1      -5.702  11.971  17.598  0.00  0.00    +0.000 A 
ATOM     29  N   UNL     1      -6.036  11.288  18.677  0.00  0.00    +0.000 NA
ATOM     30  C   UNL     1      -7.134  11.879  19.285  0.00  0.00    +0.000 A 
ATOM     31  C   UNL     1      -7.689  11.267  20.518  0.00  0.00    +0.000 C 
ATOM     32  C   UNL     1      -7.609  13.015  18.653  0.00  0.00    +0.000 A 
ATOM     33  S   UNL     1      -6.670  13.354  17.267  0.00  0.00    +0.000 S 
ENDBRANCH  27  28
ENDBRANCH  25  27
ENDBRANCH   8  23
BRANCH   1  35
ATOM     34  C   UNL     1      -3.687  13.873  20.167  0.00  0.00    +0.000 C 
ATOM     35  C   UNL     1      -3.257  12.470  20.565  0.00  0.00    +0.000 C 
ENDBRANCH   1  35
TORSDOF 8
ENDMDL
MODEL 8
REMARK VINA RESULT:      -6.5      3.190      6.608
REMARK  Name = 
REMARK  11 active torsions:
REMARK  status: ('A' for Active; 'I' for Inactive)
REMARK    1  A    between atoms: C_1  and  C_2
REMARK    2  A    between atoms: C_2  and  N_3
REMARK    3  A    between atoms: C_4  and  C_5
REMARK    4  A    between atoms: C_14  and  N_15
REMARK    5  A    between atoms: C_16  and  C_18
REMARK    6  A    between atoms: C_18  and  O_19
REMARK    7  A    between atoms: O_19  and  C_20
REMARK    8  A    between atoms: C_22  and  C_23
REMARK    9  A    between atoms: N_25  and  C_26
REMARK   10  A    between atoms: C_26  and  C_27
REMARK   11  A    between atoms: C_29  and  C_30
REMARK                            x       y       z     vdW  Elec       q    Type
REMARK                         _______ _______ _______ _____ _____    ______ ____
ROOT
ATOM      1  N   UNL     1      -1.327  12.819  20.809  0.00  0.00    +0.000 N 
ATOM      2  C   UNL     1      -0.539  13.176  21.899  0.00  0.00    +0.000 A 
ATOM      3  N   UNL     1       0.464  12.327  22.016  0.00  0.00    +0.000 NA
ATOM      4  C   UNL     1       0.326  11.414  21.004  0.00  0.00    +0.000 A 
ATOM      5  C   UNL     1       1.138  10.297  20.746  0.00  0.00    +0.000 A 
ATOM      6  C   UNL     1       0.870   9.472  19.650  0.00  0.00    +0.000 A 
ATOM      7  C   UNL     1      -0.200   9.794  18.807  0.00  0.00    +0.000 A 
ATOM      8  C   UNL     1      -1.040  10.909  19.041  0.00  0.00    +0.000 A 
ATOM      9  C   UNL     1      -0.764  11.710  20.183  0.00  0.00    +0.000 A 
ENDROOT
BRANCH   2  10
ATOM     10  C   UNL     1      -0.707  14.356  22.778  0.00  0.00    +0.000 A 
ATOM     11  C   UNL     1      -0.129  15.611  22.537  0.00  0.00    +0.000 A 
ATOM     12  C   UNL     1      -0.195  16.628  23.479  0.00  0.00    +0.000 A 
ATOM     13  C   UNL     1      -0.918  16.403  24.632  0.00  0.00    +0.000 A 
ATOM     14  N   UNL     1      -1.577  15.250  24.878  0.00  0.00    +0.000 NA
ATOM     15  C   UNL     1      -1.462  14.263  23.948  0.00  0.00    +0.000 A 
ENDBRANCH   2  10
BRANCH   6  16
ATOM     16  N   UNL     1       1.646   8.336  19.330  0.00  0.00    +0.000 N 
ATOM     17  C   UNL     1       2.369   8.116  18.167  0.00  0.00    +0.000 C 
ATOM     18  O   UNL     1       2.517   8.897  17.232  0.00  0.00    +0.000 OA
ATOM     19  H   UNL     1       1.662   7.575  20.004  0.00  0.00    +0.000 HD
BRANCH  17  20
ATOM     20  C   UNL     1       3.018   6.730  18.136  0.00  0.00    +0.000 C 
BRANCH  20  21
ATOM     21  O   UNL     1       2.082   5.664  18.016  0.00  0.00    +0.000 OA
ATOM     22  C   UNL     1       2.540   4.487  18.682  0.00  0.00    +0.000 C 
ENDBRANCH  20  21
ENDBRANCH  17  20
ENDBRANCH   6  16
BRANCH   8  23
ATOM     23  C   UNL     1      -2.079  11.234  18.025  0.00  0.00    +0.000 C 
ATOM     24  O   UNL     1      -1.857  12.037  17.132  0.00  0.00    +0.000 OA
ATOM     25  N   UNL     1      -3.287  10.574  18.107  0.00  0.00    +0.000 N 
ATOM     26  H   UNL     1      -3.504   9.884  18.816  0.00  0.00    +0.000 HD
BRANCH  25  27
ATOM     27  C   UNL     1      -4.347  10.918  17.174  0.00  0.00    +0.000 C 
BRANCH  27  28
ATOM     28  C   UNL     1      -5.560  11.407  17.900  0.00  0.00    +0.000 A 
ATOM     29  N   UNL     1      -6.053  10.875  19.004  0.00  0.00    +0.000 NA
ATOM     30  C   UNL     1      -7.188  11.573  19.395  0.00  0.00    +0.000 A 
ATOM     31  C   UNL     1      -7.915  11.138  20.613  0.00  0.00    +0.000 C 
ATOM     32  C   UNL     1      -7.529  12.635  18.577  0.00  0.00    +0.000 A 
ATOM     33  S   UNL     1      -6.415  12.768  17.287  0.00  0.00    +0.000 S 
ENDBRANCH  27  28
ENDBRANCH  25  27
ENDBRANCH   8  23
BRANCH   1  35
ATOM     34  C   UNL     1      -3.778  12.804  21.070  0.00  0.00    +0.000 C 
ATOM     35  C   UNL     1      -2.568  13.478  20.444  0.00  0.00    +0.000 C 
ENDBRANCH   1  35
TORSDOF 8
ENDMDL
MODEL 9
REMARK VINA RESULT:      -6.4      4.398      7.573
REMARK  Name = 
REMARK  11 active torsions:
REMARK  status: ('A' for Active; 'I' for Inactive)
REMARK    1  A    between atoms: C_1  and  C_2
REMARK    2  A    between atoms: C_2  and  N_3
REMARK    3  A    between atoms: C_4  and  C_5
REMARK    4  A    between atoms: C_14  and  N_15
REMARK    5  A    between atoms: C_16  and  C_18
REMARK    6  A    between atoms: C_18  and  O_19
REMARK    7  A    between atoms: O_19  and  C_20
REMARK    8  A    between atoms: C_22  and  C_23
REMARK    9  A    between atoms: N_25  and  C_26
REMARK   10  A    between atoms: C_26  and  C_27
REMARK   11  A    between atoms: C_29  and  C_30
REMARK                            x       y       z     vdW  Elec       q    Type
REMARK                         _______ _______ _______ _____ _____    ______ ____
ROOT
ATOM      1  N   UNL     1       0.187  13.957  20.262  0.00  0.00    +0.000 N 
ATOM      2  C   UNL     1       0.757  14.473  19.102  0.00  0.00    +0.000 A 
ATOM      3  N   UNL     1       1.293  13.493  18.400  0.00  0.00    +0.000 NA
ATOM      4  C   UNL     1       1.076  12.339  19.107  0.00  0.00    +0.000 A 
ATOM      5  C   UNL     1       1.500  11.041  18.774  0.00  0.00    +0.000 A 
ATOM      6  C   UNL     1       1.174   9.962  19.599  0.00  0.00    +0.000 A 
ATOM      7  C   UNL     1       0.400  10.195  20.742  0.00  0.00    +0.000 A 
ATOM      8  C   UNL     1      -0.039  11.489  21.109  0.00  0.00    +0.000 A 
ATOM      9  C   UNL     1       0.337  12.573  20.269  0.00  0.00    +0.000 A 
ENDROOT
BRANCH   2  10
ATOM     10  C   UNL     1       0.729  15.879  18.638  0.00  0.00    +0.000 A 
ATOM     11  C   UNL     1      -0.438  16.573  18.288  0.00  0.00    +0.000 A 
ATOM     12  C   UNL     1      -0.381  17.835  17.712  0.00  0.00    +0.000 A 
ATOM     13  C   UNL     1       0.856  18.429  17.566  0.00  0.00    +0.000 A 
ATOM     14  N   UNL     1       2.006  17.851  17.972  0.00  0.00    +0.000 NA
ATOM     15  C   UNL     1       1.915  16.601  18.502  0.00  0.00    +0.000 A 
ENDBRANCH   2  10
BRANCH   6  16
ATOM     16  N   UNL     1       1.563   8.633  19.323  0.00  0.00    +0.000 N 
ATOM     17  C   UNL     1       2.184   8.163  18.175  0.00  0.00    +0.000 C 
ATOM     18  O   UNL     1       2.565   8.830  17.218  0.00  0.00    +0.000 OA
ATOM     19  H   UNL     1       1.344   7.926  20.021  0.00  0.00    +0.000 HD
BRANCH  17  20
ATOM     20  C   UNL     1       2.375   6.644  18.194  0.00  0.00    +0.000 C 
BRANCH  20  21
ATOM     21  O   UNL     1       3.740   6.241  18.218  0.00  0.00    +0.000 OA
ATOM     22  C   UNL     1       4.057   5.535  19.417  0.00  0.00    +0.000 C 
ENDBRANCH  20  21
ENDBRANCH  17  20
ENDBRANCH   6  16
BRANCH   8  23
ATOM     23  C   UNL     1      -0.952  11.618  22.279  0.00  0.00    +0.000 C 
ATOM     24  O   UNL     1      -0.599  11.270  23.394  0.00  0.00    +0.000 OA
ATOM     25  N   UNL     1      -2.196  12.172  22.064  0.00  0.00    +0.000 N 
ATOM     26  H   UNL     1      -2.520  12.495  21.160  0.00  0.00    +0.000 HD
BRANCH  25  27
ATOM     27  C   UNL     1      -3.138  12.249  23.169  0.00  0.00    +0.000 C 
BRANCH  27  28
ATOM     28  C   UNL     1      -4.399  12.937  22.748  0.00  0.00    +0.000 A 
ATOM     29  N   UNL     1      -5.542  12.334  22.479  0.00  0.00    +0.000 NA
ATOM     30  C   UNL     1      -6.494  13.274  22.110  0.00  0.00    +0.000 A 
ATOM     31  C   UNL     1      -7.858  12.814  21.752  0.00  0.00    +0.000 C 
ATOM     32  C   UNL     1      -6.050  14.585  22.116  0.00  0.00    +0.000 A 
ATOM     33  S   UNL     1      -4.409  14.650  22.589  0.00  0.00    +0.000 S 
ENDBRANCH  27  28
ENDBRANCH  25  27
ENDBRANCH   8  23
BRANCH   1  35
ATOM     34  C   UNL     1       0.636  15.303  22.279  0.00  0.00    +0.000 C 
ATOM     35  C   UNL     1      -0.408  14.764  21.312  0.00  0.00    +0.000 C 
ENDBRANCH   1  35
TORSDOF 8
ENDMDL
