MODEL 1
REMARK VINA RESULT:      -9.3      0.000      0.000
REMARK  Name = 
REMARK  5 active torsions:
REMARK  status: ('A' for Active; 'I' for Inactive)
REMARK    1  A    between atoms: C_1  and  N_2
REMARK    2  A    between atoms: C_4  and  C_5
REMARK    3  A    between atoms: N_13  and  C_14
REMARK    4  A    between atoms: C_19  and  C_20
REMARK    5  A    between atoms: C_20  and  C_22
REMARK                            x       y       z     vdW  Elec       q    Type
REMARK                         _______ _______ _______ _____ _____    ______ ____
ROOT
ATOM      1  C   UNL     1       2.252  11.334  17.822  0.00  0.00    +0.000 C 
ATOM      2  N   UNL     1       1.204  11.505  18.800  0.00  0.00    +0.000 N 
ATOM      3  N   UNL     1       0.570  12.702  18.883  0.00  0.00    +0.000 NA
ATOM      4  C   UNL     1      -0.255  12.579  19.946  0.00  0.00    +0.000 A 
ATOM      5  C   UNL     1      -0.113  11.301  20.536  0.00  0.00    +0.000 A 
ATOM      6  C   UNL     1       0.807  10.620  19.758  0.00  0.00    +0.000 A 
ATOM      7  C   UNL     1       1.220   9.251  20.028  0.00  0.00    +0.000 A 
ATOM      8  N   UNL     1       1.910   8.585  19.085  0.00  0.00    +0.000 NA
ATOM      9  C   UNL     1       2.187   7.300  19.364  0.00  0.00    +0.000 A 
ATOM     10  N   UNL     1       2.935   6.576  18.426  0.00  0.00    +0.000 N 
ATOM     11  N   UNL     1       1.821   6.685  20.507  0.00  0.00    +0.000 NA
ATOM     12  C   UNL     1       1.148   7.399  21.425  0.00  0.00    +0.000 A 
ATOM     13  C   UNL     1       0.809   8.710  21.240  0.00  0.00    +0.000 A 
ATOM     14  C   UNL     1       0.141   9.553  22.298  0.00  0.00    +0.000 C 
ATOM     15  C   UNL     1      -0.760  10.673  21.724  0.00  0.00    +0.000 C 
ATOM     16  H   UNL     1       3.061   7.139  17.594  0.00  0.00    +0.000 HD
ENDROOT
BRANCH  10  17
ATOM     17  C   UNL     1       2.856   5.185  18.191  0.00  0.00    +0.000 A 
ATOM     18  C   UNL     1       1.756   4.465  18.710  0.00  0.00    +0.000 A 
ATOM     19  C   UNL     1       1.563   3.110  18.440  0.00  0.00    +0.000 A 
ATOM     20  C   UNL     1       2.464   2.437  17.627  0.00  0.00    +0.000 A 
ATOM     21  C   UNL     1       3.555   3.124  17.097  0.00  0.00    +0.000 A 
ATOM     22  C   UNL     1       3.772   4.492  17.373  0.00  0.00    +0.000 A 
BRANCH  22  23
ATOM     23  C   UNL     1       4.976   5.081  16.712  0.00  0.00    +0.000 C 
ATOM     24  O   UNL     1       5.026   5.059  15.480  0.00  0.00    +0.000 OA
BRANCH  23  25
ATOM     25  C   UNL     1       6.121   5.697  17.430  0.00  0.00    +0.000 A 
ATOM     26  C   UNL     1       6.578   6.943  16.974  0.00  0.00    +0.000 A 
ATOM     27  C   UNL     1       7.611   7.605  17.638  0.00  0.00    +0.000 A 
ATOM     28  C   UNL     1       8.199   7.023  18.758  0.00  0.00    +0.000 A 
ATOM     29  C   UNL     1       7.788   5.761  19.184  0.00  0.00    +0.000 A 
ATOM     30  C   UNL     1       6.770   5.085  18.505  0.00  0.00    +0.000 A 
ENDBRANCH  23  25
ENDBRANCH  22  23
ENDBRANCH  10  17
BRANCH   4  31
ATOM     31  C   UNL     1      -1.143  13.671  20.375  0.00  0.00    +0.000 C 
ATOM     32  N   UNL     1      -2.444  13.522  19.992  0.00  0.00    +0.000 N 
ATOM     33  O   UNL     1      -0.772  14.648  21.021  0.00  0.00    +0.000 OA
ATOM     34  H   UNL     1      -2.700  12.687  19.472  0.00  0.00    +0.000 HD
ATOM     35  H   UNL     1      -3.130  14.213  20.247  0.00  0.00    +0.000 HD
ENDBRANCH   4  31
TORSDOF 4
ENDMDL
MODEL 2
REMARK VINA RESULT:      -9.3      2.042      4.219
REMARK  Name = 
REMARK  5 active torsions:
REMARK  status: ('A' for Active; 'I' for Inactive)
REMARK    1  A    between atoms: C_1  and  N_2
REMARK    2  A    between atoms: C_4  and  C_5
REMARK    3  A    between atoms: N_13  and  C_14
REMARK    4  A    between atoms: C_19  and  C_20
REMARK    5  A    between atoms: C_20  and  C_22
REMARK                            x       y       z     vdW  Elec       q    Type
REMARK                         _______ _______ _______ _____ _____    ______ ____
ROOT
ATOM      1  C   UNL     1      -0.487   8.230  22.062  0.00  0.00    +0.000 C 
ATOM      2  N   UNL     1      -0.320   9.656  21.913  0.00  0.00    +0.000 N 
ATOM      3  N   UNL     1      -0.865  10.483  22.840  0.00  0.00    +0.000 NA
ATOM      4  C   UNL     1      -0.637  11.728  22.364  0.00  0.00    +0.000 A 
ATOM      5  C   UNL     1       0.038  11.666  21.123  0.00  0.00    +0.000 A 
ATOM      6  C   UNL     1       0.259  10.323  20.874  0.00  0.00    +0.000 A 
ATOM      7  C   UNL     1       0.947   9.835  19.688  0.00  0.00    +0.000 A 
ATOM      8  N   UNL     1       1.346   8.551  19.653  0.00  0.00    +0.000 NA
ATOM      9  C   UNL     1       2.048   8.189  18.566  0.00  0.00    +0.000 A 
ATOM     10  N   UNL     1       2.455   6.851  18.468  0.00  0.00    +0.000 N 
ATOM     11  N   UNL     1       2.348   9.026  17.552  0.00  0.00    +0.000 NA
ATOM     12  C   UNL     1       1.912  10.295  17.627  0.00  0.00    +0.000 A 
ATOM     13  C   UNL     1       1.196  10.770  18.691  0.00  0.00    +0.000 A 
ATOM     14  C   UNL     1       0.616  12.162  18.747  0.00  0.00    +0.000 C 
ATOM     15  C   UNL     1       0.496  12.728  20.183  0.00  0.00    +0.000 C 
ATOM     16  H   UNL     1       2.233   6.371  19.332  0.00  0.00    +0.000 HD
ENDROOT
BRANCH  10  17
ATOM     17  C   UNL     1       3.611   6.377  17.810  0.00  0.00    +0.000 A 
ATOM     18  C   UNL     1       4.659   7.283  17.529  0.00  0.00    +0.000 A 
ATOM     19  C   UNL     1       5.867   6.869  16.967  0.00  0.00    +0.000 A 
ATOM     20  C   UNL     1       6.065   5.525  16.681  0.00  0.00    +0.000 A 
ATOM     21  C   UNL     1       5.052   4.609  16.953  0.00  0.00    +0.000 A 
ATOM     22  C   UNL     1       3.818   5.015  17.509  0.00  0.00    +0.000 A 
BRANCH  22  23
ATOM     23  C   UNL     1       2.847   3.906  17.755  0.00  0.00    +0.000 C 
ATOM     24  O   UNL     1       2.358   3.339  16.775  0.00  0.00    +0.000 OA
BRANCH  23  25
ATOM     25  C   UNL     1       2.428   3.428  19.097  0.00  0.00    +0.000 A 
ATOM     26  C   UNL     1       3.421   2.901  19.937  0.00  0.00    +0.000 A 
ATOM     27  C   UNL     1       3.108   2.488  21.233  0.00  0.00    +0.000 A 
ATOM     28  C   UNL     1       1.798   2.593  21.695  0.00  0.00    +0.000 A 
ATOM     29  C   UNL     1       0.796   3.065  20.847  0.00  0.00    +0.000 A 
ATOM     30  C   UNL     1       1.104   3.455  19.541  0.00  0.00    +0.000 A 
ENDBRANCH  23  25
ENDBRANCH  22  23
ENDBRANCH  10  17
BRANCH   4  31
ATOM     31  C   UNL     1      -1.070  12.932  23.091  0.00  0.00    +0.000 C 
ATOM     32  N   UNL     1      -2.408  12.980  23.355  0.00  0.00    +0.000 N 
ATOM     33  O   UNL     1      -0.314  13.834  23.442  0.00  0.00    +0.000 OA
ATOM     34  H   UNL     1      -2.986  12.200  23.056  0.00  0.00    +0.000 HD
ATOM     35  H   UNL     1      -2.797  13.760  23.858  0.00  0.00    +0.000 HD
ENDBRANCH   4  31
TORSDOF 4
ENDMDL
MODEL 3
REMARK VINA RESULT:      -9.0      1.376      1.836
REMARK  Name = 
REMARK  5 active torsions:
REMARK  status: ('A' for Active; 'I' for Inactive)
REMARK    1  A    between atoms: C_1  and  N_2
REMARK    2  A    between atoms: C_4  and  C_5
REMARK    3  A    between atoms: N_13  and  C_14
REMARK    4  A    between atoms: C_19  and  C_20
REMARK    5  A    between atoms: C_20  and  C_22
REMARK                            x       y       z     vdW  Elec       q    Type
REMARK                         _______ _______ _______ _____ _____    ______ ____
ROOT
ATOM      1  C   UNL     1       2.516  10.847  17.722  0.00  0.00    +0.000 C 
ATOM      2  N   UNL     1       1.455  11.192  18.638  0.00  0.00    +0.000 N 
ATOM      3  N   UNL     1       0.916  12.435  18.583  0.00  0.00    +0.000 NA
ATOM      4  C   UNL     1       0.052  12.480  19.622  0.00  0.00    +0.000 A 
ATOM      5  C   UNL     1       0.074  11.258  20.335  0.00  0.00    +0.000 A 
ATOM      6  C   UNL     1       0.960  10.437  19.660  0.00  0.00    +0.000 A 
ATOM      7  C   UNL     1       1.255   9.074  20.074  0.00  0.00    +0.000 A 
ATOM      8  N   UNL     1       1.917   8.268  19.225  0.00  0.00    +0.000 NA
ATOM      9  C   UNL     1       2.083   6.999  19.635  0.00  0.00    +0.000 A 
ATOM     10  N   UNL     1       2.799   6.132  18.799  0.00  0.00    +0.000 N 
ATOM     11  N   UNL     1       1.635   6.528  20.816  0.00  0.00    +0.000 NA
ATOM     12  C   UNL     1       0.993   7.377  21.636  0.00  0.00    +0.000 A 
ATOM     13  C   UNL     1       0.765   8.685  21.315  0.00  0.00    +0.000 A 
ATOM     14  C   UNL     1       0.134   9.676  22.263  0.00  0.00    +0.000 C 
ATOM     15  C   UNL     1      -0.656  10.801  21.551  0.00  0.00    +0.000 C 
ATOM     16  H   UNL     1       2.995   6.599  17.922  0.00  0.00    +0.000 HD
ENDROOT
BRANCH  10  17
ATOM     17  C   UNL     1       2.617   4.735  18.694  0.00  0.00    +0.000 A 
ATOM     18  C   UNL     1       1.310   4.206  18.797  0.00  0.00    +0.000 A 
ATOM     19  C   UNL     1       1.043   2.849  18.611  0.00  0.00    +0.000 A 
ATOM     20  C   UNL     1       2.080   1.982  18.300  0.00  0.00    +0.000 A 
ATOM     21  C   UNL     1       3.378   2.477  18.186  0.00  0.00    +0.000 A 
ATOM     22  C   UNL     1       3.667   3.845  18.386  0.00  0.00    +0.000 A 
BRANCH  22  23
ATOM     23  C   UNL     1       5.104   4.214  18.208  0.00  0.00    +0.000 C 
ATOM     24  O   UNL     1       5.792   4.358  19.221  0.00  0.00    +0.000 OA
BRANCH  23  25
ATOM     25  C   UNL     1       5.771   4.418  16.897  0.00  0.00    +0.000 A 
ATOM     26  C   UNL     1       5.021   4.156  15.740  0.00  0.00    +0.000 A 
ATOM     27  C   UNL     1       5.566   4.382  14.476  0.00  0.00    +0.000 A 
ATOM     28  C   UNL     1       6.867   4.864  14.359  0.00  0.00    +0.000 A 
ATOM     29  C   UNL     1       7.638   5.074  15.503  0.00  0.00    +0.000 A 
ATOM     30  C   UNL     1       7.101   4.824  16.769  0.00  0.00    +0.000 A 
ENDBRANCH  23  25
ENDBRANCH  22  23
ENDBRANCH  10  17
BRANCH   4  31
ATOM     31  C   UNL     1      -0.759  13.674  19.911  0.00  0.00    +0.000 C 
ATOM     32  N   UNL     1      -2.089  13.527  19.649  0.00  0.00    +0.000 N 
ATOM     33  O   UNL     1      -0.303  14.726  20.350  0.00  0.00    +0.000 OA
ATOM     34  H   UNL     1      -2.416  12.629  19.300  0.00  0.00    +0.000 HD
ATOM     35  H   UNL     1      -2.727  14.285  19.824  0.00  0.00    +0.000 HD
ENDBRANCH   4  31
TORSDOF 4
ENDMDL
MODEL 4
REMARK VINA RESULT:      -8.8      1.582      2.173
REMARK  Name = 
REMARK  5 active torsions:
REMARK  status: ('A' for Active; 'I' for Inactive)
REMARK    1  A    between atoms: C_1  and  N_2
REMARK    2  A    between atoms: C_4  and  C_5
REMARK    3  A    between atoms: N_13  and  C_14
REMARK    4  A    between atoms: C_19  and  C_20
REMARK    5  A    between atoms: C_20  and  C_22
REMARK                            x       y       z     vdW  Elec       q    Type
REMARK                         _______ _______ _______ _____ _____    ______ ____
ROOT
ATOM      1  C   UNL     1       1.828  12.505  19.054  0.00  0.00    +0.000 C 
ATOM      2  N   UNL     1       0.601  12.744  19.776  0.00  0.00    +0.000 N 
ATOM      3  N   UNL     1      -0.003  13.953  19.664  0.00  0.00    +0.000 NA
ATOM      4  C   UNL     1      -1.039  13.899  20.531  0.00  0.00    +0.000 A 
ATOM      5  C   UNL     1      -1.060  12.652  21.198  0.00  0.00    +0.000 A 
ATOM      6  C   UNL     1      -0.014  11.916  20.667  0.00  0.00    +0.000 A 
ATOM      7  C   UNL     1       0.295  10.557  21.084  0.00  0.00    +0.000 A 
ATOM      8  N   UNL     1       1.151   9.831  20.342  0.00  0.00    +0.000 NA
ATOM      9  C   UNL     1       1.328   8.559  20.735  0.00  0.00    +0.000 A 
ATOM     10  N   UNL     1       2.238   7.774  20.014  0.00  0.00    +0.000 N 
ATOM     11  N   UNL     1       0.711   8.010  21.802  0.00  0.00    +0.000 NA
ATOM     12  C   UNL     1      -0.122   8.781  22.520  0.00  0.00    +0.000 A 
ATOM     13  C   UNL     1      -0.379  10.086  22.204  0.00  0.00    +0.000 A 
ATOM     14  C   UNL     1      -1.234  10.994  23.054  0.00  0.00    +0.000 C 
ATOM     15  C   UNL     1      -1.961  12.097  22.248  0.00  0.00    +0.000 C 
ATOM     16  H   UNL     1       2.554   8.291  19.203  0.00  0.00    +0.000 HD
ENDROOT
BRANCH  10  17
ATOM     17  C   UNL     1       2.174   6.375  19.834  0.00  0.00    +0.000 A 
ATOM     18  C   UNL     1       1.301   5.620  20.651  0.00  0.00    +0.000 A 
ATOM     19  C   UNL     1       1.115   4.249  20.468  0.00  0.00    +0.000 A 
ATOM     20  C   UNL     1       1.791   3.595  19.448  0.00  0.00    +0.000 A 
ATOM     21  C   UNL     1       2.653   4.315  18.624  0.00  0.00    +0.000 A 
ATOM     22  C   UNL     1       2.863   5.700  18.805  0.00  0.00    +0.000 A 
BRANCH  22  23
ATOM     23  C   UNL     1       3.803   6.325  17.826  0.00  0.00    +0.000 C 
ATOM     24  O   UNL     1       3.561   7.472  17.445  0.00  0.00    +0.000 OA
BRANCH  23  25
ATOM     25  C   UNL     1       5.017   5.666  17.278  0.00  0.00    +0.000 A 
ATOM     26  C   UNL     1       5.003   5.307  15.921  0.00  0.00    +0.000 A 
ATOM     27  C   UNL     1       6.130   4.739  15.327  0.00  0.00    +0.000 A 
ATOM     28  C   UNL     1       7.276   4.518  16.086  0.00  0.00    +0.000 A 
ATOM     29  C   UNL     1       7.278   4.821  17.448  0.00  0.00    +0.000 A 
ATOM     30  C   UNL     1       6.142   5.368  18.050  0.00  0.00    +0.000 A 
ENDBRANCH  23  25
ENDBRANCH  22  23
ENDBRANCH  10  17
BRANCH   4  31
ATOM     31  C   UNL     1      -1.968  15.027  20.708  0.00  0.00    +0.000 C 
ATOM     32  N   UNL     1      -3.246  14.772  20.305  0.00  0.00    +0.000 N 
ATOM     33  O   UNL     1      -1.647  16.117  21.174  0.00  0.00    +0.000 OA
ATOM     34  H   UNL     1      -3.460  13.847  19.940  0.00  0.00    +0.000 HD
ATOM     35  H   UNL     1      -3.956  15.478  20.395  0.00  0.00    +0.000 HD
ENDBRANCH   4  31
TORSDOF 4
ENDMDL
MODEL 5
REMARK VINA RESULT:      -8.7      1.674      2.156
REMARK  Name = 
REMARK  5 active torsions:
REMARK  status: ('A' for Active; 'I' for Inactive)
REMARK    1  A    between atoms: C_1  and  N_2
REMARK    2  A    between atoms: C_4  and  C_5
REMARK    3  A    between atoms: N_13  and  C_14
REMARK    4  A    between atoms: C_19  and  C_20
REMARK    5  A    between atoms: C_20  and  C_22
REMARK                            x       y       z     vdW  Elec       q    Type
REMARK                         _______ _______ _______ _____ _____    ______ ____
ROOT
ATOM      1  C   UNL     1       2.324  11.436  18.067  0.00  0.00    +0.000 C 
ATOM      2  N   UNL     1       1.184  11.858  18.845  0.00  0.00    +0.000 N 
ATOM      3  N   UNL     1       0.637  13.076  18.603  0.00  0.00    +0.000 NA
ATOM      4  C   UNL     1      -0.316  13.218  19.552  0.00  0.00    +0.000 A 
ATOM      5  C   UNL     1      -0.341  12.085  20.398  0.00  0.00    +0.000 A 
ATOM      6  C   UNL     1       0.610  11.212  19.900  0.00  0.00    +0.000 A 
ATOM      7  C   UNL     1       0.884   9.911  20.490  0.00  0.00    +0.000 A 
ATOM      8  N   UNL     1       1.628   9.029  19.797  0.00  0.00    +0.000 NA
ATOM      9  C   UNL     1       1.772   7.819  20.361  0.00  0.00    +0.000 A 
ATOM     10  N   UNL     1       2.569   6.879  19.693  0.00  0.00    +0.000 N 
ATOM     11  N   UNL     1       1.228   7.473  21.546  0.00  0.00    +0.000 NA
ATOM     12  C   UNL     1       0.508   8.394  22.206  0.00  0.00    +0.000 A 
ATOM     13  C   UNL     1       0.292   9.653  21.720  0.00  0.00    +0.000 A 
ATOM     14  C   UNL     1      -0.431  10.730  22.492  0.00  0.00    +0.000 C 
ATOM     15  C   UNL     1      -1.169  11.750  21.592  0.00  0.00    +0.000 C 
ATOM     16  H   UNL     1       2.835   7.249  18.789  0.00  0.00    +0.000 HD
ENDROOT
BRANCH  10  17
ATOM     17  C   UNL     1       2.414   5.475  19.732  0.00  0.00    +0.000 A 
ATOM     18  C   UNL     1       1.151   4.936  20.069  0.00  0.00    +0.000 A 
ATOM     19  C   UNL     1       0.898   3.564  20.037  0.00  0.00    +0.000 A 
ATOM     20  C   UNL     1       1.905   2.690  19.651  0.00  0.00    +0.000 A 
ATOM     21  C   UNL     1       3.157   3.195  19.308  0.00  0.00    +0.000 A 
ATOM     22  C   UNL     1       3.433   4.579  19.349  0.00  0.00    +0.000 A 
BRANCH  22  23
ATOM     23  C   UNL     1       4.818   4.955  18.934  0.00  0.00    +0.000 C 
ATOM     24  O   UNL     1       5.560   5.453  19.783  0.00  0.00    +0.000 OA
BRANCH  23  25
ATOM     25  C   UNL     1       5.374   4.768  17.569  0.00  0.00    +0.000 A 
ATOM     26  C   UNL     1       6.770   4.700  17.440  0.00  0.00    +0.000 A 
ATOM     27  C   UNL     1       7.357   4.469  16.196  0.00  0.00    +0.000 A 
ATOM     28  C   UNL     1       6.552   4.311  15.070  0.00  0.00    +0.000 A 
ATOM     29  C   UNL     1       5.167   4.432  15.181  0.00  0.00    +0.000 A 
ATOM     30  C   UNL     1       4.579   4.689  16.423  0.00  0.00    +0.000 A 
ENDBRANCH  23  25
ENDBRANCH  22  23
ENDBRANCH  10  17
BRANCH   4  31
ATOM     31  C   UNL     1      -1.163  14.418  19.634  0.00  0.00    +0.000 C 
ATOM     32  N   UNL     1      -0.785  15.431  18.801  0.00  0.00    +0.000 N 
ATOM     33  O   UNL     1      -2.133  14.528  20.379  0.00  0.00    +0.000 OA
ATOM     34  H   UNL     1       0.016  15.282  18.194  0.00  0.00    +0.000 HD
ATOM     35  H   UNL     1      -1.309  16.290  18.777  0.00  0.00    +0.000 HD
ENDBRANCH   4  31
TORSDOF 4
ENDMDL
MODEL 6
REMARK VINA RESULT:      -8.6      1.247      1.302
REMARK  Name = 
REMARK  5 active torsions:
REMARK  status: ('A' for Active; 'I' for Inactive)
REMARK    1  A    between atoms: C_1  and  N_2
REMARK    2  A    between atoms: C_4  and  C_5
REMARK    3  A    between atoms: N_13  and  C_14
REMARK    4  A    between atoms: C_19  and  C_20
REMARK    5  A    between atoms: C_20  and  C_22
REMARK                            x       y       z     vdW  Elec       q    Type
REMARK                         _______ _______ _______ _____ _____    ______ ____
ROOT
ATOM      1  C   UNL     1       0.564  11.734  18.209  0.00  0.00    +0.000 C 
ATOM      2  N   UNL     1      -0.139  11.624  19.465  0.00  0.00    +0.000 N 
ATOM      3  N   UNL     1      -0.990  12.615  19.831  0.00  0.00    +0.000 NA
ATOM      4  C   UNL     1      -1.390  12.280  21.078  0.00  0.00    +0.000 A 
ATOM      5  C   UNL     1      -0.762  11.081  21.491  0.00  0.00    +0.000 A 
ATOM      6  C   UNL     1       0.010  10.664  20.421  0.00  0.00    +0.000 A 
ATOM      7  C   UNL     1       0.810   9.449  20.443  0.00  0.00    +0.000 A 
ATOM      8  N   UNL     1       1.316   8.987  19.285  0.00  0.00    +0.000 NA
ATOM      9  C   UNL     1       1.973   7.817  19.362  0.00  0.00    +0.000 A 
ATOM     10  N   UNL     1       2.549   7.314  18.188  0.00  0.00    +0.000 N 
ATOM     11  N   UNL     1       2.142   7.126  20.508  0.00  0.00    +0.000 NA
ATOM     12  C   UNL     1       1.632   7.638  21.640  0.00  0.00    +0.000 A 
ATOM     13  C   UNL     1       0.940   8.816  21.673  0.00  0.00    +0.000 A 
ATOM     14  C   UNL     1       0.445   9.455  22.948  0.00  0.00    +0.000 C 
ATOM     15  C   UNL     1      -0.835  10.304  22.762  0.00  0.00    +0.000 C 
ATOM     16  H   UNL     1       2.270   7.892  17.405  0.00  0.00    +0.000 HD
ENDROOT
BRANCH  10  17
ATOM     17  C   UNL     1       2.747   5.951  17.873  0.00  0.00    +0.000 A 
ATOM     18  C   UNL     1       1.735   5.020  18.203  0.00  0.00    +0.000 A 
ATOM     19  C   UNL     1       1.820   3.675  17.840  0.00  0.00    +0.000 A 
ATOM     20  C   UNL     1       2.918   3.226  17.121  0.00  0.00    +0.000 A 
ATOM     21  C   UNL     1       3.927   4.123  16.777  0.00  0.00    +0.000 A 
ATOM     22  C   UNL     1       3.863   5.484  17.150  0.00  0.00    +0.000 A 
BRANCH  22  23
ATOM     23  C   UNL     1       5.016   6.315  16.687  0.00  0.00    +0.000 C 
ATOM     24  O   UNL     1       4.946   6.826  15.567  0.00  0.00    +0.000 OA
BRANCH  23  25
ATOM     25  C   UNL     1       6.245   6.576  17.480  0.00  0.00    +0.000 A 
ATOM     26  C   UNL     1       6.924   7.782  17.246  0.00  0.00    +0.000 A 
ATOM     27  C   UNL     1       8.051   8.117  17.996  0.00  0.00    +0.000 A 
ATOM     28  C   UNL     1       8.513   7.246  18.979  0.00  0.00    +0.000 A 
ATOM     29  C   UNL     1       7.877   6.021  19.179  0.00  0.00    +0.000 A 
ATOM     30  C   UNL     1       6.762   5.672  18.412  0.00  0.00    +0.000 A 
ENDBRANCH  23  25
ENDBRANCH  22  23
ENDBRANCH  10  17
BRANCH   4  31
ATOM     31  C   UNL     1      -2.342  13.103  21.840  0.00  0.00    +0.000 C 
ATOM     32  N   UNL     1      -1.761  13.952  22.735  0.00  0.00    +0.000 N 
ATOM     33  O   UNL     1      -3.562  13.051  21.703  0.00  0.00    +0.000 OA
ATOM     34  H   UNL     1      -0.746  13.966  22.797  0.00  0.00    +0.000 HD
ATOM     35  H   UNL     1      -2.329  14.564  23.296  0.00  0.00    +0.000 HD
ENDBRANCH   4  31
TORSDOF 4
ENDMDL
MODEL 7
REMARK VINA RESULT:      -8.5      2.016      4.235
REMARK  Name = 
REMARK  5 active torsions:
REMARK  status: ('A' for Active; 'I' for Inactive)
REMARK    1  A    between atoms: C_1  and  N_2
REMARK    2  A    between atoms: C_4  and  C_5
REMARK    3  A    between atoms: N_13  and  C_14
REMARK    4  A    between atoms: C_19  and  C_20
REMARK    5  A    between atoms: C_20  and  C_22
REMARK                            x       y       z     vdW  Elec       q    Type
REMARK                         _______ _______ _______ _____ _____    ______ ____
ROOT
ATOM      1  C   UNL     1       1.103   8.818  22.841  0.00  0.00    +0.000 C 
ATOM      2  N   UNL     1       0.602   9.977  22.141  0.00  0.00    +0.000 N 
ATOM      3  N   UNL     1       0.044  10.987  22.855  0.00  0.00    +0.000 NA
ATOM      4  C   UNL     1      -0.420  11.849  21.923  0.00  0.00    +0.000 A 
ATOM      5  C   UNL     1      -0.164  11.355  20.623  0.00  0.00    +0.000 A 
ATOM      6  C   UNL     1       0.524  10.166  20.793  0.00  0.00    +0.000 A 
ATOM      7  C   UNL     1       0.986   9.348  19.682  0.00  0.00    +0.000 A 
ATOM      8  N   UNL     1       1.864   8.358  19.929  0.00  0.00    +0.000 NA
ATOM      9  C   UNL     1       2.313   7.696  18.850  0.00  0.00    +0.000 A 
ATOM     10  N   UNL     1       3.202   6.633  19.060  0.00  0.00    +0.000 N 
ATOM     11  N   UNL     1       1.930   7.972  17.586  0.00  0.00    +0.000 NA
ATOM     12  C   UNL     1       1.039   8.959  17.394  0.00  0.00    +0.000 A 
ATOM     13  C   UNL     1       0.523   9.700  18.421  0.00  0.00    +0.000 A 
ATOM     14  C   UNL     1      -0.549  10.745  18.234  0.00  0.00    +0.000 C 
ATOM     15  C   UNL     1      -0.485  11.893  19.270  0.00  0.00    +0.000 C 
ATOM     16  H   UNL     1       3.458   6.601  20.039  0.00  0.00    +0.000 HD
ENDROOT
BRANCH  10  17
ATOM     17  C   UNL     1       4.211   6.201  18.172  0.00  0.00    +0.000 A 
ATOM     18  C   UNL     1       4.726   7.115  17.225  0.00  0.00    +0.000 A 
ATOM     19  C   UNL     1       5.787   6.788  16.379  0.00  0.00    +0.000 A 
ATOM     20  C   UNL     1       6.374   5.534  16.469  0.00  0.00    +0.000 A 
ATOM     21  C   UNL     1       5.890   4.615  17.397  0.00  0.00    +0.000 A 
ATOM     22  C   UNL     1       4.808   4.925  18.250  0.00  0.00    +0.000 A 
BRANCH  22  23
ATOM     23  C   UNL     1       4.425   3.836  19.198  0.00  0.00    +0.000 C 
ATOM     24  O   UNL     1       5.326   3.272  19.823  0.00  0.00    +0.000 OA
BRANCH  23  25
ATOM     25  C   UNL     1       3.034   3.381  19.450  0.00  0.00    +0.000 A 
ATOM     26  C   UNL     1       2.607   3.308  20.786  0.00  0.00    +0.000 A 
ATOM     27  C   UNL     1       1.295   2.945  21.092  0.00  0.00    +0.000 A 
ATOM     28  C   UNL     1       0.403   2.645  20.066  0.00  0.00    +0.000 A 
ATOM     29  C   UNL     1       0.835   2.662  18.739  0.00  0.00    +0.000 A 
ATOM     30  C   UNL     1       2.156   3.002  18.433  0.00  0.00    +0.000 A 
ENDBRANCH  23  25
ENDBRANCH  22  23
ENDBRANCH  10  17
BRANCH   4  31
ATOM     31  C   UNL     1      -1.096  13.104  22.290  0.00  0.00    +0.000 C 
ATOM     32  N   UNL     1      -2.455  13.008  22.373  0.00  0.00    +0.000 N 
ATOM     33  O   UNL     1      -0.513  14.163  22.506  0.00  0.00    +0.000 OA
ATOM     34  H   UNL     1      -2.885  12.103  22.199  0.00  0.00    +0.000 HD
ATOM     35  H   UNL     1      -3.005  13.811  22.628  0.00  0.00    +0.000 HD
ENDBRANCH   4  31
TORSDOF 4
ENDMDL
MODEL 8
REMARK VINA RESULT:      -8.5      2.067      4.220
REMARK  Name = 
REMARK  5 active torsions:
REMARK  status: ('A' for Active; 'I' for Inactive)
REMARK    1  A    between atoms: C_1  and  N_2
REMARK    2  A    between atoms: C_4  and  C_5
REMARK    3  A    between atoms: N_13  and  C_14
REMARK    4  A    between atoms: C_19  and  C_20
REMARK    5  A    between atoms: C_20  and  C_22
REMARK                            x       y       z     vdW  Elec       q    Type
REMARK                         _______ _______ _______ _____ _____    ______ ____
ROOT
ATOM      1  C   UNL     1       1.085   8.868  22.838  0.00  0.00    +0.000 C 
ATOM      2  N   UNL     1       0.565  10.006  22.118  0.00  0.00    +0.000 N 
ATOM      3  N   UNL     1      -0.009  11.018  22.815  0.00  0.00    +0.000 NA
ATOM      4  C   UNL     1      -0.488  11.856  21.869  0.00  0.00    +0.000 A 
ATOM      5  C   UNL     1      -0.222  11.345  20.577  0.00  0.00    +0.000 A 
ATOM      6  C   UNL     1       0.486  10.171  20.768  0.00  0.00    +0.000 A 
ATOM      7  C   UNL     1       0.962   9.341  19.671  0.00  0.00    +0.000 A 
ATOM      8  N   UNL     1       1.856   8.371  19.935  0.00  0.00    +0.000 NA
ATOM      9  C   UNL     1       2.317   7.698  18.868  0.00  0.00    +0.000 A 
ATOM     10  N   UNL     1       3.223   6.653  19.097  0.00  0.00    +0.000 N 
ATOM     11  N   UNL     1       1.930   7.946  17.600  0.00  0.00    +0.000 NA
ATOM     12  C   UNL     1       1.023   8.915  17.390  0.00  0.00    +0.000 A 
ATOM     13  C   UNL     1       0.494   9.664  18.404  0.00  0.00    +0.000 A 
ATOM     14  C   UNL     1      -0.595  10.688  18.199  0.00  0.00    +0.000 C 
ATOM     15  C   UNL     1      -0.551  11.855  19.215  0.00  0.00    +0.000 C 
ATOM     16  H   UNL     1       3.479   6.643  20.076  0.00  0.00    +0.000 HD
ENDROOT
BRANCH  10  17
ATOM     17  C   UNL     1       4.240   6.223  18.216  0.00  0.00    +0.000 A 
ATOM     18  C   UNL     1       4.765   7.140  17.278  0.00  0.00    +0.000 A 
ATOM     19  C   UNL     1       5.833   6.814  16.441  0.00  0.00    +0.000 A 
ATOM     20  C   UNL     1       6.418   5.559  16.531  0.00  0.00    +0.000 A 
ATOM     21  C   UNL     1       5.924   4.637  17.452  0.00  0.00    +0.000 A 
ATOM     22  C   UNL     1       4.834   4.946  18.295  0.00  0.00    +0.000 A 
BRANCH  22  23
ATOM     23  C   UNL     1       4.441   3.854  19.236  0.00  0.00    +0.000 C 
ATOM     24  O   UNL     1       5.340   3.232  19.806  0.00  0.00    +0.000 OA
BRANCH  23  25
ATOM     25  C   UNL     1       3.041   3.461  19.542  0.00  0.00    +0.000 A 
ATOM     26  C   UNL     1       2.226   3.075  18.466  0.00  0.00    +0.000 A 
ATOM     27  C   UNL     1       0.920   2.638  18.688  0.00  0.00    +0.000 A 
ATOM     28  C   UNL     1       0.417   2.592  19.985  0.00  0.00    +0.000 A 
ATOM     29  C   UNL     1       1.202   3.026  21.053  0.00  0.00    +0.000 A 
ATOM     30  C   UNL     1       2.502   3.488  20.830  0.00  0.00    +0.000 A 
ENDBRANCH  23  25
ENDBRANCH  22  23
ENDBRANCH  10  17
BRANCH   4  31
ATOM     31  C   UNL     1      -1.184  13.106  22.213  0.00  0.00    +0.000 C 
ATOM     32  N   UNL     1      -0.363  14.110  22.636  0.00  0.00    +0.000 N 
ATOM     33  O   UNL     1      -2.401  13.260  22.138  0.00  0.00    +0.000 OA
ATOM     34  H   UNL     1       0.637  13.934  22.665  0.00  0.00    +0.000 HD
ATOM     35  H   UNL     1      -0.746  15.007  22.884  0.00  0.00    +0.000 HD
ENDBRANCH   4  31
TORSDOF 4
ENDMDL
MODEL 9
REMARK VINA RESULT:      -8.4      1.855      2.611
REMARK  Name = 
REMARK  5 active torsions:
REMARK  status: ('A' for Active; 'I' for Inactive)
REMARK    1  A    between atoms: C_1  and  N_2
REMARK    2  A    between atoms: C_4  and  C_5
REMARK    3  A    between atoms: N_13  and  C_14
REMARK    4  A    between atoms: C_19  and  C_20
REMARK    5  A    between atoms: C_20  and  C_22
REMARK                            x       y       z     vdW  Elec       q    Type
REMARK                         _______ _______ _______ _____ _____    ______ ____
ROOT
ATOM      1  C   UNL     1      -0.566  11.845  18.044  0.00  0.00    +0.000 C 
ATOM      2  N   UNL     1      -1.364  12.068  19.226  0.00  0.00    +0.000 N 
ATOM      3  N   UNL     1      -2.340  13.010  19.193  0.00  0.00    +0.000 NA
ATOM      4  C   UNL     1      -2.813  13.057  20.458  0.00  0.00    +0.000 A 
ATOM      5  C   UNL     1      -2.108  12.149  21.283  0.00  0.00    +0.000 A 
ATOM      6  C   UNL     1      -1.205  11.503  20.457  0.00  0.00    +0.000 A 
ATOM      7  C   UNL     1      -0.291  10.473  20.927  0.00  0.00    +0.000 A 
ATOM      8  N   UNL     1       0.360   9.722  20.021  0.00  0.00    +0.000 NA
ATOM      9  C   UNL     1       1.122   8.736  20.521  0.00  0.00    +0.000 A 
ATOM     10  N   UNL     1       1.848   7.949  19.616  0.00  0.00    +0.000 N 
ATOM     11  N   UNL     1       1.257   8.486  21.840  0.00  0.00    +0.000 NA
ATOM     12  C   UNL     1       0.598   9.275  22.706  0.00  0.00    +0.000 A 
ATOM     13  C   UNL     1      -0.209  10.302  22.304  0.00  0.00    +0.000 A 
ATOM     14  C   UNL     1      -0.878  11.258  23.262  0.00  0.00    +0.000 C 
ATOM     15  C   UNL     1      -2.215  11.832  22.735  0.00  0.00    +0.000 C 
ATOM     16  H   UNL     1       1.583   8.198  18.671  0.00  0.00    +0.000 HD
ENDROOT
BRANCH  10  17
ATOM     17  C   UNL     1       2.209   6.595  19.791  0.00  0.00    +0.000 A 
ATOM     18  C   UNL     1       1.531   5.826  20.764  0.00  0.00    +0.000 A 
ATOM     19  C   UNL     1       1.769   4.461  20.928  0.00  0.00    +0.000 A 
ATOM     20  C   UNL     1       2.687   3.821  20.108  0.00  0.00    +0.000 A 
ATOM     21  C   UNL     1       3.366   4.553  19.136  0.00  0.00    +0.000 A 
ATOM     22  C   UNL     1       3.147   5.939  18.967  0.00  0.00    +0.000 A 
BRANCH  22  23
ATOM     23  C   UNL     1       3.941   6.569  17.870  0.00  0.00    +0.000 C 
ATOM     24  O   UNL     1       3.619   7.701  17.501  0.00  0.00    +0.000 OA
BRANCH  23  25
ATOM     25  C   UNL     1       5.099   5.934  17.188  0.00  0.00    +0.000 A 
ATOM     26  C   UNL     1       6.267   5.739  17.941  0.00  0.00    +0.000 A 
ATOM     27  C   UNL     1       7.372   5.096  17.380  0.00  0.00    +0.000 A 
ATOM     28  C   UNL     1       7.318   4.650  16.062  0.00  0.00    +0.000 A 
ATOM     29  C   UNL     1       6.180   4.890  15.291  0.00  0.00    +0.000 A 
ATOM     30  C   UNL     1       5.082   5.556  15.844  0.00  0.00    +0.000 A 
ENDBRANCH  23  25
ENDBRANCH  22  23
ENDBRANCH  10  17
BRANCH   4  31
ATOM     31  C   UNL     1      -3.908  13.959  20.848  0.00  0.00    +0.000 C 
ATOM     32  N   UNL     1      -4.968  13.964  19.989  0.00  0.00    +0.000 N 
ATOM     33  O   UNL     1      -3.896  14.662  21.856  0.00  0.00    +0.000 OA
ATOM     34  H   UNL     1      -4.932  13.352  19.178  0.00  0.00    +0.000 HD
ATOM     35  H   UNL     1      -5.770  14.542  20.176  0.00  0.00    +0.000 HD
ENDBRANCH   4  31
TORSDOF 4
ENDMDL
