MODEL 1
REMARK VINA RESULT:      -7.6      0.000      0.000
REMARK  Name = 
REMARK  10 active torsions:
REMARK  status: ('A' for Active; 'I' for Inactive)
REMARK    1  A    between atoms: C_1  and  C_2
REMARK    2  A    between atoms: C_2  and  C_3
REMARK    3  A    between atoms: C_2  and  O_21
REMARK    4  A    between atoms: C_3  and  N_4
REMARK    5  A    between atoms: C_7  and  C_8
REMARK    6  A    between atoms: C_13  and  O_14
REMARK    7  A    between atoms: C_18  and  C_19
REMARK    8  A    between atoms: C_18  and  C_20
REMARK    9  A    between atoms: O_21  and  C_22
REMARK   10  A    between atoms: C_22  and  C_23
REMARK                            x       y       z     vdW  Elec       q    Type
REMARK                         _______ _______ _______ _____ _____    ______ ____
ROOT
ATOM      1  N   UNL     1       1.885   6.125  19.278  0.00  0.00    +0.000 NA
ATOM      2  C   UNL     1       1.253   4.942  19.891  0.00  0.00    +0.000 C 
ATOM      3  C   UNL     1       2.390   3.842  20.309  0.00  0.00    +0.000 C 
ATOM      4  C   UNL     1       3.780   3.533  19.208  0.00  0.00    +0.000 C 
ATOM      5  C   UNL     1       4.742   2.757  20.107  0.00  0.00    +0.000 C 
ATOM      6  C   UNL     1       4.876   4.067  17.786  0.00  0.00    +0.000 A 
ATOM      7  C   UNL     1       5.037   3.380  16.520  0.00  0.00    +0.000 A 
ATOM      8  C   UNL     1       5.383   4.029  15.309  0.00  0.00    +0.000 A 
ATOM      9  C   UNL     1       5.759   5.354  15.288  0.00  0.00    +0.000 A 
ATOM     10  C   UNL     1       5.684   6.044  16.478  0.00  0.00    +0.000 A 
ATOM     11  C   UNL     1       5.145   5.435  17.617  0.00  0.00    +0.000 A 
ATOM     12  C   UNL     1       4.412   6.242  18.564  0.00  0.00    +0.000 C 
ATOM     13  C   UNL     1       3.075   5.431  18.724  0.00  0.00    +0.000 C 
ATOM     14  C   UNL     1       2.822   3.594  18.066  0.00  0.00    +0.000 C 
ATOM     15  C   UNL     1       3.301   1.906  18.035  0.00  0.00    +0.000 C 
ATOM     16  C   UNL     1       1.359   3.069  17.843  0.00  0.00    +0.000 C 
ENDROOT
BRANCH  10  17
ATOM     17  O   UNL     1       5.943   7.391  16.528  0.00  0.00    +0.000 OA
ATOM     18  H   UNL     1       6.481   7.572  17.306  0.00  0.00    +0.000 HD
ENDBRANCH  10  17
BRANCH   1  19
ATOM     19  C   UNL     1       2.033   7.064  20.457  0.00  0.00    +0.000 C 
BRANCH  19  21
ATOM     20  C   UNL     1       0.338   8.512  21.792  0.00  0.00    +0.000 C 
ATOM     21  C   UNL     1       1.479   8.483  20.788  0.00  0.00    +0.000 C 
BRANCH  21  22
ATOM     22  O   UNL     1       1.205   9.224  19.605  0.00  0.00    +0.000 OA
BRANCH  22  23
ATOM     23  C   UNL     1       0.645  10.517  19.828  0.00  0.00    +0.000 C 
BRANCH  23  24
ATOM     24  C   UNL     1      -0.605  10.652  19.003  0.00  0.00    +0.000 A 
ATOM     25  C   UNL     1      -0.759   9.883  17.844  0.00  0.00    +0.000 A 
ATOM     26  C   UNL     1      -1.905  10.005  17.066  0.00  0.00    +0.000 A 
ATOM     27  C   UNL     1      -2.925  10.874  17.448  0.00  0.00    +0.000 A 
ATOM     28  C   UNL     1      -2.790  11.636  18.608  0.00  0.00    +0.000 A 
ATOM     29  C   UNL     1      -1.635  11.530  19.381  0.00  0.00    +0.000 A 
ENDBRANCH  23  24
ENDBRANCH  22  23
ENDBRANCH  21  22
ENDBRANCH  19  21
ENDBRANCH   1  19
TORSDOF 6
ENDMDL
MODEL 2
REMARK VINA RESULT:      -7.6      2.123      8.500
REMARK  Name = 
REMARK  10 active torsions:
REMARK  status: ('A' for Active; 'I' for Inactive)
REMARK    1  A    between atoms: C_1  and  C_2
REMARK    2  A    between atoms: C_2  and  C_3
REMARK    3  A    between atoms: C_2  and  O_21
REMARK    4  A    between atoms: C_3  and  N_4
REMARK    5  A    between atoms: C_7  and  C_8
REMARK    6  A    between atoms: C_13  and  O_14
REMARK    7  A    between atoms: C_18  and  C_19
REMARK    8  A    between atoms: C_18  and  C_20
REMARK    9  A    between atoms: O_21  and  C_22
REMARK   10  A    between atoms: C_22  and  C_23
REMARK                            x       y       z     vdW  Elec       q    Type
REMARK                         _______ _______ _______ _____ _____    ______ ____
ROOT
ATOM      1  N   UNL     1       1.013   8.445  19.072  0.00  0.00    +0.000 NA
ATOM      2  C   UNL     1       1.204   9.147  17.789  0.00  0.00    +0.000 C 
ATOM      3  C   UNL     1       1.754  10.666  18.048  0.00  0.00    +0.000 C 
ATOM      4  C   UNL     1       1.082  11.638  19.405  0.00  0.00    +0.000 C 
ATOM      5  C   UNL     1       2.085  12.786  19.512  0.00  0.00    +0.000 C 
ATOM      6  C   UNL     1       0.161  11.736  21.034  0.00  0.00    +0.000 A 
ATOM      7  C   UNL     1      -1.094  12.420  21.271  0.00  0.00    +0.000 A 
ATOM      8  C   UNL     1      -2.022  12.041  22.272  0.00  0.00    +0.000 A 
ATOM      9  C   UNL     1      -1.710  11.083  23.213  0.00  0.00    +0.000 A 
ATOM     10  C   UNL     1      -0.500  10.442  23.073  0.00  0.00    +0.000 A 
ATOM     11  C   UNL     1       0.310  10.690  21.958  0.00  0.00    +0.000 A 
ATOM     12  C   UNL     1       1.115   9.617  21.422  0.00  0.00    +0.000 C 
ATOM     13  C   UNL     1       0.732   9.646  19.898  0.00  0.00    +0.000 C 
ATOM     14  C   UNL     1      -0.267  11.113  19.047  0.00  0.00    +0.000 C 
ATOM     15  C   UNL     1      -0.433  12.813  18.645  0.00  0.00    +0.000 C 
ATOM     16  C   UNL     1      -1.000  10.833  17.686  0.00  0.00    +0.000 C 
ENDROOT
BRANCH  10  17
ATOM     17  O   UNL     1      -0.152   9.406  23.904  0.00  0.00    +0.000 OA
ATOM     18  H   UNL     1      -0.160   8.588  23.396  0.00  0.00    +0.000 HD
ENDBRANCH  10  17
BRANCH   1  19
ATOM     19  C   UNL     1       2.320   7.699  19.235  0.00  0.00    +0.000 C 
BRANCH  19  21
ATOM     20  C   UNL     1       4.139   6.994  17.518  0.00  0.00    +0.000 C 
ATOM     21  C   UNL     1       3.019   6.551  18.444  0.00  0.00    +0.000 C 
BRANCH  21  22
ATOM     22  O   UNL     1       2.068   5.702  17.811  0.00  0.00    +0.000 OA
BRANCH  22  23
ATOM     23  C   UNL     1       2.459   4.333  17.720  0.00  0.00    +0.000 C 
BRANCH  23  24
ATOM     24  C   UNL     1       2.379   3.716  19.089  0.00  0.00    +0.000 A 
ATOM     25  C   UNL     1       1.161   3.708  19.777  0.00  0.00    +0.000 A 
ATOM     26  C   UNL     1       1.074   3.149  21.047  0.00  0.00    +0.000 A 
ATOM     27  C   UNL     1       2.195   2.568  21.638  0.00  0.00    +0.000 A 
ATOM     28  C   UNL     1       3.411   2.558  20.958  0.00  0.00    +0.000 A 
ATOM     29  C   UNL     1       3.507   3.132  19.690  0.00  0.00    +0.000 A 
ENDBRANCH  23  24
ENDBRANCH  22  23
ENDBRANCH  21  22
ENDBRANCH  19  21
ENDBRANCH   1  19
TORSDOF 6
ENDMDL
MODEL 3
REMARK VINA RESULT:      -7.4      2.138      8.770
REMARK  Name = 
REMARK  10 active torsions:
REMARK  status: ('A' for Active; 'I' for Inactive)
REMARK    1  A    between atoms: C_1  and  C_2
REMARK    2  A    between atoms: C_2  and  C_3
REMARK    3  A    between atoms: C_2  and  O_21
REMARK    4  A    between atoms: C_3  and  N_4
REMARK    5  A    between atoms: C_7  and  C_8
REMARK    6  A    between atoms: C_13  and  O_14
REMARK    7  A    between atoms: C_18  and  C_19
REMARK    8  A    between atoms: C_18  and  C_20
REMARK    9  A    between atoms: O_21  and  C_22
REMARK   10  A    between atoms: C_22  and  C_23
REMARK                            x       y       z     vdW  Elec       q    Type
REMARK                         _______ _______ _______ _____ _____    ______ ____
ROOT
ATOM      1  N   UNL     1       0.888   8.458  19.217  0.00  0.00    +0.000 NA
ATOM      2  C   UNL     1       1.128   9.099  17.911  0.00  0.00    +0.000 C 
ATOM      3  C   UNL     1       1.706  10.616  18.120  0.00  0.00    +0.000 C 
ATOM      4  C   UNL     1       1.024  11.660  19.417  0.00  0.00    +0.000 C 
ATOM      5  C   UNL     1       2.051  12.789  19.501  0.00  0.00    +0.000 C 
ATOM      6  C   UNL     1       0.065  11.848  21.016  0.00  0.00    +0.000 A 
ATOM      7  C   UNL     1      -1.179  12.570  21.191  0.00  0.00    +0.000 A 
ATOM      8  C   UNL     1      -2.141  12.254  22.184  0.00  0.00    +0.000 A 
ATOM      9  C   UNL     1      -1.874  11.331  23.172  0.00  0.00    +0.000 A 
ATOM     10  C   UNL     1      -0.676  10.657  23.090  0.00  0.00    +0.000 A 
ATOM     11  C   UNL     1       0.166  10.839  21.987  0.00  0.00    +0.000 A 
ATOM     12  C   UNL     1       0.959   9.726  21.518  0.00  0.00    +0.000 C 
ATOM     13  C   UNL     1       0.615   9.699  19.984  0.00  0.00    +0.000 C 
ATOM     14  C   UNL     1      -0.328  11.150  19.047  0.00  0.00    +0.000 C 
ATOM     15  C   UNL     1      -0.444  12.835  18.570  0.00  0.00    +0.000 C 
ATOM     16  C   UNL     1      -1.033  10.829  17.680  0.00  0.00    +0.000 C 
ENDROOT
BRANCH  10  17
ATOM     17  O   UNL     1      -0.373   9.650  23.973  0.00  0.00    +0.000 OA
ATOM     18  H   UNL     1      -1.123   9.048  24.021  0.00  0.00    +0.000 HD
ENDBRANCH  10  17
BRANCH   1  19
ATOM     19  C   UNL     1       2.173   7.690  19.445  0.00  0.00    +0.000 C 
BRANCH  19  21
ATOM     20  C   UNL     1       1.873   5.375  20.584  0.00  0.00    +0.000 C 
ATOM     21  C   UNL     1       2.540   6.175  19.478  0.00  0.00    +0.000 C 
BRANCH  21  22
ATOM     22  O   UNL     1       3.948   5.979  19.413  0.00  0.00    +0.000 OA
BRANCH  22  23
ATOM     23  C   UNL     1       4.352   4.626  19.207  0.00  0.00    +0.000 C 
BRANCH  23  24
ATOM     24  C   UNL     1       5.204   4.559  17.970  0.00  0.00    +0.000 A 
ATOM     25  C   UNL     1       4.600   4.397  16.719  0.00  0.00    +0.000 A 
ATOM     26  C   UNL     1       5.376   4.324  15.567  0.00  0.00    +0.000 A 
ATOM     27  C   UNL     1       6.763   4.437  15.646  0.00  0.00    +0.000 A 
ATOM     28  C   UNL     1       7.377   4.611  16.886  0.00  0.00    +0.000 A 
ATOM     29  C   UNL     1       6.603   4.668  18.044  0.00  0.00    +0.000 A 
ENDBRANCH  23  24
ENDBRANCH  22  23
ENDBRANCH  21  22
ENDBRANCH  19  21
ENDBRANCH   1  19
TORSDOF 6
ENDMDL
MODEL 4
REMARK VINA RESULT:      -7.3      1.865      3.730
REMARK  Name = 
REMARK  10 active torsions:
REMARK  status: ('A' for Active; 'I' for Inactive)
REMARK    1  A    between atoms: C_1  and  C_2
REMARK    2  A    between atoms: C_2  and  C_3
REMARK    3  A    between atoms: C_2  and  O_21
REMARK    4  A    between atoms: C_3  and  N_4
REMARK    5  A    between atoms: C_7  and  C_8
REMARK    6  A    between atoms: C_13  and  O_14
REMARK    7  A    between atoms: C_18  and  C_19
REMARK    8  A    between atoms: C_18  and  C_20
REMARK    9  A    between atoms: O_21  and  C_22
REMARK   10  A    between atoms: C_22  and  C_23
REMARK                            x       y       z     vdW  Elec       q    Type
REMARK                         _______ _______ _______ _____ _____    ______ ____
ROOT
ATOM      1  N   UNL     1       3.170   7.098  18.558  0.00  0.00    +0.000 NA
ATOM      2  C   UNL     1       4.464   7.572  18.035  0.00  0.00    +0.000 C 
ATOM      3  C   UNL     1       4.860   6.757  16.672  0.00  0.00    +0.000 C 
ATOM      4  C   UNL     1       4.549   4.987  16.570  0.00  0.00    +0.000 C 
ATOM      5  C   UNL     1       4.709   4.714  15.075  0.00  0.00    +0.000 C 
ATOM      6  C   UNL     1       3.659   3.456  17.181  0.00  0.00    +0.000 A 
ATOM      7  C   UNL     1       4.275   2.279  17.762  0.00  0.00    +0.000 A 
ATOM      8  C   UNL     1       3.627   1.428  18.691  0.00  0.00    +0.000 A 
ATOM      9  C   UNL     1       2.286   1.570  18.979  0.00  0.00    +0.000 A 
ATOM     10  C   UNL     1       1.634   2.638  18.405  0.00  0.00    +0.000 A 
ATOM     11  C   UNL     1       2.344   3.583  17.655  0.00  0.00    +0.000 A 
ATOM     12  C   UNL     1       1.917   4.962  17.679  0.00  0.00    +0.000 C 
ATOM     13  C   UNL     1       3.252   5.715  18.028  0.00  0.00    +0.000 C 
ATOM     14  C   UNL     1       5.030   4.872  17.977  0.00  0.00    +0.000 C 
ATOM     15  C   UNL     1       6.286   4.013  17.104  0.00  0.00    +0.000 C 
ATOM     16  C   UNL     1       6.201   5.539  18.785  0.00  0.00    +0.000 C 
ENDROOT
BRANCH  10  17
ATOM     17  O   UNL     1       0.325   2.913  18.717  0.00  0.00    +0.000 OA
ATOM     18  H   UNL     1       0.243   2.973  19.674  0.00  0.00    +0.000 HD
ENDBRANCH  10  17
BRANCH   1  19
ATOM     19  C   UNL     1       2.193   8.087  17.956  0.00  0.00    +0.000 C 
BRANCH  19  21
ATOM     20  C   UNL     1       1.220   9.333  20.018  0.00  0.00    +0.000 C 
ATOM     21  C   UNL     1       1.419   9.321  18.512  0.00  0.00    +0.000 C 
BRANCH  21  22
ATOM     22  O   UNL     1       0.218   9.554  17.784  0.00  0.00    +0.000 OA
BRANCH  22  23
ATOM     23  C   UNL     1      -0.819  10.186  18.533  0.00  0.00    +0.000 C 
BRANCH  23  24
ATOM     24  C   UNL     1      -1.987  10.440  17.622  0.00  0.00    +0.000 A 
ATOM     25  C   UNL     1      -2.989  11.336  18.009  0.00  0.00    +0.000 A 
ATOM     26  C   UNL     1      -4.080  11.574  17.181  0.00  0.00    +0.000 A 
ATOM     27  C   UNL     1      -4.174  10.940  15.943  0.00  0.00    +0.000 A 
ATOM     28  C   UNL     1      -3.177  10.053  15.540  0.00  0.00    +0.000 A 
ATOM     29  C   UNL     1      -2.089   9.800  16.375  0.00  0.00    +0.000 A 
ENDBRANCH  23  24
ENDBRANCH  22  23
ENDBRANCH  21  22
ENDBRANCH  19  21
ENDBRANCH   1  19
TORSDOF 6
ENDMDL
MODEL 5
REMARK VINA RESULT:      -7.2      2.116      8.754
REMARK  Name = 
REMARK  10 active torsions:
REMARK  status: ('A' for Active; 'I' for Inactive)
REMARK    1  A    between atoms: C_1  and  C_2
REMARK    2  A    between atoms: C_2  and  C_3
REMARK    3  A    between atoms: C_2  and  O_21
REMARK    4  A    between atoms: C_3  and  N_4
REMARK    5  A    between atoms: C_7  and  C_8
REMARK    6  A    between atoms: C_13  and  O_14
REMARK    7  A    between atoms: C_18  and  C_19
REMARK    8  A    between atoms: C_18  and  C_20
REMARK    9  A    between atoms: O_21  and  C_22
REMARK   10  A    between atoms: C_22  and  C_23
REMARK                            x       y       z     vdW  Elec       q    Type
REMARK                         _______ _______ _______ _____ _____    ______ ____
ROOT
ATOM      1  N   UNL     1       0.890   8.718  19.050  0.00  0.00    +0.000 NA
ATOM      2  C   UNL     1       1.101   9.452  17.788  0.00  0.00    +0.000 C 
ATOM      3  C   UNL     1       1.659  10.960  18.093  0.00  0.00    +0.000 C 
ATOM      4  C   UNL     1       0.979  11.901  19.468  0.00  0.00    +0.000 C 
ATOM      5  C   UNL     1       1.990  13.038  19.616  0.00  0.00    +0.000 C 
ATOM      6  C   UNL     1       0.041  11.963  21.089  0.00  0.00    +0.000 A 
ATOM      7  C   UNL     1      -1.212  12.650  21.330  0.00  0.00    +0.000 A 
ATOM      8  C   UNL     1      -2.154  12.252  22.310  0.00  0.00    +0.000 A 
ATOM      9  C   UNL     1      -1.859  11.268  23.229  0.00  0.00    +0.000 A 
ATOM     10  C   UNL     1      -0.652  10.620  23.085  0.00  0.00    +0.000 A 
ATOM     11  C   UNL     1       0.171  10.891  21.986  0.00  0.00    +0.000 A 
ATOM     12  C   UNL     1       0.974   9.827  21.431  0.00  0.00    +0.000 C 
ATOM     13  C   UNL     1       0.609   9.899  19.904  0.00  0.00    +0.000 C 
ATOM     14  C   UNL     1      -0.369  11.395  19.081  0.00  0.00    +0.000 C 
ATOM     15  C   UNL     1      -0.519  13.107  18.723  0.00  0.00    +0.000 C 
ATOM     16  C   UNL     1      -1.089  11.158  17.705  0.00  0.00    +0.000 C 
ENDROOT
BRANCH  10  17
ATOM     17  O   UNL     1      -0.321   9.560  23.893  0.00  0.00    +0.000 OA
ATOM     18  H   UNL     1       0.637   9.531  23.984  0.00  0.00    +0.000 HD
ENDBRANCH  10  17
BRANCH   1  19
ATOM     19  C   UNL     1       2.190   7.958  19.207  0.00  0.00    +0.000 C 
BRANCH  19  21
ATOM     20  C   UNL     1       1.864   5.767  20.565  0.00  0.00    +0.000 C 
ATOM     21  C   UNL     1       2.550   6.453  19.395  0.00  0.00    +0.000 C 
BRANCH  21  22
ATOM     22  O   UNL     1       3.958   6.247  19.371  0.00  0.00    +0.000 OA
BRANCH  22  23
ATOM     23  C   UNL     1       4.439   5.553  18.221  0.00  0.00    +0.000 C 
BRANCH  23  24
ATOM     24  C   UNL     1       4.059   4.103  18.338  0.00  0.00    +0.000 A 
ATOM     25  C   UNL     1       4.584   3.329  19.378  0.00  0.00    +0.000 A 
ATOM     26  C   UNL     1       4.250   1.984  19.493  0.00  0.00    +0.000 A 
ATOM     27  C   UNL     1       3.367   1.400  18.587  0.00  0.00    +0.000 A 
ATOM     28  C   UNL     1       2.826   2.163  17.553  0.00  0.00    +0.000 A 
ATOM     29  C   UNL     1       3.172   3.507  17.425  0.00  0.00    +0.000 A 
ENDBRANCH  23  24
ENDBRANCH  22  23
ENDBRANCH  21  22
ENDBRANCH  19  21
ENDBRANCH   1  19
TORSDOF 6
ENDMDL
MODEL 6
REMARK VINA RESULT:      -7.2      2.256      8.685
REMARK  Name = 
REMARK  10 active torsions:
REMARK  status: ('A' for Active; 'I' for Inactive)
REMARK    1  A    between atoms: C_1  and  C_2
REMARK    2  A    between atoms: C_2  and  C_3
REMARK    3  A    between atoms: C_2  and  O_21
REMARK    4  A    between atoms: C_3  and  N_4
REMARK    5  A    between atoms: C_7  and  C_8
REMARK    6  A    between atoms: C_13  and  O_14
REMARK    7  A    between atoms: C_18  and  C_19
REMARK    8  A    between atoms: C_18  and  C_20
REMARK    9  A    between atoms: O_21  and  C_22
REMARK   10  A    between atoms: C_22  and  C_23
REMARK                            x       y       z     vdW  Elec       q    Type
REMARK                         _______ _______ _______ _____ _____    ______ ____
ROOT
ATOM      1  N   UNL     1       0.910   8.399  19.096  0.00  0.00    +0.000 NA
ATOM      2  C   UNL     1       1.113   9.084  17.806  0.00  0.00    +0.000 C 
ATOM      3  C   UNL     1       1.712  10.587  18.048  0.00  0.00    +0.000 C 
ATOM      4  C   UNL     1       1.082  11.591  19.402  0.00  0.00    +0.000 C 
ATOM      5  C   UNL     1       2.121  12.708  19.490  0.00  0.00    +0.000 C 
ATOM      6  C   UNL     1       0.177  11.732  21.037  0.00  0.00    +0.000 A 
ATOM      7  C   UNL     1      -1.054  12.457  21.277  0.00  0.00    +0.000 A 
ATOM      8  C   UNL     1      -1.985  12.115  22.289  0.00  0.00    +0.000 A 
ATOM      9  C   UNL     1      -1.695  11.156  23.236  0.00  0.00    +0.000 A 
ATOM     10  C   UNL     1      -0.507  10.476  23.092  0.00  0.00    +0.000 A 
ATOM     11  C   UNL     1       0.301  10.689  21.968  0.00  0.00    +0.000 A 
ATOM     12  C   UNL     1       1.067   9.586  21.436  0.00  0.00    +0.000 C 
ATOM     13  C   UNL     1       0.673   9.615  19.914  0.00  0.00    +0.000 C 
ATOM     14  C   UNL     1      -0.286  11.105  19.058  0.00  0.00    +0.000 C 
ATOM     15  C   UNL     1      -0.402  12.806  18.644  0.00  0.00    +0.000 C 
ATOM     16  C   UNL     1      -1.039  10.838  17.705  0.00  0.00    +0.000 C 
ENDROOT
BRANCH  10  17
ATOM     17  O   UNL     1      -0.185   9.436  23.929  0.00  0.00    +0.000 OA
ATOM     18  H   UNL     1       0.098   8.687  23.394  0.00  0.00    +0.000 HD
ENDBRANCH  10  17
BRANCH   1  19
ATOM     19  C   UNL     1       2.195   7.614  19.255  0.00  0.00    +0.000 C 
BRANCH  19  21
ATOM     20  C   UNL     1       3.221   5.311  19.881  0.00  0.00    +0.000 C 
ATOM     21  C   UNL     1       2.670   6.206  18.784  0.00  0.00    +0.000 C 
BRANCH  21  22
ATOM     22  O   UNL     1       3.526   6.298  17.651  0.00  0.00    +0.000 OA
BRANCH  22  23
ATOM     23  C   UNL     1       4.553   5.308  17.598  0.00  0.00    +0.000 C 
BRANCH  23  24
ATOM     24  C   UNL     1       5.869   5.959  17.919  0.00  0.00    +0.000 A 
ATOM     25  C   UNL     1       6.229   7.152  17.281  0.00  0.00    +0.000 A 
ATOM     26  C   UNL     1       7.447   7.759  17.561  0.00  0.00    +0.000 A 
ATOM     27  C   UNL     1       8.313   7.200  18.499  0.00  0.00    +0.000 A 
ATOM     28  C   UNL     1       7.962   6.018  19.150  0.00  0.00    +0.000 A 
ATOM     29  C   UNL     1       6.748   5.397  18.860  0.00  0.00    +0.000 A 
ENDBRANCH  23  24
ENDBRANCH  22  23
ENDBRANCH  21  22
ENDBRANCH  19  21
ENDBRANCH   1  19
TORSDOF 6
ENDMDL
MODEL 7
REMARK VINA RESULT:      -7.2      1.825      3.623
REMARK  Name = 
REMARK  10 active torsions:
REMARK  status: ('A' for Active; 'I' for Inactive)
REMARK    1  A    between atoms: C_1  and  C_2
REMARK    2  A    between atoms: C_2  and  C_3
REMARK    3  A    between atoms: C_2  and  O_21
REMARK    4  A    between atoms: C_3  and  N_4
REMARK    5  A    between atoms: C_7  and  C_8
REMARK    6  A    between atoms: C_13  and  O_14
REMARK    7  A    between atoms: C_18  and  C_19
REMARK    8  A    between atoms: C_18  and  C_20
REMARK    9  A    between atoms: O_21  and  C_22
REMARK   10  A    between atoms: C_22  and  C_23
REMARK                            x       y       z     vdW  Elec       q    Type
REMARK                         _______ _______ _______ _____ _____    ______ ____
ROOT
ATOM      1  N   UNL     1       2.430   7.315  20.155  0.00  0.00    +0.000 NA
ATOM      2  C   UNL     1       2.573   7.846  18.787  0.00  0.00    +0.000 C 
ATOM      3  C   UNL     1       1.938   6.799  17.701  0.00  0.00    +0.000 C 
ATOM      4  C   UNL     1       2.198   5.031  17.910  0.00  0.00    +0.000 C 
ATOM      5  C   UNL     1       1.176   4.435  16.943  0.00  0.00    +0.000 C 
ATOM      6  C   UNL     1       2.645   3.571  18.996  0.00  0.00    +0.000 A 
ATOM      7  C   UNL     1       3.773   2.680  18.816  0.00  0.00    +0.000 A 
ATOM      8  C   UNL     1       4.407   1.986  19.877  0.00  0.00    +0.000 A 
ATOM      9  C   UNL     1       3.876   1.982  21.149  0.00  0.00    +0.000 A 
ATOM     10  C   UNL     1       2.764   2.764  21.364  0.00  0.00    +0.000 A 
ATOM     11  C   UNL     1       2.278   3.600  20.351  0.00  0.00    +0.000 A 
ATOM     12  C   UNL     1       1.673   4.861  20.712  0.00  0.00    +0.000 C 
ATOM     13  C   UNL     1       2.450   5.875  19.796  0.00  0.00    +0.000 C 
ATOM     14  C   UNL     1       3.606   5.335  18.298  0.00  0.00    +0.000 C 
ATOM     15  C   UNL     1       3.833   4.498  16.772  0.00  0.00    +0.000 C 
ATOM     16  C   UNL     1       4.684   6.350  17.775  0.00  0.00    +0.000 C 
ENDROOT
BRANCH  10  17
ATOM     17  O   UNL     1       2.230   2.899  22.622  0.00  0.00    +0.000 OA
ATOM     18  H   UNL     1       1.477   2.304  22.700  0.00  0.00    +0.000 HD
ENDBRANCH  10  17
BRANCH   1  19
ATOM     19  C   UNL     1       1.145   7.964  20.624  0.00  0.00    +0.000 C 
BRANCH  19  21
ATOM     20  C   UNL     1      -0.302   9.247  22.360  0.00  0.00    +0.000 C 
ATOM     21  C   UNL     1       0.805   9.317  21.321  0.00  0.00    +0.000 C 
BRANCH  21  22
ATOM     22  O   UNL     1       0.617  10.359  20.370  0.00  0.00    +0.000 OA
BRANCH  22  23
ATOM     23  C   UNL     1      -0.612  11.071  20.501  0.00  0.00    +0.000 C 
BRANCH  23  24
ATOM     24  C   UNL     1      -1.395  10.922  19.226  0.00  0.00    +0.000 A 
ATOM     25  C   UNL     1      -2.546  11.692  19.024  0.00  0.00    +0.000 A 
ATOM     26  C   UNL     1      -3.285  11.557  17.854  0.00  0.00    +0.000 A 
ATOM     27  C   UNL     1      -2.873  10.672  16.859  0.00  0.00    +0.000 A 
ATOM     28  C   UNL     1      -1.721   9.909  17.043  0.00  0.00    +0.000 A 
ATOM     29  C   UNL     1      -0.986  10.028  18.222  0.00  0.00    +0.000 A 
ENDBRANCH  23  24
ENDBRANCH  22  23
ENDBRANCH  21  22
ENDBRANCH  19  21
ENDBRANCH   1  19
TORSDOF 6
ENDMDL
MODEL 8
REMARK VINA RESULT:      -7.1      2.044      4.237
REMARK  Name = 
REMARK  10 active torsions:
REMARK  status: ('A' for Active; 'I' for Inactive)
REMARK    1  A    between atoms: C_1  and  C_2
REMARK    2  A    between atoms: C_2  and  C_3
REMARK    3  A    between atoms: C_2  and  O_21
REMARK    4  A    between atoms: C_3  and  N_4
REMARK    5  A    between atoms: C_7  and  C_8
REMARK    6  A    between atoms: C_13  and  O_14
REMARK    7  A    between atoms: C_18  and  C_19
REMARK    8  A    between atoms: C_18  and  C_20
REMARK    9  A    between atoms: O_21  and  C_22
REMARK   10  A    between atoms: C_22  and  C_23
REMARK                            x       y       z     vdW  Elec       q    Type
REMARK                         _______ _______ _______ _____ _____    ______ ____
ROOT
ATOM      1  N   UNL     1       3.131   7.507  18.440  0.00  0.00    +0.000 NA
ATOM      2  C   UNL     1       4.330   7.764  17.620  0.00  0.00    +0.000 C 
ATOM      3  C   UNL     1       4.613   6.505  16.615  0.00  0.00    +0.000 C 
ATOM      4  C   UNL     1       4.390   4.821  17.211  0.00  0.00    +0.000 C 
ATOM      5  C   UNL     1       4.394   4.013  15.913  0.00  0.00    +0.000 C 
ATOM      6  C   UNL     1       3.662   3.618  18.449  0.00  0.00    +0.000 A 
ATOM      7  C   UNL     1       4.403   2.748  19.339  0.00  0.00    +0.000 A 
ATOM      8  C   UNL     1       3.913   2.297  20.590  0.00  0.00    +0.000 A 
ATOM      9  C   UNL     1       2.608   2.524  20.973  0.00  0.00    +0.000 A 
ATOM     10  C   UNL     1       1.837   3.296  20.133  0.00  0.00    +0.000 A 
ATOM     11  C   UNL     1       2.404   3.900  19.005  0.00  0.00    +0.000 A 
ATOM     12  C   UNL     1       1.907   5.186  18.573  0.00  0.00    +0.000 C 
ATOM     13  C   UNL     1       3.229   6.026  18.450  0.00  0.00    +0.000 C 
ATOM     14  C   UNL     1       5.034   5.242  18.489  0.00  0.00    +0.000 C 
ATOM     15  C   UNL     1       6.228   4.131  17.842  0.00  0.00    +0.000 C 
ATOM     16  C   UNL     1       6.251   6.171  18.840  0.00  0.00    +0.000 C 
ENDROOT
BRANCH  10  17
ATOM     17  O   UNL     1       0.559   3.656  20.484  0.00  0.00    +0.000 OA
ATOM     18  H   UNL     1       0.606   4.297  21.200  0.00  0.00    +0.000 HD
ENDBRANCH  10  17
BRANCH   1  19
ATOM     19  C   UNL     1       2.039   8.192  17.645  0.00  0.00    +0.000 C 
BRANCH  19  21
ATOM     20  C   UNL     1       2.359  10.741  18.030  0.00  0.00    +0.000 C 
ATOM     21  C   UNL     1       1.401   9.614  17.681  0.00  0.00    +0.000 C 
BRANCH  21  22
ATOM     22  O   UNL     1       0.209   9.630  18.458  0.00  0.00    +0.000 OA
BRANCH  22  23
ATOM     23  C   UNL     1      -0.045  10.861  19.135  0.00  0.00    +0.000 C 
BRANCH  23  24
ATOM     24  C   UNL     1      -0.264  10.573  20.594  0.00  0.00    +0.000 A 
ATOM     25  C   UNL     1       0.264   9.408  21.160  0.00  0.00    +0.000 A 
ATOM     26  C   UNL     1       0.061   9.124  22.506  0.00  0.00    +0.000 A 
ATOM     27  C   UNL     1      -0.649  10.012  23.312  0.00  0.00    +0.000 A 
ATOM     28  C   UNL     1      -1.170  11.183  22.764  0.00  0.00    +0.000 A 
ATOM     29  C   UNL     1      -0.983  11.463  21.411  0.00  0.00    +0.000 A 
ENDBRANCH  23  24
ENDBRANCH  22  23
ENDBRANCH  21  22
ENDBRANCH  19  21
ENDBRANCH   1  19
TORSDOF 6
ENDMDL
MODEL 9
REMARK VINA RESULT:      -7.1      2.242      4.148
REMARK  Name = 
REMARK  10 active torsions:
REMARK  status: ('A' for Active; 'I' for Inactive)
REMARK    1  A    between atoms: C_1  and  C_2
REMARK    2  A    between atoms: C_2  and  C_3
REMARK    3  A    between atoms: C_2  and  O_21
REMARK    4  A    between atoms: C_3  and  N_4
REMARK    5  A    between atoms: C_7  and  C_8
REMARK    6  A    between atoms: C_13  and  O_14
REMARK    7  A    between atoms: C_18  and  C_19
REMARK    8  A    between atoms: C_18  and  C_20
REMARK    9  A    between atoms: O_21  and  C_22
REMARK   10  A    between atoms: C_22  and  C_23
REMARK                            x       y       z     vdW  Elec       q    Type
REMARK                         _______ _______ _______ _____ _____    ______ ____
ROOT
ATOM      1  N   UNL     1       3.059   7.176  18.300  0.00  0.00    +0.000 NA
ATOM      2  C   UNL     1       4.390   7.636  17.861  0.00  0.00    +0.000 C 
ATOM      3  C   UNL     1       4.917   6.734  16.602  0.00  0.00    +0.000 C 
ATOM      4  C   UNL     1       4.638   4.956  16.601  0.00  0.00    +0.000 C 
ATOM      5  C   UNL     1       4.936   4.580  15.150  0.00  0.00    +0.000 C 
ATOM      6  C   UNL     1       3.716   3.455  17.240  0.00  0.00    +0.000 A 
ATOM      7  C   UNL     1       4.291   2.335  17.957  0.00  0.00    +0.000 A 
ATOM      8  C   UNL     1       3.572   1.539  18.883  0.00  0.00    +0.000 A 
ATOM      9  C   UNL     1       2.210   1.676  19.040  0.00  0.00    +0.000 A 
ATOM     10  C   UNL     1       1.599   2.688  18.334  0.00  0.00    +0.000 A 
ATOM     11  C   UNL     1       2.362   3.591  17.584  0.00  0.00    +0.000 A 
ATOM     12  C   UNL     1       1.917   4.960  17.470  0.00  0.00    +0.000 C 
ATOM     13  C   UNL     1       3.206   5.760  17.881  0.00  0.00    +0.000 C 
ATOM     14  C   UNL     1       4.992   4.950  18.050  0.00  0.00    +0.000 C 
ATOM     15  C   UNL     1       6.332   4.054  17.356  0.00  0.00    +0.000 C 
ATOM     16  C   UNL     1       6.077   5.694  18.908  0.00  0.00    +0.000 C 
ENDROOT
BRANCH  10  17
ATOM     17  O   UNL     1       0.264   2.961  18.508  0.00  0.00    +0.000 OA
ATOM     18  H   UNL     1      -0.048   3.463  17.748  0.00  0.00    +0.000 HD
ENDBRANCH  10  17
BRANCH   1  19
ATOM     19  C   UNL     1       2.128   8.101  17.544  0.00  0.00    +0.000 C 
BRANCH  19  21
ATOM     20  C   UNL     1       2.289  10.632  18.108  0.00  0.00    +0.000 C 
ATOM     21  C   UNL     1       1.388   9.426  17.903  0.00  0.00    +0.000 C 
BRANCH  21  22
ATOM     22  O   UNL     1       0.459   9.232  18.964  0.00  0.00    +0.000 OA
BRANCH  22  23
ATOM     23  C   UNL     1       1.044   9.175  20.264  0.00  0.00    +0.000 C 
BRANCH  23  24
ATOM     24  C   UNL     1       0.210  10.001  21.205  0.00  0.00    +0.000 A 
ATOM     25  C   UNL     1      -0.196  11.286  20.828  0.00  0.00    +0.000 A 
ATOM     26  C   UNL     1      -0.958  12.064  21.692  0.00  0.00    +0.000 A 
ATOM     27  C   UNL     1      -1.349  11.562  22.932  0.00  0.00    +0.000 A 
ATOM     28  C   UNL     1      -0.962  10.278  23.314  0.00  0.00    +0.000 A 
ATOM     29  C   UNL     1      -0.183   9.501  22.458  0.00  0.00    +0.000 A 
ENDBRANCH  23  24
ENDBRANCH  22  23
ENDBRANCH  21  22
ENDBRANCH  19  21
ENDBRANCH   1  19
TORSDOF 6
ENDMDL
