MODEL 1
REMARK VINA RESULT:      -8.1      0.000      0.000
REMARK  Name = 
REMARK  6 active torsions:
REMARK  status: ('A' for Active; 'I' for Inactive)
REMARK    1  A    between atoms: C_2  and  C_3
REMARK    2  A    between atoms: C_3  and  N_4
REMARK    3  A    between atoms: N_4  and  C_5
REMARK    4  A    between atoms: C_5  and  C_6
REMARK    5  A    between atoms: N_13  and  C_14
REMARK    6  A    between atoms: C_17  and  C_18
REMARK                            x       y       z     vdW  Elec       q    Type
REMARK                         _______ _______ _______ _____ _____    ______ ____
ROOT
ATOM      1  O   UNL     1       1.357   4.127  17.308  0.00  0.00    +0.000 OA
ATOM      2  C   UNL     1       2.281   3.869  18.076  0.00  0.00    +0.000 C 
ATOM      3  N   UNL     1       2.796   4.712  19.046  0.00  0.00    +0.000 N 
ATOM      4  H   UNL     1       3.669   4.435  19.480  0.00  0.00    +0.000 HD
ENDROOT
BRANCH   3   5
ATOM      5  C   UNL     1       2.257   5.940  19.473  0.00  0.00    +0.000 A 
ATOM      6  C   UNL     1       1.586   6.114  20.685  0.00  0.00    +0.000 A 
ATOM      7  C   UNL     1       1.137   7.380  21.073  0.00  0.00    +0.000 A 
ATOM      8  C   UNL     1       1.353   8.494  20.253  0.00  0.00    +0.000 A 
ATOM      9  C   UNL     1       2.051   8.324  19.053  0.00  0.00    +0.000 A 
ATOM     10  C   UNL     1       2.473   7.053  18.654  0.00  0.00    +0.000 A 
BRANCH   8  11
ATOM     11  C   UNL     1       0.954   9.838  20.758  0.00  0.00    +0.000 C 
ATOM     12  O   UNL     1       1.313  10.130  21.898  0.00  0.00    +0.000 OA
ATOM     13  N   UNL     1       0.236  10.721  19.951  0.00  0.00    +0.000 N 
ATOM     14  C   UNL     1       0.184  12.129  20.345  0.00  0.00    +0.000 C 
ATOM     15  C   UNL     1      -1.249  12.646  20.395  0.00  0.00    +0.000 C 
ATOM     16  C   UNL     1      -1.967  12.388  19.074  0.00  0.00    +0.000 C 
ATOM     17  C   UNL     1      -1.905  10.908  18.713  0.00  0.00    +0.000 C 
ATOM     18  C   UNL     1      -0.470  10.387  18.712  0.00  0.00    +0.000 C 
ENDBRANCH   8  11
ENDBRANCH   3   5
BRANCH   2  19
ATOM     19  C   UNL     1       3.043   2.541  17.968  0.00  0.00    +0.000 C 
BRANCH  19  20
ATOM     20  N   UNL     1       4.484   2.771  17.777  0.00  0.00    +0.000 NA
ATOM     21  H   UNL     1       4.931   1.861  17.636  0.00  0.00    +0.000 HD
BRANCH  20  22
ATOM     22  C   UNL     1       4.753   3.597  16.601  0.00  0.00    +0.000 C 
BRANCH  22  23
ATOM     23  C   UNL     1       5.635   4.774  16.936  0.00  0.00    +0.000 A 
ATOM     24  C   UNL     1       5.282   6.067  16.525  0.00  0.00    +0.000 A 
ATOM     25  C   UNL     1       6.077   7.163  16.872  0.00  0.00    +0.000 A 
ATOM     26  C   UNL     1       7.233   6.966  17.624  0.00  0.00    +0.000 A 
ATOM     27 CL   UNL     1       8.205   8.320  18.063  0.00  0.00    +0.000 Cl
ATOM     28  C   UNL     1       7.604   5.688  18.031  0.00  0.00    +0.000 A 
ATOM     29  C   UNL     1       6.809   4.596  17.689  0.00  0.00    +0.000 A 
ENDBRANCH  22  23
ENDBRANCH  20  22
ENDBRANCH  19  20
ENDBRANCH   2  19
TORSDOF 6
ENDMDL
MODEL 2
REMARK VINA RESULT:      -7.9      0.449      1.022
REMARK  Name = 
REMARK  6 active torsions:
REMARK  status: ('A' for Active; 'I' for Inactive)
REMARK    1  A    between atoms: C_2  and  C_3
REMARK    2  A    between atoms: C_3  and  N_4
REMARK    3  A    between atoms: N_4  and  C_5
REMARK    4  A    between atoms: C_5  and  C_6
REMARK    5  A    between atoms: N_13  and  C_14
REMARK    6  A    between atoms: C_17  and  C_18
REMARK                            x       y       z     vdW  Elec       q    Type
REMARK                         _______ _______ _______ _____ _____    ______ ____
ROOT
ATOM      1  O   UNL     1       1.214   4.185  17.274  0.00  0.00    +0.000 OA
ATOM      2  C   UNL     1       2.281   3.980  17.848  0.00  0.00    +0.000 C 
ATOM      3  N   UNL     1       2.889   4.820  18.766  0.00  0.00    +0.000 N 
ATOM      4  H   UNL     1       3.847   4.608  19.020  0.00  0.00    +0.000 HD
ENDROOT
BRANCH   3   5
ATOM      5  C   UNL     1       2.334   5.969  19.360  0.00  0.00    +0.000 A 
ATOM      6  C   UNL     1       1.686   5.966  20.596  0.00  0.00    +0.000 A 
ATOM      7  C   UNL     1       1.218   7.160  21.156  0.00  0.00    +0.000 A 
ATOM      8  C   UNL     1       1.391   8.376  20.485  0.00  0.00    +0.000 A 
ATOM      9  C   UNL     1       2.067   8.381  19.260  0.00  0.00    +0.000 A 
ATOM     10  C   UNL     1       2.508   7.184  18.690  0.00  0.00    +0.000 A 
BRANCH   8  11
ATOM     11  C   UNL     1       0.974   9.632  21.169  0.00  0.00    +0.000 C 
ATOM     12  O   UNL     1       1.250   9.729  22.364  0.00  0.00    +0.000 OA
ATOM     13  N   UNL     1       0.333  10.652  20.464  0.00  0.00    +0.000 N 
ATOM     14  C   UNL     1       0.272  11.980  21.075  0.00  0.00    +0.000 C 
ATOM     15  C   UNL     1      -1.153  12.519  21.103  0.00  0.00    +0.000 C 
ATOM     16  C   UNL     1      -1.772  12.495  19.709  0.00  0.00    +0.000 C 
ATOM     17  C   UNL     1      -1.704  11.090  19.120  0.00  0.00    +0.000 C 
ATOM     18  C   UNL     1      -0.281  10.538  19.139  0.00  0.00    +0.000 C 
ENDBRANCH   8  11
ENDBRANCH   3   5
BRANCH   2  19
ATOM     19  C   UNL     1       3.122   2.738  17.522  0.00  0.00    +0.000 C 
BRANCH  19  20
ATOM     20  N   UNL     1       4.559   3.012  17.687  0.00  0.00    +0.000 NA
ATOM     21  H   UNL     1       5.050   2.115  17.697  0.00  0.00    +0.000 HD
BRANCH  20  22
ATOM     22  C   UNL     1       5.091   3.813  16.585  0.00  0.00    +0.000 C 
BRANCH  22  23
ATOM     23  C   UNL     1       5.925   4.966  17.085  0.00  0.00    +0.000 A 
ATOM     24  C   UNL     1       6.890   4.766  18.082  0.00  0.00    +0.000 A 
ATOM     25  C   UNL     1       7.692   5.826  18.515  0.00  0.00    +0.000 A 
ATOM     26  C   UNL     1       7.524   7.092  17.957  0.00  0.00    +0.000 A 
ATOM     27 CL   UNL     1       8.523   8.394  18.482  0.00  0.00    +0.000 Cl
ATOM     28  C   UNL     1       6.564   7.310  16.974  0.00  0.00    +0.000 A 
ATOM     29  C   UNL     1       5.767   6.251  16.539  0.00  0.00    +0.000 A 
ENDBRANCH  22  23
ENDBRANCH  20  22
ENDBRANCH  19  20
ENDBRANCH   2  19
TORSDOF 6
ENDMDL
MODEL 3
REMARK VINA RESULT:      -7.9      2.136      3.079
REMARK  Name = 
REMARK  6 active torsions:
REMARK  status: ('A' for Active; 'I' for Inactive)
REMARK    1  A    between atoms: C_2  and  C_3
REMARK    2  A    between atoms: C_3  and  N_4
REMARK    3  A    between atoms: N_4  and  C_5
REMARK    4  A    between atoms: C_5  and  C_6
REMARK    5  A    between atoms: N_13  and  C_14
REMARK    6  A    between atoms: C_17  and  C_18
REMARK                            x       y       z     vdW  Elec       q    Type
REMARK                         _______ _______ _______ _____ _____    ______ ____
ROOT
ATOM      1  O   UNL     1       0.725   4.452  20.124  0.00  0.00    +0.000 OA
ATOM      2  C   UNL     1       1.769   4.689  20.726  0.00  0.00    +0.000 C 
ATOM      3  N   UNL     1       2.422   5.909  20.780  0.00  0.00    +0.000 N 
ATOM      4  H   UNL     1       3.361   5.912  21.162  0.00  0.00    +0.000 HD
ENDROOT
BRANCH   3   5
ATOM      5  C   UNL     1       1.939   7.149  20.322  0.00  0.00    +0.000 A 
ATOM      6  C   UNL     1       2.215   7.668  19.055  0.00  0.00    +0.000 A 
ATOM      7  C   UNL     1       1.644   8.877  18.644  0.00  0.00    +0.000 A 
ATOM      8  C   UNL     1       0.788   9.586  19.495  0.00  0.00    +0.000 A 
ATOM      9  C   UNL     1       0.489   9.049  20.752  0.00  0.00    +0.000 A 
ATOM     10  C   UNL     1       1.083   7.857  21.172  0.00  0.00    +0.000 A 
BRANCH   8  11
ATOM     11  C   UNL     1       0.119  10.810  18.974  0.00  0.00    +0.000 C 
ATOM     12  O   UNL     1      -0.700  10.651  18.069  0.00  0.00    +0.000 OA
ATOM     13  N   UNL     1       0.396  12.065  19.519  0.00  0.00    +0.000 N 
ATOM     14  C   UNL     1      -0.530  13.161  19.232  0.00  0.00    +0.000 C 
ATOM     15  C   UNL     1       0.202  14.386  18.694  0.00  0.00    +0.000 C 
ATOM     16  C   UNL     1       1.324  14.807  19.637  0.00  0.00    +0.000 C 
ATOM     17  C   UNL     1       2.273  13.641  19.893  0.00  0.00    +0.000 C 
ATOM     18  C   UNL     1       1.527  12.404  20.386  0.00  0.00    +0.000 C 
ENDBRANCH   8  11
ENDBRANCH   3   5
BRANCH   2  19
ATOM     19  C   UNL     1       2.528   3.569  21.452  0.00  0.00    +0.000 C 
BRANCH  19  20
ATOM     20  N   UNL     1       2.888   2.485  20.523  0.00  0.00    +0.000 NA
ATOM     21  H   UNL     1       2.306   2.581  19.688  0.00  0.00    +0.000 HD
BRANCH  20  22
ATOM     22  C   UNL     1       4.290   2.562  20.113  0.00  0.00    +0.000 C 
BRANCH  22  23
ATOM     23  C   UNL     1       4.489   3.551  18.991  0.00  0.00    +0.000 A 
ATOM     24  C   UNL     1       5.296   4.682  19.175  0.00  0.00    +0.000 A 
ATOM     25  C   UNL     1       5.515   5.576  18.123  0.00  0.00    +0.000 A 
ATOM     26  C   UNL     1       4.920   5.343  16.885  0.00  0.00    +0.000 A 
ATOM     27 CL   UNL     1       5.203   6.439  15.585  0.00  0.00    +0.000 Cl
ATOM     28  C   UNL     1       4.108   4.231  16.688  0.00  0.00    +0.000 A 
ATOM     29  C   UNL     1       3.893   3.337  17.736  0.00  0.00    +0.000 A 
ENDBRANCH  22  23
ENDBRANCH  20  22
ENDBRANCH  19  20
ENDBRANCH   2  19
TORSDOF 6
ENDMDL
MODEL 4
REMARK VINA RESULT:      -7.9      0.879      1.596
REMARK  Name = 
REMARK  6 active torsions:
REMARK  status: ('A' for Active; 'I' for Inactive)
REMARK    1  A    between atoms: C_2  and  C_3
REMARK    2  A    between atoms: C_3  and  N_4
REMARK    3  A    between atoms: N_4  and  C_5
REMARK    4  A    between atoms: C_5  and  C_6
REMARK    5  A    between atoms: N_13  and  C_14
REMARK    6  A    between atoms: C_17  and  C_18
REMARK                            x       y       z     vdW  Elec       q    Type
REMARK                         _______ _______ _______ _____ _____    ______ ____
ROOT
ATOM      1  O   UNL     1       1.213   4.006  18.105  0.00  0.00    +0.000 OA
ATOM      2  C   UNL     1       2.206   3.920  18.823  0.00  0.00    +0.000 C 
ATOM      3  N   UNL     1       2.855   4.971  19.449  0.00  0.00    +0.000 N 
ATOM      4  H   UNL     1       3.760   4.774  19.860  0.00  0.00    +0.000 HD
ENDROOT
BRANCH   3   5
ATOM      5  C   UNL     1       2.412   6.303  19.545  0.00  0.00    +0.000 A 
ATOM      6  C   UNL     1       2.530   7.236  18.513  0.00  0.00    +0.000 A 
ATOM      7  C   UNL     1       2.004   8.524  18.656  0.00  0.00    +0.000 A 
ATOM      8  C   UNL     1       1.354   8.900  19.836  0.00  0.00    +0.000 A 
ATOM      9  C   UNL     1       1.210   7.956  20.858  0.00  0.00    +0.000 A 
ATOM     10  C   UNL     1       1.760   6.679  20.724  0.00  0.00    +0.000 A 
BRANCH   8  11
ATOM     11  C   UNL     1       0.716  10.245  19.901  0.00  0.00    +0.000 C 
ATOM     12  O   UNL     1       1.040  10.966  20.844  0.00  0.00    +0.000 OA
ATOM     13  N   UNL     1      -0.176  10.663  18.913  0.00  0.00    +0.000 N 
ATOM     14  C   UNL     1      -0.488  12.090  18.822  0.00  0.00    +0.000 C 
ATOM     15  C   UNL     1      -1.991  12.336  18.823  0.00  0.00    +0.000 C 
ATOM     16  C   UNL     1      -2.677  11.524  17.730  0.00  0.00    +0.000 C 
ATOM     17  C   UNL     1      -2.341  10.044  17.874  0.00  0.00    +0.000 C 
ATOM     18  C   UNL     1      -0.833   9.809  17.920  0.00  0.00    +0.000 C 
ENDBRANCH   8  11
ENDBRANCH   3   5
BRANCH   2  19
ATOM     19  C   UNL     1       2.903   2.570  19.039  0.00  0.00    +0.000 C 
BRANCH  19  20
ATOM     20  N   UNL     1       4.289   2.603  18.543  0.00  0.00    +0.000 NA
ATOM     21  H   UNL     1       4.602   1.637  18.422  0.00  0.00    +0.000 HD
BRANCH  20  22
ATOM     22  C   UNL     1       4.390   3.282  17.252  0.00  0.00    +0.000 C 
BRANCH  22  23
ATOM     23  C   UNL     1       5.228   4.532  17.342  0.00  0.00    +0.000 A 
ATOM     24  C   UNL     1       6.287   4.613  18.258  0.00  0.00    +0.000 A 
ATOM     25  C   UNL     1       7.091   5.756  18.312  0.00  0.00    +0.000 A 
ATOM     26  C   UNL     1       6.832   6.824  17.455  0.00  0.00    +0.000 A 
ATOM     27 CL   UNL     1       7.832   8.225  17.514  0.00  0.00    +0.000 Cl
ATOM     28  C   UNL     1       5.778   6.764  16.548  0.00  0.00    +0.000 A 
ATOM     29  C   UNL     1       4.979   5.622  16.491  0.00  0.00    +0.000 A 
ENDBRANCH  22  23
ENDBRANCH  20  22
ENDBRANCH  19  20
ENDBRANCH   2  19
TORSDOF 6
ENDMDL
MODEL 5
REMARK VINA RESULT:      -7.8      4.944      7.999
REMARK  Name = 
REMARK  6 active torsions:
REMARK  status: ('A' for Active; 'I' for Inactive)
REMARK    1  A    between atoms: C_2  and  C_3
REMARK    2  A    between atoms: C_3  and  N_4
REMARK    3  A    between atoms: N_4  and  C_5
REMARK    4  A    between atoms: C_5  and  C_6
REMARK    5  A    between atoms: N_13  and  C_14
REMARK    6  A    between atoms: C_17  and  C_18
REMARK                            x       y       z     vdW  Elec       q    Type
REMARK                         _______ _______ _______ _____ _____    ______ ____
ROOT
ATOM      1  O   UNL     1       8.414   7.509  18.849  0.00  0.00    +0.000 OA
ATOM      2  C   UNL     1       8.006   8.281  17.985  0.00  0.00    +0.000 C 
ATOM      3  N   UNL     1       6.960   8.047  17.108  0.00  0.00    +0.000 N 
ATOM      4  H   UNL     1       6.853   8.695  16.336  0.00  0.00    +0.000 HD
ENDROOT
BRANCH   3   5
ATOM      5  C   UNL     1       6.046   6.977  17.146  0.00  0.00    +0.000 A 
ATOM      6  C   UNL     1       6.421   5.634  17.073  0.00  0.00    +0.000 A 
ATOM      7  C   UNL     1       5.463   4.622  17.185  0.00  0.00    +0.000 A 
ATOM      8  C   UNL     1       4.112   4.939  17.372  0.00  0.00    +0.000 A 
ATOM      9  C   UNL     1       3.742   6.284  17.476  0.00  0.00    +0.000 A 
ATOM     10  C   UNL     1       4.697   7.293  17.334  0.00  0.00    +0.000 A 
BRANCH   8  11
ATOM     11  C   UNL     1       3.145   3.828  17.595  0.00  0.00    +0.000 C 
ATOM     12  O   UNL     1       2.625   3.337  16.593  0.00  0.00    +0.000 OA
ATOM     13  N   UNL     1       2.878   3.358  18.882  0.00  0.00    +0.000 N 
ATOM     14  C   UNL     1       2.218   2.060  19.020  0.00  0.00    +0.000 C 
ATOM     15  C   UNL     1       0.991   2.147  19.920  0.00  0.00    +0.000 C 
ATOM     16  C   UNL     1       1.349   2.760  21.270  0.00  0.00    +0.000 C 
ATOM     17  C   UNL     1       2.016   4.118  21.079  0.00  0.00    +0.000 C 
ATOM     18  C   UNL     1       3.215   4.031  20.139  0.00  0.00    +0.000 C 
ENDBRANCH   8  11
ENDBRANCH   3   5
BRANCH   2  19
ATOM     19  C   UNL     1       8.710   9.622  17.735  0.00  0.00    +0.000 C 
BRANCH  19  20
ATOM     20  N   UNL     1       8.956  10.335  18.999  0.00  0.00    +0.000 NA
ATOM     21  H   UNL     1       8.815   9.673  19.766  0.00  0.00    +0.000 HD
BRANCH  20  22
ATOM     22  C   UNL     1      10.324  10.843  19.082  0.00  0.00    +0.000 C 
BRANCH  22  23
ATOM     23  C   UNL     1      10.448  12.216  18.469  0.00  0.00    +0.000 A 
ATOM     24  C   UNL     1       9.814  13.318  19.061  0.00  0.00    +0.000 A 
ATOM     25  C   UNL     1       9.964  14.597  18.517  0.00  0.00    +0.000 A 
ATOM     26  C   UNL     1      10.741  14.776  17.375  0.00  0.00    +0.000 A 
ATOM     27 CL   UNL     1      10.935  16.355  16.715  0.00  0.00    +0.000 Cl
ATOM     28  C   UNL     1      11.368  13.691  16.769  0.00  0.00    +0.000 A 
ATOM     29  C   UNL     1      11.223  12.416  17.314  0.00  0.00    +0.000 A 
ENDBRANCH  22  23
ENDBRANCH  20  22
ENDBRANCH  19  20
ENDBRANCH   2  19
TORSDOF 6
ENDMDL
MODEL 6
REMARK VINA RESULT:      -7.8      1.232      1.990
REMARK  Name = 
REMARK  6 active torsions:
REMARK  status: ('A' for Active; 'I' for Inactive)
REMARK    1  A    between atoms: C_2  and  C_3
REMARK    2  A    between atoms: C_3  and  N_4
REMARK    3  A    between atoms: N_4  and  C_5
REMARK    4  A    between atoms: C_5  and  C_6
REMARK    5  A    between atoms: N_13  and  C_14
REMARK    6  A    between atoms: C_17  and  C_18
REMARK                            x       y       z     vdW  Elec       q    Type
REMARK                         _______ _______ _______ _____ _____    ______ ____
ROOT
ATOM      1  O   UNL     1       1.693   4.486  17.682  0.00  0.00    +0.000 OA
ATOM      2  C   UNL     1       2.880   4.693  17.922  0.00  0.00    +0.000 C 
ATOM      3  N   UNL     1       3.442   5.907  18.278  0.00  0.00    +0.000 N 
ATOM      4  H   UNL     1       4.453   5.967  18.269  0.00  0.00    +0.000 HD
ENDROOT
BRANCH   3   5
ATOM      5  C   UNL     1       2.758   7.090  18.616  0.00  0.00    +0.000 A 
ATOM      6  C   UNL     1       2.547   8.145  17.726  0.00  0.00    +0.000 A 
ATOM      7  C   UNL     1       1.798   9.261  18.113  0.00  0.00    +0.000 A 
ATOM      8  C   UNL     1       1.250   9.340  19.398  0.00  0.00    +0.000 A 
ATOM      9  C   UNL     1       1.436   8.269  20.279  0.00  0.00    +0.000 A 
ATOM     10  C   UNL     1       2.208   7.168  19.900  0.00  0.00    +0.000 A 
BRANCH   8  11
ATOM     11  C   UNL     1       0.370  10.496  19.728  0.00  0.00    +0.000 C 
ATOM     12  O   UNL     1       0.627  11.109  20.764  0.00  0.00    +0.000 OA
ATOM     13  N   UNL     1      -0.668  10.872  18.875  0.00  0.00    +0.000 N 
ATOM     14  C   UNL     1      -1.258  12.200  19.049  0.00  0.00    +0.000 C 
ATOM     15  C   UNL     1      -2.775  12.128  19.171  0.00  0.00    +0.000 C 
ATOM     16  C   UNL     1      -3.381  11.376  17.990  0.00  0.00    +0.000 C 
ATOM     17  C   UNL     1      -2.752   9.994  17.858  0.00  0.00    +0.000 C 
ATOM     18  C   UNL     1      -1.229  10.071  17.785  0.00  0.00    +0.000 C 
ENDBRANCH   8  11
ENDBRANCH   3   5
BRANCH   2  19
ATOM     19  C   UNL     1       3.919   3.575  17.762  0.00  0.00    +0.000 C 
BRANCH  19  20
ATOM     20  N   UNL     1       5.164   3.901  18.478  0.00  0.00    +0.000 NA
ATOM     21  H   UNL     1       5.419   3.091  19.049  0.00  0.00    +0.000 HD
BRANCH  20  22
ATOM     22  C   UNL     1       6.266   4.176  17.557  0.00  0.00    +0.000 C 
BRANCH  22  23
ATOM     23  C   UNL     1       6.864   5.540  17.794  0.00  0.00    +0.000 A 
ATOM     24  C   UNL     1       7.782   5.743  18.836  0.00  0.00    +0.000 A 
ATOM     25  C   UNL     1       8.368   6.997  19.028  0.00  0.00    +0.000 A 
ATOM     26  C   UNL     1       8.032   8.054  18.185  0.00  0.00    +0.000 A 
ATOM     27 CL   UNL     1       8.767   9.595  18.417  0.00  0.00    +0.000 Cl
ATOM     28  C   UNL     1       7.116   7.872  17.154  0.00  0.00    +0.000 A 
ATOM     29  C   UNL     1       6.534   6.620  16.958  0.00  0.00    +0.000 A 
ENDBRANCH  22  23
ENDBRANCH  20  22
ENDBRANCH  19  20
ENDBRANCH   2  19
TORSDOF 6
ENDMDL
MODEL 7
REMARK VINA RESULT:      -7.7      4.809      7.876
REMARK  Name = 
REMARK  6 active torsions:
REMARK  status: ('A' for Active; 'I' for Inactive)
REMARK    1  A    between atoms: C_2  and  C_3
REMARK    2  A    between atoms: C_3  and  N_4
REMARK    3  A    between atoms: N_4  and  C_5
REMARK    4  A    between atoms: C_5  and  C_6
REMARK    5  A    between atoms: N_13  and  C_14
REMARK    6  A    between atoms: C_17  and  C_18
REMARK                            x       y       z     vdW  Elec       q    Type
REMARK                         _______ _______ _______ _____ _____    ______ ____
ROOT
ATOM      1  O   UNL     1       8.264   7.213  18.741  0.00  0.00    +0.000 OA
ATOM      2  C   UNL     1       7.927   7.937  17.808  0.00  0.00    +0.000 C 
ATOM      3  N   UNL     1       6.891   7.698  16.921  0.00  0.00    +0.000 N 
ATOM      4  H   UNL     1       6.844   8.287  16.098  0.00  0.00    +0.000 HD
ENDROOT
BRANCH   3   5
ATOM      5  C   UNL     1       5.911   6.693  17.016  0.00  0.00    +0.000 A 
ATOM      6  C   UNL     1       6.177   5.332  16.853  0.00  0.00    +0.000 A 
ATOM      7  C   UNL     1       5.164   4.384  17.029  0.00  0.00    +0.000 A 
ATOM      8  C   UNL     1       3.867   4.784  17.370  0.00  0.00    +0.000 A 
ATOM      9  C   UNL     1       3.608   6.145  17.562  0.00  0.00    +0.000 A 
ATOM     10  C   UNL     1       4.614   7.092  17.358  0.00  0.00    +0.000 A 
BRANCH   8  11
ATOM     11  C   UNL     1       2.849   3.733  17.653  0.00  0.00    +0.000 C 
ATOM     12  O   UNL     1       2.200   3.318  16.693  0.00  0.00    +0.000 OA
ATOM     13  N   UNL     1       2.677   3.232  18.944  0.00  0.00    +0.000 N 
ATOM     14  C   UNL     1       1.942   1.977  19.105  0.00  0.00    +0.000 C 
ATOM     15  C   UNL     1       0.819   2.111  20.126  0.00  0.00    +0.000 C 
ATOM     16  C   UNL     1       1.350   2.645  21.452  0.00  0.00    +0.000 C 
ATOM     17  C   UNL     1       2.090   3.961  21.240  0.00  0.00    +0.000 C 
ATOM     18  C   UNL     1       3.182   3.831  20.181  0.00  0.00    +0.000 C 
ENDBRANCH   8  11
ENDBRANCH   3   5
BRANCH   2  19
ATOM     19  C   UNL     1       8.722   9.208  17.474  0.00  0.00    +0.000 C 
BRANCH  19  20
ATOM     20  N   UNL     1       8.442  10.278  18.446  0.00  0.00    +0.000 NA
ATOM     21  H   UNL     1       7.639   9.988  19.009  0.00  0.00    +0.000 HD
BRANCH  20  22
ATOM     22  C   UNL     1       9.572  10.505  19.346  0.00  0.00    +0.000 C 
BRANCH  22  23
ATOM     23  C   UNL     1      10.288  11.793  19.029  0.00  0.00    +0.000 A 
ATOM     24  C   UNL     1      10.005  12.491  17.846  0.00  0.00    +0.000 A 
ATOM     25  C   UNL     1      10.638  13.708  17.573  0.00  0.00    +0.000 A 
ATOM     26  C   UNL     1      11.561  14.225  18.478  0.00  0.00    +0.000 A 
ATOM     27 CL   UNL     1      12.329  15.731  18.145  0.00  0.00    +0.000 Cl
ATOM     28  C   UNL     1      11.861  13.540  19.652  0.00  0.00    +0.000 A 
ATOM     29  C   UNL     1      11.227  12.329  19.927  0.00  0.00    +0.000 A 
ENDBRANCH  22  23
ENDBRANCH  20  22
ENDBRANCH  19  20
ENDBRANCH   2  19
TORSDOF 6
ENDMDL
MODEL 8
REMARK VINA RESULT:      -7.6      2.208      3.001
REMARK  Name = 
REMARK  6 active torsions:
REMARK  status: ('A' for Active; 'I' for Inactive)
REMARK    1  A    between atoms: C_2  and  C_3
REMARK    2  A    between atoms: C_3  and  N_4
REMARK    3  A    between atoms: N_4  and  C_5
REMARK    4  A    between atoms: C_5  and  C_6
REMARK    5  A    between atoms: N_13  and  C_14
REMARK    6  A    between atoms: C_17  and  C_18
REMARK                            x       y       z     vdW  Elec       q    Type
REMARK                         _______ _______ _______ _____ _____    ______ ____
ROOT
ATOM      1  O   UNL     1       1.104   4.670  19.660  0.00  0.00    +0.000 OA
ATOM      2  C   UNL     1       2.267   4.937  19.954  0.00  0.00    +0.000 C 
ATOM      3  N   UNL     1       2.862   6.185  19.880  0.00  0.00    +0.000 N 
ATOM      4  H   UNL     1       3.870   6.222  19.982  0.00  0.00    +0.000 HD
ENDROOT
BRANCH   3   5
ATOM      5  C   UNL     1       2.223   7.415  19.636  0.00  0.00    +0.000 A 
ATOM      6  C   UNL     1       2.208   8.048  18.392  0.00  0.00    +0.000 A 
ATOM      7  C   UNL     1       1.494   9.236  18.208  0.00  0.00    +0.000 A 
ATOM      8  C   UNL     1       0.784   9.811  19.268  0.00  0.00    +0.000 A 
ATOM      9  C   UNL     1       0.775   9.161  20.506  0.00  0.00    +0.000 A 
ATOM     10  C   UNL     1       1.512   7.989  20.695  0.00  0.00    +0.000 A 
BRANCH   8  11
ATOM     11  C   UNL     1      -0.049  11.016  18.997  0.00  0.00    +0.000 C 
ATOM     12  O   UNL     1      -1.127  10.829  18.432  0.00  0.00    +0.000 OA
ATOM     13  N   UNL     1       0.372  12.284  19.400  0.00  0.00    +0.000 N 
ATOM     14  C   UNL     1      -0.618  13.361  19.439  0.00  0.00    +0.000 C 
ATOM     15  C   UNL     1      -0.142  14.587  18.670  0.00  0.00    +0.000 C 
ATOM     16  C   UNL     1       1.227  15.042  19.163  0.00  0.00    +0.000 C 
ATOM     17  C   UNL     1       2.230  13.896  19.087  0.00  0.00    +0.000 C 
ATOM     18  C   UNL     1       1.726  12.655  19.820  0.00  0.00    +0.000 C 
ENDBRANCH   8  11
ENDBRANCH   3   5
BRANCH   2  19
ATOM     19  C   UNL     1       3.242   3.832  20.382  0.00  0.00    +0.000 C 
BRANCH  19  20
ATOM     20  N   UNL     1       4.073   3.390  19.250  0.00  0.00    +0.000 NA
ATOM     21  H   UNL     1       3.535   3.535  18.392  0.00  0.00    +0.000 HD
BRANCH  20  22
ATOM     22  C   UNL     1       5.310   4.162  19.149  0.00  0.00    +0.000 C 
BRANCH  22  23
ATOM     23  C   UNL     1       5.736   4.348  17.714  0.00  0.00    +0.000 A 
ATOM     24  C   UNL     1       7.067   4.662  17.402  0.00  0.00    +0.000 A 
ATOM     25  C   UNL     1       7.470   4.792  16.070  0.00  0.00    +0.000 A 
ATOM     26  C   UNL     1       6.541   4.617  15.046  0.00  0.00    +0.000 A 
ATOM     27 CL   UNL     1       7.044   4.764  13.405  0.00  0.00    +0.000 Cl
ATOM     28  C   UNL     1       5.214   4.315  15.339  0.00  0.00    +0.000 A 
ATOM     29  C   UNL     1       4.813   4.181  16.667  0.00  0.00    +0.000 A 
ENDBRANCH  22  23
ENDBRANCH  20  22
ENDBRANCH  19  20
ENDBRANCH   2  19
TORSDOF 6
ENDMDL
MODEL 9
REMARK VINA RESULT:      -7.5      5.061      8.074
REMARK  Name = 
REMARK  6 active torsions:
REMARK  status: ('A' for Active; 'I' for Inactive)
REMARK    1  A    between atoms: C_2  and  C_3
REMARK    2  A    between atoms: C_3  and  N_4
REMARK    3  A    between atoms: N_4  and  C_5
REMARK    4  A    between atoms: C_5  and  C_6
REMARK    5  A    between atoms: N_13  and  C_14
REMARK    6  A    between atoms: C_17  and  C_18
REMARK                            x       y       z     vdW  Elec       q    Type
REMARK                         _______ _______ _______ _____ _____    ______ ____
ROOT
ATOM      1  O   UNL     1       8.420   7.403  18.863  0.00  0.00    +0.000 OA
ATOM      2  C   UNL     1       8.003   8.197  18.023  0.00  0.00    +0.000 C 
ATOM      3  N   UNL     1       6.942   7.990  17.159  0.00  0.00    +0.000 N 
ATOM      4  H   UNL     1       6.827   8.655  16.403  0.00  0.00    +0.000 HD
ENDROOT
BRANCH   3   5
ATOM      5  C   UNL     1       6.020   6.927  17.189  0.00  0.00    +0.000 A 
ATOM      6  C   UNL     1       6.387   5.581  17.121  0.00  0.00    +0.000 A 
ATOM      7  C   UNL     1       5.420   4.576  17.226  0.00  0.00    +0.000 A 
ATOM      8  C   UNL     1       4.070   4.902  17.399  0.00  0.00    +0.000 A 
ATOM      9  C   UNL     1       3.708   6.250  17.497  0.00  0.00    +0.000 A 
ATOM     10  C   UNL     1       4.671   7.253  17.363  0.00  0.00    +0.000 A 
BRANCH   8  11
ATOM     11  C   UNL     1       3.092   3.798  17.614  0.00  0.00    +0.000 C 
ATOM     12  O   UNL     1       2.569   3.319  16.608  0.00  0.00    +0.000 OA
ATOM     13  N   UNL     1       2.821   3.322  18.897  0.00  0.00    +0.000 N 
ATOM     14  C   UNL     1       2.149   2.028  19.025  0.00  0.00    +0.000 C 
ATOM     15  C   UNL     1       0.923   2.120  19.926  0.00  0.00    +0.000 C 
ATOM     16  C   UNL     1       1.286   2.720  21.280  0.00  0.00    +0.000 C 
ATOM     17  C   UNL     1       1.965   4.073  21.099  0.00  0.00    +0.000 C 
ATOM     18  C   UNL     1       3.164   3.982  20.158  0.00  0.00    +0.000 C 
ENDBRANCH   8  11
ENDBRANCH   3   5
BRANCH   2  19
ATOM     19  C   UNL     1       8.715   9.537  17.790  0.00  0.00    +0.000 C 
BRANCH  19  20
ATOM     20  N   UNL     1       9.117  10.152  19.066  0.00  0.00    +0.000 NA
ATOM     21  H   UNL     1       9.344   9.399  19.720  0.00  0.00    +0.000 HD
BRANCH  20  22
ATOM     22  C   UNL     1      10.302  10.996  18.914  0.00  0.00    +0.000 C 
BRANCH  22  23
ATOM     23  C   UNL     1      10.281  12.164  19.868  0.00  0.00    +0.000 A 
ATOM     24  C   UNL     1      10.968  13.347  19.559  0.00  0.00    +0.000 A 
ATOM     25  C   UNL     1      10.913  14.444  20.423  0.00  0.00    +0.000 A 
ATOM     26  C   UNL     1      10.177  14.359  21.602  0.00  0.00    +0.000 A 
ATOM     27 CL   UNL     1      10.100  15.718  22.659  0.00  0.00    +0.000 Cl
ATOM     28  C   UNL     1       9.498  13.189  21.929  0.00  0.00    +0.000 A 
ATOM     29  C   UNL     1       9.550  12.095  21.066  0.00  0.00    +0.000 A 
ENDBRANCH  22  23
ENDBRANCH  20  22
ENDBRANCH  19  20
ENDBRANCH   2  19
TORSDOF 6
ENDMDL
