MODEL 1
REMARK VINA RESULT:      -7.8      0.000      0.000
REMARK  Name = 
REMARK  9 active torsions:
REMARK  status: ('A' for Active; 'I' for Inactive)
REMARK    1  A    between atoms: C_1  and  O_2
REMARK    2  A    between atoms: O_2  and  C_3
REMARK    3  A    between atoms: C_6  and  C_7
REMARK    4  A    between atoms: N_9  and  C_10
REMARK    5  A    between atoms: C_15  and  C_16
REMARK    6  A    between atoms: N_18  and  C_19
REMARK    7  A    between atoms: C_19  and  C_20
REMARK    8  A    between atoms: C_20  and  C_21
REMARK    9  A    between atoms: C_21  and  O_23
REMARK                            x       y       z     vdW  Elec       q    Type
REMARK                         _______ _______ _______ _____ _____    ______ ____
ROOT
ATOM      1  C   UNL     1       2.550   4.348  18.072  0.00  0.00    +0.000 A 
ATOM      2  C   UNL     1       1.488   3.557  18.542  0.00  0.00    +0.000 A 
ATOM      3  C   UNL     1       1.634   2.176  18.692  0.00  0.00    +0.000 A 
ATOM      4  C   UNL     1       2.850   1.575  18.405  0.00  0.00    +0.000 A 
ATOM      5  C   UNL     1       3.919   2.351  17.952  0.00  0.00    +0.000 A 
ATOM      6  C   UNL     1       3.788   3.742  17.770  0.00  0.00    +0.000 A 
ENDROOT
BRANCH   1   9
ATOM      7  C   UNL     1       2.307   6.477  19.207  0.00  0.00    +0.000 C 
ATOM      8  O   UNL     1       2.401   5.963  20.318  0.00  0.00    +0.000 OA
ATOM      9  N   UNL     1       2.315   5.748  18.021  0.00  0.00    +0.000 N 
ATOM     10  H   UNL     1       2.847   6.225  17.303  0.00  0.00    +0.000 HD
BRANCH   7  14
ATOM     11  C   UNL     1       1.235  10.632  18.855  0.00  0.00    +0.000 A 
ATOM     12  C   UNL     1       0.978   9.912  20.021  0.00  0.00    +0.000 A 
ATOM     13  C   UNL     1       1.401   8.587  20.148  0.00  0.00    +0.000 A 
ATOM     14  C   UNL     1       2.065   7.950  19.092  0.00  0.00    +0.000 A 
ATOM     15  C   UNL     1       2.343   8.680  17.928  0.00  0.00    +0.000 A 
ATOM     16  C   UNL     1       1.932  10.019  17.814  0.00  0.00    +0.000 A 
BRANCH  11  18
ATOM     17  C   UNL     1      -0.706  11.995  18.820  0.00  0.00    +0.000 C 
ATOM     18  O   UNL     1       0.711  11.893  18.836  0.00  0.00    +0.000 OA
ENDBRANCH  11  18
ENDBRANCH   7  14
ENDBRANCH   1   9
BRANCH   6  19
ATOM     19  C   UNL     1       5.051   4.448  17.385  0.00  0.00    +0.000 C 
ATOM     20  O   UNL     1       5.026   5.286  16.492  0.00  0.00    +0.000 OA
ATOM     21  N   UNL     1       6.200   4.152  18.076  0.00  0.00    +0.000 N 
ATOM     22  H   UNL     1       6.120   3.608  18.927  0.00  0.00    +0.000 HD
BRANCH  21  23
ATOM     23  C   UNL     1       7.458   4.820  17.794  0.00  0.00    +0.000 C 
BRANCH  23  24
ATOM     24  C   UNL     1       7.657   6.036  18.689  0.00  0.00    +0.000 C 
BRANCH  24  25
ATOM     25  C   UNL     1       7.715   7.301  17.873  0.00  0.00    +0.000 C 
ATOM     26  O   UNL     1       8.217   8.354  18.234  0.00  0.00    +0.000 OA
BRANCH  25  27
ATOM     27  O   UNL     1       7.115   7.165  16.667  0.00  0.00    +0.000 OA
ATOM     28  H   UNL     1       7.744   7.086  15.923  0.00  0.00    +0.000 HD
ENDBRANCH  25  27
ENDBRANCH  24  25
ENDBRANCH  23  24
ENDBRANCH  21  23
ENDBRANCH   6  19
TORSDOF 8
ENDMDL
MODEL 2
REMARK VINA RESULT:      -7.7      1.222      1.659
REMARK  Name = 
REMARK  9 active torsions:
REMARK  status: ('A' for Active; 'I' for Inactive)
REMARK    1  A    between atoms: C_1  and  O_2
REMARK    2  A    between atoms: O_2  and  C_3
REMARK    3  A    between atoms: C_6  and  C_7
REMARK    4  A    between atoms: N_9  and  C_10
REMARK    5  A    between atoms: C_15  and  C_16
REMARK    6  A    between atoms: N_18  and  C_19
REMARK    7  A    between atoms: C_19  and  C_20
REMARK    8  A    between atoms: C_20  and  C_21
REMARK    9  A    between atoms: C_21  and  O_23
REMARK                            x       y       z     vdW  Elec       q    Type
REMARK                         _______ _______ _______ _____ _____    ______ ____
ROOT
ATOM      1  C   UNL     1       2.449   4.603  17.856  0.00  0.00    +0.000 A 
ATOM      2  C   UNL     1       1.605   3.627  18.411  0.00  0.00    +0.000 A 
ATOM      3  C   UNL     1       1.994   2.286  18.461  0.00  0.00    +0.000 A 
ATOM      4  C   UNL     1       3.242   1.911  17.986  0.00  0.00    +0.000 A 
ATOM      5  C   UNL     1       4.097   2.873  17.445  0.00  0.00    +0.000 A 
ATOM      6  C   UNL     1       3.716   4.227  17.362  0.00  0.00    +0.000 A 
ENDROOT
BRANCH   1   9
ATOM      7  C   UNL     1       2.369   6.747  18.985  0.00  0.00    +0.000 C 
ATOM      8  O   UNL     1       3.023   6.335  19.939  0.00  0.00    +0.000 OA
ATOM      9  N   UNL     1       1.983   5.944  17.916  0.00  0.00    +0.000 N 
ATOM     10  H   UNL     1       2.061   6.442  17.038  0.00  0.00    +0.000 HD
BRANCH   7  14
ATOM     11  C   UNL     1       1.262  10.907  19.028  0.00  0.00    +0.000 A 
ATOM     12  C   UNL     1       1.870  10.329  17.915  0.00  0.00    +0.000 A 
ATOM     13  C   UNL     1       2.153   8.962  17.886  0.00  0.00    +0.000 A 
ATOM     14  C   UNL     1       1.857   8.154  18.992  0.00  0.00    +0.000 A 
ATOM     15  C   UNL     1       1.225   8.730  20.102  0.00  0.00    +0.000 A 
ATOM     16  C   UNL     1       0.926  10.102  20.117  0.00  0.00    +0.000 A 
BRANCH  11  18
ATOM     17  C   UNL     1      -0.051  12.804  19.583  0.00  0.00    +0.000 C 
ATOM     18  O   UNL     1       1.101  12.261  18.951  0.00  0.00    +0.000 OA
ENDBRANCH  11  18
ENDBRANCH   7  14
ENDBRANCH   1   9
BRANCH   6  19
ATOM     19  C   UNL     1       4.783   5.151  16.860  0.00  0.00    +0.000 C 
ATOM     20  O   UNL     1       5.059   5.161  15.666  0.00  0.00    +0.000 OA
ATOM     21  N   UNL     1       5.396   5.989  17.758  0.00  0.00    +0.000 N 
ATOM     22  H   UNL     1       4.991   6.080  18.681  0.00  0.00    +0.000 HD
BRANCH  21  23
ATOM     23  C   UNL     1       6.411   6.943  17.347  0.00  0.00    +0.000 C 
BRANCH  23  24
ATOM     24  C   UNL     1       7.720   6.720  18.092  0.00  0.00    +0.000 C 
BRANCH  24  25
ATOM     25  C   UNL     1       7.660   5.465  18.923  0.00  0.00    +0.000 C 
ATOM     26  O   UNL     1       7.459   5.420  20.127  0.00  0.00    +0.000 OA
BRANCH  25  27
ATOM     27  O   UNL     1       7.880   4.348  18.188  0.00  0.00    +0.000 OA
ATOM     28  H   UNL     1       8.728   4.360  17.703  0.00  0.00    +0.000 HD
ENDBRANCH  25  27
ENDBRANCH  24  25
ENDBRANCH  23  24
ENDBRANCH  21  23
ENDBRANCH   6  19
TORSDOF 8
ENDMDL
MODEL 3
REMARK VINA RESULT:      -7.6      2.311      4.268
REMARK  Name = 
REMARK  9 active torsions:
REMARK  status: ('A' for Active; 'I' for Inactive)
REMARK    1  A    between atoms: C_1  and  O_2
REMARK    2  A    between atoms: O_2  and  C_3
REMARK    3  A    between atoms: C_6  and  C_7
REMARK    4  A    between atoms: N_9  and  C_10
REMARK    5  A    between atoms: C_15  and  C_16
REMARK    6  A    between atoms: N_18  and  C_19
REMARK    7  A    between atoms: C_19  and  C_20
REMARK    8  A    between atoms: C_20  and  C_21
REMARK    9  A    between atoms: C_21  and  O_23
REMARK                            x       y       z     vdW  Elec       q    Type
REMARK                         _______ _______ _______ _____ _____    ______ ____
ROOT
ATOM      1  C   UNL     1       4.986   5.864  16.936  0.00  0.00    +0.000 A 
ATOM      2  C   UNL     1       5.099   6.153  15.565  0.00  0.00    +0.000 A 
ATOM      3  C   UNL     1       5.695   5.245  14.687  0.00  0.00    +0.000 A 
ATOM      4  C   UNL     1       6.156   4.026  15.162  0.00  0.00    +0.000 A 
ATOM      5  C   UNL     1       6.037   3.720  16.519  0.00  0.00    +0.000 A 
ATOM      6  C   UNL     1       5.461   4.630  17.427  0.00  0.00    +0.000 A 
ENDROOT
BRANCH   1   9
ATOM      7  C   UNL     1       2.976   6.598  18.075  0.00  0.00    +0.000 C 
ATOM      8  O   UNL     1       2.322   5.646  17.660  0.00  0.00    +0.000 OA
ATOM      9  N   UNL     1       4.304   6.827  17.726  0.00  0.00    +0.000 N 
ATOM     10  H   UNL     1       4.840   7.155  18.521  0.00  0.00    +0.000 HD
BRANCH   7  14
ATOM     11  C   UNL     1       0.754   9.369  20.510  0.00  0.00    +0.000 A 
ATOM     12  C   UNL     1       1.243   8.172  21.033  0.00  0.00    +0.000 A 
ATOM     13  C   UNL     1       2.028   7.320  20.252  0.00  0.00    +0.000 A 
ATOM     14  C   UNL     1       2.311   7.642  18.918  0.00  0.00    +0.000 A 
ATOM     15  C   UNL     1       1.838   8.854  18.399  0.00  0.00    +0.000 A 
ATOM     16  C   UNL     1       1.066   9.716  19.195  0.00  0.00    +0.000 A 
BRANCH  11  18
ATOM     17  C   UNL     1      -0.135   9.606  22.696  0.00  0.00    +0.000 C 
ATOM     18  O   UNL     1      -0.051  10.075  21.357  0.00  0.00    +0.000 OA
ENDBRANCH  11  18
ENDBRANCH   7  14
ENDBRANCH   1   9
BRANCH   6  19
ATOM     19  C   UNL     1       5.307   4.112  18.824  0.00  0.00    +0.000 C 
ATOM     20  O   UNL     1       5.854   4.699  19.749  0.00  0.00    +0.000 OA
ATOM     21  N   UNL     1       4.519   3.005  19.025  0.00  0.00    +0.000 N 
ATOM     22  H   UNL     1       3.936   2.687  18.261  0.00  0.00    +0.000 HD
BRANCH  21  23
ATOM     23  C   UNL     1       4.284   2.462  20.351  0.00  0.00    +0.000 C 
BRANCH  23  24
ATOM     24  C   UNL     1       2.846   2.690  20.799  0.00  0.00    +0.000 C 
BRANCH  24  25
ATOM     25  C   UNL     1       1.910   2.704  19.619  0.00  0.00    +0.000 C 
ATOM     26  O   UNL     1       1.742   1.782  18.836  0.00  0.00    +0.000 OA
BRANCH  25  27
ATOM     27  O   UNL     1       1.264   3.887  19.486  0.00  0.00    +0.000 OA
ATOM     28  H   UNL     1       1.150   4.169  18.558  0.00  0.00    +0.000 HD
ENDBRANCH  25  27
ENDBRANCH  24  25
ENDBRANCH  23  24
ENDBRANCH  21  23
ENDBRANCH   6  19
TORSDOF 8
ENDMDL
MODEL 4
REMARK VINA RESULT:      -7.6      2.445      4.568
REMARK  Name = 
REMARK  9 active torsions:
REMARK  status: ('A' for Active; 'I' for Inactive)
REMARK    1  A    between atoms: C_1  and  O_2
REMARK    2  A    between atoms: O_2  and  C_3
REMARK    3  A    between atoms: C_6  and  C_7
REMARK    4  A    between atoms: N_9  and  C_10
REMARK    5  A    between atoms: C_15  and  C_16
REMARK    6  A    between atoms: N_18  and  C_19
REMARK    7  A    between atoms: C_19  and  C_20
REMARK    8  A    between atoms: C_20  and  C_21
REMARK    9  A    between atoms: C_21  and  O_23
REMARK                            x       y       z     vdW  Elec       q    Type
REMARK                         _______ _______ _______ _____ _____    ______ ____
ROOT
ATOM      1  C   UNL     1       3.983   6.031  17.767  0.00  0.00    +0.000 A 
ATOM      2  C   UNL     1       5.048   6.745  17.192  0.00  0.00    +0.000 A 
ATOM      3  C   UNL     1       5.856   6.163  16.212  0.00  0.00    +0.000 A 
ATOM      4  C   UNL     1       5.589   4.874  15.773  0.00  0.00    +0.000 A 
ATOM      5  C   UNL     1       4.524   4.159  16.325  0.00  0.00    +0.000 A 
ATOM      6  C   UNL     1       3.711   4.717  17.332  0.00  0.00    +0.000 A 
ENDROOT
BRANCH   1   9
ATOM      7  C   UNL     1       2.464   7.851  18.277  0.00  0.00    +0.000 C 
ATOM      8  O   UNL     1       2.546   8.316  17.144  0.00  0.00    +0.000 OA
ATOM      9  N   UNL     1       3.186   6.740  18.705  0.00  0.00    +0.000 N 
ATOM     10  H   UNL     1       2.620   6.141  19.294  0.00  0.00    +0.000 HD
BRANCH   7  14
ATOM     11  C   UNL     1       0.340  10.150  21.233  0.00  0.00    +0.000 A 
ATOM     12  C   UNL     1       0.391  10.552  19.899  0.00  0.00    +0.000 A 
ATOM     13  C   UNL     1       1.018   9.756  18.938  0.00  0.00    +0.000 A 
ATOM     14  C   UNL     1       1.634   8.553  19.306  0.00  0.00    +0.000 A 
ATOM     15  C   UNL     1       1.564   8.138  20.643  0.00  0.00    +0.000 A 
ATOM     16  C   UNL     1       0.915   8.934  21.602  0.00  0.00    +0.000 A 
BRANCH  11  18
ATOM     17  C   UNL     1      -0.986  10.515  23.166  0.00  0.00    +0.000 C 
ATOM     18  O   UNL     1      -0.244  11.050  22.078  0.00  0.00    +0.000 OA
ENDBRANCH  11  18
ENDBRANCH   7  14
ENDBRANCH   1   9
BRANCH   6  19
ATOM     19  C   UNL     1       2.548   3.868  17.742  0.00  0.00    +0.000 C 
ATOM     20  O   UNL     1       1.491   3.956  17.129  0.00  0.00    +0.000 OA
ATOM     21  N   UNL     1       2.718   2.986  18.780  0.00  0.00    +0.000 N 
ATOM     22  H   UNL     1       3.659   2.813  19.112  0.00  0.00    +0.000 HD
BRANCH  21  23
ATOM     23  C   UNL     1       1.654   2.098  19.215  0.00  0.00    +0.000 C 
BRANCH  23  24
ATOM     24  C   UNL     1       0.929   2.652  20.434  0.00  0.00    +0.000 C 
BRANCH  24  25
ATOM     25  C   UNL     1       1.879   3.402  21.331  0.00  0.00    +0.000 C 
ATOM     26  O   UNL     1       2.558   2.906  22.217  0.00  0.00    +0.000 OA
BRANCH  25  27
ATOM     27  O   UNL     1       1.894   4.731  21.070  0.00  0.00    +0.000 OA
ATOM     28  H   UNL     1       2.787   5.084  20.889  0.00  0.00    +0.000 HD
ENDBRANCH  25  27
ENDBRANCH  24  25
ENDBRANCH  23  24
ENDBRANCH  21  23
ENDBRANCH   6  19
TORSDOF 8
ENDMDL
MODEL 5
REMARK VINA RESULT:      -7.6      2.587      4.554
REMARK  Name = 
REMARK  9 active torsions:
REMARK  status: ('A' for Active; 'I' for Inactive)
REMARK    1  A    between atoms: C_1  and  O_2
REMARK    2  A    between atoms: O_2  and  C_3
REMARK    3  A    between atoms: C_6  and  C_7
REMARK    4  A    between atoms: N_9  and  C_10
REMARK    5  A    between atoms: C_15  and  C_16
REMARK    6  A    between atoms: N_18  and  C_19
REMARK    7  A    between atoms: C_19  and  C_20
REMARK    8  A    between atoms: C_20  and  C_21
REMARK    9  A    between atoms: C_21  and  O_23
REMARK                            x       y       z     vdW  Elec       q    Type
REMARK                         _______ _______ _______ _____ _____    ______ ____
ROOT
ATOM      1  C   UNL     1       3.918   6.147  17.802  0.00  0.00    +0.000 A 
ATOM      2  C   UNL     1       4.978   6.828  17.180  0.00  0.00    +0.000 A 
ATOM      3  C   UNL     1       5.714   6.228  16.156  0.00  0.00    +0.000 A 
ATOM      4  C   UNL     1       5.380   4.954  15.721  0.00  0.00    +0.000 A 
ATOM      5  C   UNL     1       4.320   4.272  16.320  0.00  0.00    +0.000 A 
ATOM      6  C   UNL     1       3.578   4.848  17.371  0.00  0.00    +0.000 A 
ENDROOT
BRANCH   1   9
ATOM      7  C   UNL     1       2.395   7.942  18.383  0.00  0.00    +0.000 C 
ATOM      8  O   UNL     1       2.347   8.355  17.229  0.00  0.00    +0.000 OA
ATOM      9  N   UNL     1       3.194   6.875  18.784  0.00  0.00    +0.000 N 
ATOM     10  H   UNL     1       2.711   6.287  19.453  0.00  0.00    +0.000 HD
BRANCH   7  14
ATOM     11  C   UNL     1      -0.012   9.737  21.469  0.00  0.00    +0.000 A 
ATOM     12  C   UNL     1       0.749   8.595  21.714  0.00  0.00    +0.000 A 
ATOM     13  C   UNL     1       1.584   8.069  20.726  0.00  0.00    +0.000 A 
ATOM     14  C   UNL     1       1.647   8.666  19.460  0.00  0.00    +0.000 A 
ATOM     15  C   UNL     1       0.899   9.826  19.220  0.00  0.00    +0.000 A 
ATOM     16  C   UNL     1       0.076  10.362  20.225  0.00  0.00    +0.000 A 
BRANCH  11  18
ATOM     17  C   UNL     1      -1.016  11.501  22.696  0.00  0.00    +0.000 C 
ATOM     18  O   UNL     1      -0.833  10.107  22.496  0.00  0.00    +0.000 OA
ENDBRANCH  11  18
ENDBRANCH   7  14
ENDBRANCH   1   9
BRANCH   6  19
ATOM     19  C   UNL     1       2.407   4.036  17.832  0.00  0.00    +0.000 C 
ATOM     20  O   UNL     1       1.303   4.238  17.340  0.00  0.00    +0.000 OA
ATOM     21  N   UNL     1       2.619   3.061  18.774  0.00  0.00    +0.000 N 
ATOM     22  H   UNL     1       3.575   2.806  18.991  0.00  0.00    +0.000 HD
BRANCH  21  23
ATOM     23  C   UNL     1       1.547   2.203  19.245  0.00  0.00    +0.000 C 
BRANCH  23  24
ATOM     24  C   UNL     1       0.961   2.712  20.556  0.00  0.00    +0.000 C 
BRANCH  24  25
ATOM     25  C   UNL     1       2.015   3.393  21.389  0.00  0.00    +0.000 C 
ATOM     26  O   UNL     1       2.202   4.599  21.448  0.00  0.00    +0.000 OA
BRANCH  25  27
ATOM     27  O   UNL     1       2.782   2.511  22.073  0.00  0.00    +0.000 OA
ATOM     28  H   UNL     1       2.346   2.149  22.869  0.00  0.00    +0.000 HD
ENDBRANCH  25  27
ENDBRANCH  24  25
ENDBRANCH  23  24
ENDBRANCH  21  23
ENDBRANCH   6  19
TORSDOF 8
ENDMDL
MODEL 6
REMARK VINA RESULT:      -7.6      1.278      1.380
REMARK  Name = 
REMARK  9 active torsions:
REMARK  status: ('A' for Active; 'I' for Inactive)
REMARK    1  A    between atoms: C_1  and  O_2
REMARK    2  A    between atoms: O_2  and  C_3
REMARK    3  A    between atoms: C_6  and  C_7
REMARK    4  A    between atoms: N_9  and  C_10
REMARK    5  A    between atoms: C_15  and  C_16
REMARK    6  A    between atoms: N_18  and  C_19
REMARK    7  A    between atoms: C_19  and  C_20
REMARK    8  A    between atoms: C_20  and  C_21
REMARK    9  A    between atoms: C_21  and  O_23
REMARK                            x       y       z     vdW  Elec       q    Type
REMARK                         _______ _______ _______ _____ _____    ______ ____
ROOT
ATOM      1  C   UNL     1       2.466   4.441  18.018  0.00  0.00    +0.000 A 
ATOM      2  C   UNL     1       1.613   3.529  18.661  0.00  0.00    +0.000 A 
ATOM      3  C   UNL     1       1.914   2.165  18.695  0.00  0.00    +0.000 A 
ATOM      4  C   UNL     1       3.086   1.703  18.114  0.00  0.00    +0.000 A 
ATOM      5  C   UNL     1       3.950   2.601  17.485  0.00  0.00    +0.000 A 
ATOM      6  C   UNL     1       3.655   3.977  17.417  0.00  0.00    +0.000 A 
ENDROOT
BRANCH   1   9
ATOM      7  C   UNL     1       2.383   6.518  19.266  0.00  0.00    +0.000 C 
ATOM      8  O   UNL     1       2.857   6.001  20.274  0.00  0.00    +0.000 OA
ATOM      9  N   UNL     1       2.099   5.811  18.102  0.00  0.00    +0.000 N 
ATOM     10  H   UNL     1       2.342   6.349  17.278  0.00  0.00    +0.000 HD
BRANCH   7  14
ATOM     11  C   UNL     1       0.865  10.546  19.363  0.00  0.00    +0.000 A 
ATOM     12  C   UNL     1       0.827   9.728  20.491  0.00  0.00    +0.000 A 
ATOM     13  C   UNL     1       1.392   8.452  20.466  0.00  0.00    +0.000 A 
ATOM     14  C   UNL     1       1.982   7.961  19.294  0.00  0.00    +0.000 A 
ATOM     15  C   UNL     1       2.041   8.791  18.167  0.00  0.00    +0.000 A 
ATOM     16  C   UNL     1       1.488  10.081  18.204  0.00  0.00    +0.000 A 
BRANCH  11  18
ATOM     17  C   UNL     1       0.367  12.404  20.751  0.00  0.00    +0.000 C 
ATOM     18  O   UNL     1       0.220  11.741  19.502  0.00  0.00    +0.000 OA
ENDBRANCH  11  18
ENDBRANCH   7  14
ENDBRANCH   1   9
BRANCH   6  19
ATOM     19  C   UNL     1       4.731   4.822  16.807  0.00  0.00    +0.000 C 
ATOM     20  O   UNL     1       5.039   4.651  15.634  0.00  0.00    +0.000 OA
ATOM     21  N   UNL     1       5.316   5.792  17.582  0.00  0.00    +0.000 N 
ATOM     22  H   UNL     1       4.885   6.020  18.470  0.00  0.00    +0.000 HD
BRANCH  21  23
ATOM     23  C   UNL     1       6.337   6.681  17.057  0.00  0.00    +0.000 C 
BRANCH  23  24
ATOM     24  C   UNL     1       7.605   6.634  17.900  0.00  0.00    +0.000 C 
BRANCH  24  25
ATOM     25  C   UNL     1       7.590   5.448  18.829  0.00  0.00    +0.000 C 
ATOM     26  O   UNL     1       7.336   5.486  20.023  0.00  0.00    +0.000 OA
BRANCH  25  27
ATOM     27  O   UNL     1       7.920   4.295  18.199  0.00  0.00    +0.000 OA
ATOM     28  H   UNL     1       8.267   3.606  18.799  0.00  0.00    +0.000 HD
ENDBRANCH  25  27
ENDBRANCH  24  25
ENDBRANCH  23  24
ENDBRANCH  21  23
ENDBRANCH   6  19
TORSDOF 8
ENDMDL
MODEL 7
REMARK VINA RESULT:      -7.5      2.226      4.353
REMARK  Name = 
REMARK  9 active torsions:
REMARK  status: ('A' for Active; 'I' for Inactive)
REMARK    1  A    between atoms: C_1  and  O_2
REMARK    2  A    between atoms: O_2  and  C_3
REMARK    3  A    between atoms: C_6  and  C_7
REMARK    4  A    between atoms: N_9  and  C_10
REMARK    5  A    between atoms: C_15  and  C_16
REMARK    6  A    between atoms: N_18  and  C_19
REMARK    7  A    between atoms: C_19  and  C_20
REMARK    8  A    between atoms: C_20  and  C_21
REMARK    9  A    between atoms: C_21  and  O_23
REMARK                            x       y       z     vdW  Elec       q    Type
REMARK                         _______ _______ _______ _____ _____    ______ ____
ROOT
ATOM      1  C   UNL     1       4.991   5.783  16.742  0.00  0.00    +0.000 A 
ATOM      2  C   UNL     1       5.174   6.093  15.384  0.00  0.00    +0.000 A 
ATOM      3  C   UNL     1       5.862   5.222  14.536  0.00  0.00    +0.000 A 
ATOM      4  C   UNL     1       6.347   4.019  15.027  0.00  0.00    +0.000 A 
ATOM      5  C   UNL     1       6.159   3.691  16.371  0.00  0.00    +0.000 A 
ATOM      6  C   UNL     1       5.489   4.565  17.251  0.00  0.00    +0.000 A 
ENDROOT
BRANCH   1   9
ATOM      7  C   UNL     1       2.955   6.329  17.941  0.00  0.00    +0.000 C 
ATOM      8  O   UNL     1       2.421   5.266  17.636  0.00  0.00    +0.000 OA
ATOM      9  N   UNL     1       4.220   6.706  17.498  0.00  0.00    +0.000 N 
ATOM     10  H   UNL     1       4.742   7.167  18.234  0.00  0.00    +0.000 HD
BRANCH   7  14
ATOM     11  C   UNL     1       1.070   9.457  20.220  0.00  0.00    +0.000 A 
ATOM     12  C   UNL     1       1.289   9.588  18.849  0.00  0.00    +0.000 A 
ATOM     13  C   UNL     1       1.831   8.535  18.110  0.00  0.00    +0.000 A 
ATOM     14  C   UNL     1       2.192   7.338  18.741  0.00  0.00    +0.000 A 
ATOM     15  C   UNL     1       1.952   7.198  20.115  0.00  0.00    +0.000 A 
ATOM     16  C   UNL     1       1.389   8.254  20.850  0.00  0.00    +0.000 A 
BRANCH  11  18
ATOM     17  C   UNL     1       0.210  11.655  19.984  0.00  0.00    +0.000 C 
ATOM     18  O   UNL     1       0.598  10.583  20.832  0.00  0.00    +0.000 OA
ENDBRANCH  11  18
ENDBRANCH   7  14
ENDBRANCH   1   9
BRANCH   6  19
ATOM     19  C   UNL     1       5.272   4.023  18.630  0.00  0.00    +0.000 C 
ATOM     20  O   UNL     1       5.876   4.519  19.574  0.00  0.00    +0.000 OA
ATOM     21  N   UNL     1       4.369   3.003  18.796  0.00  0.00    +0.000 N 
ATOM     22  H   UNL     1       3.758   2.774  18.021  0.00  0.00    +0.000 HD
BRANCH  21  23
ATOM     23  C   UNL     1       4.069   2.449  20.104  0.00  0.00    +0.000 C 
BRANCH  23  24
ATOM     24  C   UNL     1       2.828   3.090  20.710  0.00  0.00    +0.000 C 
BRANCH  24  25
ATOM     25  C   UNL     1       1.600   2.757  19.903  0.00  0.00    +0.000 C 
ATOM     26  O   UNL     1       1.550   1.945  18.992  0.00  0.00    +0.000 OA
BRANCH  25  27
ATOM     27  O   UNL     1       0.522   3.486  20.278  0.00  0.00    +0.000 OA
ATOM     28  H   UNL     1       0.060   3.914  19.532  0.00  0.00    +0.000 HD
ENDBRANCH  25  27
ENDBRANCH  24  25
ENDBRANCH  23  24
ENDBRANCH  21  23
ENDBRANCH   6  19
TORSDOF 8
ENDMDL
MODEL 8
REMARK VINA RESULT:      -7.5      0.939      1.030
REMARK  Name = 
REMARK  9 active torsions:
REMARK  status: ('A' for Active; 'I' for Inactive)
REMARK    1  A    between atoms: C_1  and  O_2
REMARK    2  A    between atoms: O_2  and  C_3
REMARK    3  A    between atoms: C_6  and  C_7
REMARK    4  A    between atoms: N_9  and  C_10
REMARK    5  A    between atoms: C_15  and  C_16
REMARK    6  A    between atoms: N_18  and  C_19
REMARK    7  A    between atoms: C_19  and  C_20
REMARK    8  A    between atoms: C_20  and  C_21
REMARK    9  A    between atoms: C_21  and  O_23
REMARK                            x       y       z     vdW  Elec       q    Type
REMARK                         _______ _______ _______ _____ _____    ______ ____
ROOT
ATOM      1  C   UNL     1       2.520   4.366  18.429  0.00  0.00    +0.000 A 
ATOM      2  C   UNL     1       1.359   3.583  18.551  0.00  0.00    +0.000 A 
ATOM      3  C   UNL     1       1.442   2.201  18.740  0.00  0.00    +0.000 A 
ATOM      4  C   UNL     1       2.684   1.591  18.839  0.00  0.00    +0.000 A 
ATOM      5  C   UNL     1       3.845   2.360  18.735  0.00  0.00    +0.000 A 
ATOM      6  C   UNL     1       3.786   3.751  18.521  0.00  0.00    +0.000 A 
ENDROOT
BRANCH   1   9
ATOM      7  C   UNL     1       2.116   6.524  19.458  0.00  0.00    +0.000 C 
ATOM      8  O   UNL     1       2.004   6.035  20.579  0.00  0.00    +0.000 OA
ATOM      9  N   UNL     1       2.321   5.767  18.308  0.00  0.00    +0.000 N 
ATOM     10  H   UNL     1       2.980   6.219  17.686  0.00  0.00    +0.000 HD
BRANCH   7  14
ATOM     11  C   UNL     1       1.184  10.689  18.894  0.00  0.00    +0.000 A 
ATOM     12  C   UNL     1       0.878  10.031  20.085  0.00  0.00    +0.000 A 
ATOM     13  C   UNL     1       1.256   8.701  20.282  0.00  0.00    +0.000 A 
ATOM     14  C   UNL     1       1.923   7.997  19.272  0.00  0.00    +0.000 A 
ATOM     15  C   UNL     1       2.250   8.664  18.083  0.00  0.00    +0.000 A 
ATOM     16  C   UNL     1       1.885  10.008  17.899  0.00  0.00    +0.000 A 
BRANCH  11  18
ATOM     17  C   UNL     1       0.364  12.603  20.030  0.00  0.00    +0.000 C 
ATOM     18  O   UNL     1       0.701  11.963  18.807  0.00  0.00    +0.000 OA
ENDBRANCH  11  18
ENDBRANCH   7  14
ENDBRANCH   1   9
BRANCH   6  19
ATOM     19  C   UNL     1       5.112   4.447  18.541  0.00  0.00    +0.000 C 
ATOM     20  O   UNL     1       5.346   5.273  19.415  0.00  0.00    +0.000 OA
ATOM     21  N   UNL     1       6.042   4.106  17.590  0.00  0.00    +0.000 N 
ATOM     22  H   UNL     1       5.869   3.283  17.026  0.00  0.00    +0.000 HD
BRANCH  21  23
ATOM     23  C   UNL     1       7.365   4.703  17.563  0.00  0.00    +0.000 C 
BRANCH  23  24
ATOM     24  C   UNL     1       7.371   6.010  16.781  0.00  0.00    +0.000 C 
BRANCH  24  25
ATOM     25  C   UNL     1       7.696   7.174  17.680  0.00  0.00    +0.000 C 
ATOM     26  O   UNL     1       7.616   8.353  17.370  0.00  0.00    +0.000 OA
BRANCH  25  27
ATOM     27  O   UNL     1       8.122   6.778  18.903  0.00  0.00    +0.000 OA
ATOM     28  H   UNL     1       8.708   7.425  19.342  0.00  0.00    +0.000 HD
ENDBRANCH  25  27
ENDBRANCH  24  25
ENDBRANCH  23  24
ENDBRANCH  21  23
ENDBRANCH   6  19
TORSDOF 8
ENDMDL
MODEL 9
REMARK VINA RESULT:      -7.4      0.903      1.026
REMARK  Name = 
REMARK  9 active torsions:
REMARK  status: ('A' for Active; 'I' for Inactive)
REMARK    1  A    between atoms: C_1  and  O_2
REMARK    2  A    between atoms: O_2  and  C_3
REMARK    3  A    between atoms: C_6  and  C_7
REMARK    4  A    between atoms: N_9  and  C_10
REMARK    5  A    between atoms: C_15  and  C_16
REMARK    6  A    between atoms: N_18  and  C_19
REMARK    7  A    between atoms: C_19  and  C_20
REMARK    8  A    between atoms: C_20  and  C_21
REMARK    9  A    between atoms: C_21  and  O_23
REMARK                            x       y       z     vdW  Elec       q    Type
REMARK                         _______ _______ _______ _____ _____    ______ ____
ROOT
ATOM      1  C   UNL     1       2.253   4.318  18.058  0.00  0.00    +0.000 A 
ATOM      2  C   UNL     1       1.256   3.521  18.647  0.00  0.00    +0.000 A 
ATOM      3  C   UNL     1       1.429   2.141  18.784  0.00  0.00    +0.000 A 
ATOM      4  C   UNL     1       2.610   1.548  18.363  0.00  0.00    +0.000 A 
ATOM      5  C   UNL     1       3.614   2.331  17.790  0.00  0.00    +0.000 A 
ATOM      6  C   UNL     1       3.453   3.720  17.619  0.00  0.00    +0.000 A 
ENDROOT
BRANCH   1   9
ATOM      7  C   UNL     1       2.360   6.490  19.129  0.00  0.00    +0.000 C 
ATOM      8  O   UNL     1       2.801   6.019  20.173  0.00  0.00    +0.000 OA
ATOM      9  N   UNL     1       2.002   5.716  18.030  0.00  0.00    +0.000 N 
ATOM     10  H   UNL     1       2.279   6.162  17.163  0.00  0.00    +0.000 HD
BRANCH   7  14
ATOM     11  C   UNL     1       1.188  10.623  18.843  0.00  0.00    +0.000 A 
ATOM     12  C   UNL     1       0.934   9.874  19.992  0.00  0.00    +0.000 A 
ATOM     13  C   UNL     1       1.388   8.558  20.099  0.00  0.00    +0.000 A 
ATOM     14  C   UNL     1       2.082   7.959  19.039  0.00  0.00    +0.000 A 
ATOM     15  C   UNL     1       2.356   8.719  17.894  0.00  0.00    +0.000 A 
ATOM     16  C   UNL     1       1.914  10.048  17.800  0.00  0.00    +0.000 A 
BRANCH  11  18
ATOM     17  C   UNL     1      -0.748  11.955  19.168  0.00  0.00    +0.000 C 
ATOM     18  O   UNL     1       0.633  11.871  18.842  0.00  0.00    +0.000 OA
ENDBRANCH  11  18
ENDBRANCH   7  14
ENDBRANCH   1   9
BRANCH   6  19
ATOM     19  C   UNL     1       4.659   4.433  17.091  0.00  0.00    +0.000 C 
ATOM     20  O   UNL     1       4.543   5.573  16.656  0.00  0.00    +0.000 OA
ATOM     21  N   UNL     1       5.872   3.792  17.147  0.00  0.00    +0.000 N 
ATOM     22  H   UNL     1       5.940   2.944  17.696  0.00  0.00    +0.000 HD
BRANCH  21  23
ATOM     23  C   UNL     1       7.097   4.428  16.694  0.00  0.00    +0.000 C 
BRANCH  23  24
ATOM     24  C   UNL     1       8.055   4.677  17.851  0.00  0.00    +0.000 C 
BRANCH  24  25
ATOM     25  C   UNL     1       7.454   5.626  18.855  0.00  0.00    +0.000 C 
ATOM     26  O   UNL     1       7.307   5.398  20.046  0.00  0.00    +0.000 OA
BRANCH  25  27
ATOM     27  O   UNL     1       7.054   6.790  18.289  0.00  0.00    +0.000 OA
ATOM     28  H   UNL     1       6.114   6.793  18.023  0.00  0.00    +0.000 HD
ENDBRANCH  25  27
ENDBRANCH  24  25
ENDBRANCH  23  24
ENDBRANCH  21  23
ENDBRANCH   6  19
TORSDOF 8
ENDMDL
