MODEL 1
REMARK VINA RESULT:      -8.4      0.000      0.000
REMARK  Name = 
REMARK  5 active torsions:
REMARK  status: ('A' for Active; 'I' for Inactive)
REMARK    1  A    between atoms: C_1  and  C_2
REMARK    2  A    between atoms: C_9  and  N_10
REMARK    3  A    between atoms: C_11  and  C_13
REMARK    4  A    between atoms: C_13  and  N_14
REMARK    5  A    between atoms: N_17  and  C_18
REMARK                            x       y       z     vdW  Elec       q    Type
REMARK                         _______ _______ _______ _____ _____    ______ ____
ROOT
ATOM      1  N   UNL     1       1.826   9.020  19.491  0.00  0.00    +0.000 N 
ATOM      2  C   UNL     1       1.032   9.782  18.640  0.00  0.00    +0.000 C 
ATOM      3  O   UNL     1       0.430   9.387  17.646  0.00  0.00    +0.000 OA
ATOM      4  H   UNL     1       2.396   9.565  20.133  0.00  0.00    +0.000 HD
ENDROOT
BRANCH   1  13
ATOM      5  C   UNL     1       3.215   2.783  17.625  0.00  0.00    +0.000 C 
ATOM      6  C   UNL     1       2.713   3.399  18.895  0.00  0.00    +0.000 A 
ATOM      7  C   UNL     1       2.370   2.635  19.945  0.00  0.00    +0.000 A 
ATOM      8  C   UNL     1       1.857   3.172  21.214  0.00  0.00    +0.000 A 
ATOM      9  O   UNL     1       1.573   2.423  22.141  0.00  0.00    +0.000 OA
ATOM     10  O   UNL     1       1.710   4.542  21.293  0.00  0.00    +0.000 OA
ATOM     11  C   UNL     1       2.045   5.372  20.206  0.00  0.00    +0.000 A 
ATOM     12  C   UNL     1       1.817   6.736  20.400  0.00  0.00    +0.000 A 
ATOM     13  C   UNL     1       2.093   7.640  19.381  0.00  0.00    +0.000 A 
ATOM     14  C   UNL     1       2.654   7.154  18.191  0.00  0.00    +0.000 A 
ATOM     15  C   UNL     1       2.879   5.775  18.009  0.00  0.00    +0.000 A 
ATOM     16  C   UNL     1       2.559   4.857  19.016  0.00  0.00    +0.000 A 
ENDBRANCH   1  13
BRANCH   2  17
ATOM     17  C   UNL     1       0.989  11.268  19.040  0.00  0.00    +0.000 C 
BRANCH  17  18
ATOM     18  N   UNL     1      -0.411  11.676  19.258  0.00  0.00    +0.000 NA
ATOM     19  C   UNL     1      -1.085  10.795  20.236  0.00  0.00    +0.000 C 
ATOM     20  C   UNL     1      -0.924  11.232  21.702  0.00  0.00    +0.000 C 
ATOM     21  N   UNL     1      -1.568  12.549  21.863  0.00  0.00    +0.000 N 
ATOM     22  C   UNL     1      -0.893  13.571  21.040  0.00  0.00    +0.000 C 
ATOM     23  C   UNL     1      -0.566  13.112  19.586  0.00  0.00    +0.000 C 
BRANCH  21  24
ATOM     24  C   UNL     1      -2.913  12.592  22.273  0.00  0.00    +0.000 A 
ATOM     25  C   UNL     1      -3.134  12.356  23.737  0.00  0.00    +0.000 A 
ATOM     26  N   UNL     1      -4.260  12.231  24.358  0.00  0.00    +0.000 NA
ATOM     27  N   UNL     1      -5.373  12.354  23.594  0.00  0.00    +0.000 N 
ATOM     28  C   UNL     1      -5.393  12.643  22.254  0.00  0.00    +0.000 A 
ATOM     29  O   UNL     1      -6.457  12.768  21.649  0.00  0.00    +0.000 OA
ATOM     30  C   UNL     1      -4.058  12.763  21.589  0.00  0.00    +0.000 A 
ATOM     31 CL   UNL     1      -4.111  12.986  19.872  0.00  0.00    +0.000 Cl
ATOM     32  H   UNL     1      -6.266  12.249  24.065  0.00  0.00    +0.000 HD
ENDBRANCH  21  24
ENDBRANCH  17  18
ENDBRANCH   2  17
TORSDOF 4
ENDMDL
MODEL 2
REMARK VINA RESULT:      -8.3      1.437      1.551
REMARK  Name = 
REMARK  5 active torsions:
REMARK  status: ('A' for Active; 'I' for Inactive)
REMARK    1  A    between atoms: C_1  and  C_2
REMARK    2  A    between atoms: C_9  and  N_10
REMARK    3  A    between atoms: C_11  and  C_13
REMARK    4  A    between atoms: C_13  and  N_14
REMARK    5  A    between atoms: N_17  and  C_18
REMARK                            x       y       z     vdW  Elec       q    Type
REMARK                         _______ _______ _______ _____ _____    ______ ____
ROOT
ATOM      1  N   UNL     1       1.291   9.085  20.045  0.00  0.00    +0.000 N 
ATOM      2  C   UNL     1       1.317   9.772  21.255  0.00  0.00    +0.000 C 
ATOM      3  O   UNL     1       1.768   9.365  22.322  0.00  0.00    +0.000 OA
ATOM      4  H   UNL     1       0.699   9.509  19.336  0.00  0.00    +0.000 HD
ENDROOT
BRANCH   1  13
ATOM      5  C   UNL     1       3.705   3.378  17.612  0.00  0.00    +0.000 C 
ATOM      6  C   UNL     1       3.090   3.772  18.921  0.00  0.00    +0.000 A 
ATOM      7  C   UNL     1       2.861   2.858  19.878  0.00  0.00    +0.000 A 
ATOM      8  C   UNL     1       2.249   3.171  21.177  0.00  0.00    +0.000 A 
ATOM      9  O   UNL     1       2.077   2.295  22.016  0.00  0.00    +0.000 OA
ATOM     10  O   UNL     1       1.880   4.485  21.388  0.00  0.00    +0.000 OA
ATOM     11  C   UNL     1       2.091   5.465  20.399  0.00  0.00    +0.000 A 
ATOM     12  C   UNL     1       1.640   6.747  20.721  0.00  0.00    +0.000 A 
ATOM     13  C   UNL     1       1.781   7.785  19.806  0.00  0.00    +0.000 A 
ATOM     14  C   UNL     1       2.431   7.521  18.592  0.00  0.00    +0.000 A 
ATOM     15  C   UNL     1       2.880   6.222  18.281  0.00  0.00    +0.000 A 
ATOM     16  C   UNL     1       2.699   5.165  19.181  0.00  0.00    +0.000 A 
ENDBRANCH   1  13
BRANCH   2  17
ATOM     17  C   UNL     1       0.662  11.162  21.163  0.00  0.00    +0.000 C 
BRANCH  17  18
ATOM     18  N   UNL     1      -0.803  11.019  21.238  0.00  0.00    +0.000 NA
ATOM     19  C   UNL     1      -1.288  11.134  22.631  0.00  0.00    +0.000 C 
ATOM     20  C   UNL     1      -1.591  12.572  23.083  0.00  0.00    +0.000 C 
ATOM     21  N   UNL     1      -2.690  13.094  22.249  0.00  0.00    +0.000 N 
ATOM     22  C   UNL     1      -2.287  13.172  20.832  0.00  0.00    +0.000 C 
ATOM     23  C   UNL     1      -1.533  11.910  20.308  0.00  0.00    +0.000 C 
BRANCH  21  24
ATOM     24  C   UNL     1      -4.011  12.950  22.712  0.00  0.00    +0.000 A 
ATOM     25  C   UNL     1      -4.133  12.473  24.129  0.00  0.00    +0.000 A 
ATOM     26  N   UNL     1      -5.210  12.152  24.767  0.00  0.00    +0.000 NA
ATOM     27  N   UNL     1      -6.367  12.287  24.076  0.00  0.00    +0.000 N 
ATOM     28  C   UNL     1      -6.483  12.775  22.799  0.00  0.00    +0.000 A 
ATOM     29  O   UNL     1      -7.584  12.892  22.264  0.00  0.00    +0.000 OA
ATOM     30  C   UNL     1      -5.200  13.117  22.110  0.00  0.00    +0.000 A 
ATOM     31 CL   UNL     1      -5.363  13.595  20.453  0.00  0.00    +0.000 Cl
ATOM     32  H   UNL     1      -7.222  12.029  24.558  0.00  0.00    +0.000 HD
ENDBRANCH  21  24
ENDBRANCH  17  18
ENDBRANCH   2  17
TORSDOF 4
ENDMDL
MODEL 3
REMARK VINA RESULT:      -8.3      2.004      2.664
REMARK  Name = 
REMARK  5 active torsions:
REMARK  status: ('A' for Active; 'I' for Inactive)
REMARK    1  A    between atoms: C_1  and  C_2
REMARK    2  A    between atoms: C_9  and  N_10
REMARK    3  A    between atoms: C_11  and  C_13
REMARK    4  A    between atoms: C_13  and  N_14
REMARK    5  A    between atoms: N_17  and  C_18
REMARK                            x       y       z     vdW  Elec       q    Type
REMARK                         _______ _______ _______ _____ _____    ______ ____
ROOT
ATOM      1  N   UNL     1       1.720   7.769  20.671  0.00  0.00    +0.000 N 
ATOM      2  C   UNL     1       1.360   9.005  20.143  0.00  0.00    +0.000 C 
ATOM      3  O   UNL     1       1.372   9.330  18.959  0.00  0.00    +0.000 OA
ATOM      4  H   UNL     1       1.834   7.762  21.681  0.00  0.00    +0.000 HD
ENDROOT
BRANCH   1  13
ATOM      5  C   UNL     1       3.420   1.757  18.371  0.00  0.00    +0.000 C 
ATOM      6  C   UNL     1       3.698   3.159  17.919  0.00  0.00    +0.000 A 
ATOM      7  C   UNL     1       4.504   3.399  16.872  0.00  0.00    +0.000 A 
ATOM      8  C   UNL     1       4.831   4.748  16.386  0.00  0.00    +0.000 A 
ATOM      9  O   UNL     1       5.563   4.902  15.416  0.00  0.00    +0.000 OA
ATOM     10  O   UNL     1       4.281   5.808  17.078  0.00  0.00    +0.000 OA
ATOM     11  C   UNL     1       3.445   5.591  18.191  0.00  0.00    +0.000 A 
ATOM     12  C   UNL     1       2.982   6.745  18.827  0.00  0.00    +0.000 A 
ATOM     13  C   UNL     1       2.168   6.644  19.948  0.00  0.00    +0.000 A 
ATOM     14  C   UNL     1       1.784   5.367  20.381  0.00  0.00    +0.000 A 
ATOM     15  C   UNL     1       2.258   4.210  19.730  0.00  0.00    +0.000 A 
ATOM     16  C   UNL     1       3.116   4.309  18.628  0.00  0.00    +0.000 A 
ENDBRANCH   1  13
BRANCH   2  17
ATOM     17  C   UNL     1       0.951  10.018  21.227  0.00  0.00    +0.000 C 
BRANCH  17  18
ATOM     18  N   UNL     1      -0.520  10.095  21.296  0.00  0.00    +0.000 NA
ATOM     19  C   UNL     1      -0.982  10.413  22.665  0.00  0.00    +0.000 C 
ATOM     20  C   UNL     1      -1.074  11.917  22.972  0.00  0.00    +0.000 C 
ATOM     21  N   UNL     1      -2.087  12.508  22.077  0.00  0.00    +0.000 N 
ATOM     22  C   UNL     1      -1.678  12.389  20.664  0.00  0.00    +0.000 C 
ATOM     23  C   UNL     1      -1.115  10.987  20.275  0.00  0.00    +0.000 C 
BRANCH  21  24
ATOM     24  C   UNL     1      -3.413  12.601  22.535  0.00  0.00    +0.000 A 
ATOM     25  C   UNL     1      -3.594  12.342  24.001  0.00  0.00    +0.000 A 
ATOM     26  N   UNL     1      -4.702  12.253  24.660  0.00  0.00    +0.000 NA
ATOM     27  N   UNL     1      -5.833  12.442  23.939  0.00  0.00    +0.000 N 
ATOM     28  C   UNL     1      -5.888  12.761  22.606  0.00  0.00    +0.000 A 
ATOM     29  O   UNL     1      -6.965  12.946  22.042  0.00  0.00    +0.000 OA
ATOM     30  C   UNL     1      -4.572  12.837  21.897  0.00  0.00    +0.000 A 
ATOM     31 CL   UNL     1      -4.675  13.101  20.188  0.00  0.00    +0.000 Cl
ATOM     32  H   UNL     1      -6.714  12.365  24.438  0.00  0.00    +0.000 HD
ENDBRANCH  21  24
ENDBRANCH  17  18
ENDBRANCH   2  17
TORSDOF 4
ENDMDL
MODEL 4
REMARK VINA RESULT:      -8.2      1.092      1.391
REMARK  Name = 
REMARK  5 active torsions:
REMARK  status: ('A' for Active; 'I' for Inactive)
REMARK    1  A    between atoms: C_1  and  C_2
REMARK    2  A    between atoms: C_9  and  N_10
REMARK    3  A    between atoms: C_11  and  C_13
REMARK    4  A    between atoms: C_13  and  N_14
REMARK    5  A    between atoms: N_17  and  C_18
REMARK                            x       y       z     vdW  Elec       q    Type
REMARK                         _______ _______ _______ _____ _____    ______ ____
ROOT
ATOM      1  N   UNL     1       1.510   8.824  19.585  0.00  0.00    +0.000 N 
ATOM      2  C   UNL     1       1.489   9.810  18.603  0.00  0.00    +0.000 C 
ATOM      3  O   UNL     1       1.913   9.713  17.455  0.00  0.00    +0.000 OA
ATOM      4  H   UNL     1       1.299   9.161  20.521  0.00  0.00    +0.000 HD
ENDROOT
BRANCH   1  13
ATOM      5  C   UNL     1       4.053   2.990  17.631  0.00  0.00    +0.000 C 
ATOM      6  C   UNL     1       3.402   3.469  18.894  0.00  0.00    +0.000 A 
ATOM      7  C   UNL     1       3.162   2.624  19.909  0.00  0.00    +0.000 A 
ATOM      8  C   UNL     1       2.515   3.023  21.168  0.00  0.00    +0.000 A 
ATOM      9  O   UNL     1       2.334   2.208  22.064  0.00  0.00    +0.000 OA
ATOM     10  O   UNL     1       2.125   4.343  21.274  0.00  0.00    +0.000 OA
ATOM     11  C   UNL     1       2.347   5.252  20.221  0.00  0.00    +0.000 A 
ATOM     12  C   UNL     1       1.873   6.547  20.438  0.00  0.00    +0.000 A 
ATOM     13  C   UNL     1       2.022   7.517  19.453  0.00  0.00    +0.000 A 
ATOM     14  C   UNL     1       2.704   7.174  18.277  0.00  0.00    +0.000 A 
ATOM     15  C   UNL     1       3.177   5.863  18.071  0.00  0.00    +0.000 A 
ATOM     16  C   UNL     1       2.987   4.872  19.042  0.00  0.00    +0.000 A 
ENDBRANCH   1  13
BRANCH   2  17
ATOM     17  C   UNL     1       0.887  11.135  19.105  0.00  0.00    +0.000 C 
BRANCH  17  18
ATOM     18  N   UNL     1      -0.396  10.866  19.780  0.00  0.00    +0.000 NA
ATOM     19  C   UNL     1      -0.698  11.895  20.799  0.00  0.00    +0.000 C 
ATOM     20  C   UNL     1      -1.451  13.122  20.260  0.00  0.00    +0.000 C 
ATOM     21  N   UNL     1      -2.766  12.673  19.765  0.00  0.00    +0.000 N 
ATOM     22  C   UNL     1      -2.614  11.740  18.633  0.00  0.00    +0.000 C 
ATOM     23  C   UNL     1      -1.523  10.645  18.845  0.00  0.00    +0.000 C 
BRANCH  21  24
ATOM     24  C   UNL     1      -3.863  12.714  20.645  0.00  0.00    +0.000 A 
ATOM     25  C   UNL     1      -3.512  12.583  22.097  0.00  0.00    +0.000 A 
ATOM     26  N   UNL     1      -4.319  12.478  23.101  0.00  0.00    +0.000 NA
ATOM     27  N   UNL     1      -5.640  12.516  22.803  0.00  0.00    +0.000 N 
ATOM     28  C   UNL     1      -6.172  12.703  21.553  0.00  0.00    +0.000 A 
ATOM     29  O   UNL     1      -7.388  12.755  21.384  0.00  0.00    +0.000 OA
ATOM     30  C   UNL     1      -5.187  12.805  20.431  0.00  0.00    +0.000 A 
ATOM     31 CL   UNL     1      -5.886  12.897  18.848  0.00  0.00    +0.000 Cl
ATOM     32  H   UNL     1      -6.288  12.424  23.579  0.00  0.00    +0.000 HD
ENDBRANCH  21  24
ENDBRANCH  17  18
ENDBRANCH   2  17
TORSDOF 4
ENDMDL
MODEL 5
REMARK VINA RESULT:      -8.1      1.770      1.998
REMARK  Name = 
REMARK  5 active torsions:
REMARK  status: ('A' for Active; 'I' for Inactive)
REMARK    1  A    between atoms: C_1  and  C_2
REMARK    2  A    between atoms: C_9  and  N_10
REMARK    3  A    between atoms: C_11  and  C_13
REMARK    4  A    between atoms: C_13  and  N_14
REMARK    5  A    between atoms: N_17  and  C_18
REMARK                            x       y       z     vdW  Elec       q    Type
REMARK                         _______ _______ _______ _____ _____    ______ ____
ROOT
ATOM      1  N   UNL     1       1.661   8.949  19.591  0.00  0.00    +0.000 N 
ATOM      2  C   UNL     1       0.962   9.691  18.644  0.00  0.00    +0.000 C 
ATOM      3  O   UNL     1       0.603   9.313  17.532  0.00  0.00    +0.000 OA
ATOM      4  H   UNL     1       2.038   9.498  20.359  0.00  0.00    +0.000 HD
ENDROOT
BRANCH   1  13
ATOM      5  C   UNL     1       3.870   2.977  17.648  0.00  0.00    +0.000 C 
ATOM      6  C   UNL     1       3.233   3.491  18.903  0.00  0.00    +0.000 A 
ATOM      7  C   UNL     1       2.929   2.659  19.913  0.00  0.00    +0.000 A 
ATOM      8  C   UNL     1       2.291   3.093  21.164  0.00  0.00    +0.000 A 
ATOM      9  O   UNL     1       2.049   2.287  22.055  0.00  0.00    +0.000 OA
ATOM     10  O   UNL     1       1.980   4.433  21.270  0.00  0.00    +0.000 OA
ATOM     11  C   UNL     1       2.271   5.330  20.224  0.00  0.00    +0.000 A 
ATOM     12  C   UNL     1       1.873   6.651  20.439  0.00  0.00    +0.000 A 
ATOM     13  C   UNL     1       2.094   7.613  19.460  0.00  0.00    +0.000 A 
ATOM     14  C   UNL     1       2.769   7.234  18.292  0.00  0.00    +0.000 A 
ATOM     15  C   UNL     1       3.165   5.897  18.087  0.00  0.00    +0.000 A 
ATOM     16  C   UNL     1       2.902   4.916  19.052  0.00  0.00    +0.000 A 
ENDBRANCH   1  13
BRANCH   2  17
ATOM     17  C   UNL     1       0.681  11.132  19.107  0.00  0.00    +0.000 C 
BRANCH  17  18
ATOM     18  N   UNL     1      -0.389  11.121  20.121  0.00  0.00    +0.000 NA
ATOM     19  C   UNL     1       0.099  11.612  21.428  0.00  0.00    +0.000 C 
ATOM     20  C   UNL     1       0.003  13.135  21.612  0.00  0.00    +0.000 C 
ATOM     21  N   UNL     1      -1.421  13.516  21.566  0.00  0.00    +0.000 N 
ATOM     22  C   UNL     1      -2.007  13.211  20.246  0.00  0.00    +0.000 C 
ATOM     23  C   UNL     1      -1.626  11.807  19.683  0.00  0.00    +0.000 C 
BRANCH  21  24
ATOM     24  C   UNL     1      -2.135  13.589  22.775  0.00  0.00    +0.000 A 
ATOM     25  C   UNL     1      -3.168  12.519  22.964  0.00  0.00    +0.000 A 
ATOM     26  N   UNL     1      -4.033  12.412  23.918  0.00  0.00    +0.000 NA
ATOM     27  N   UNL     1      -3.980  13.371  24.873  0.00  0.00    +0.000 N 
ATOM     28  C   UNL     1      -3.067  14.393  24.929  0.00  0.00    +0.000 A 
ATOM     29  O   UNL     1      -3.077  15.200  25.856  0.00  0.00    +0.000 OA
ATOM     30  C   UNL     1      -2.101  14.470  23.789  0.00  0.00    +0.000 A 
ATOM     31 CL   UNL     1      -1.053  15.850  23.810  0.00  0.00    +0.000 Cl
ATOM     32  H   UNL     1      -4.659  13.308  25.625  0.00  0.00    +0.000 HD
ENDBRANCH  21  24
ENDBRANCH  17  18
ENDBRANCH   2  17
TORSDOF 4
ENDMDL
MODEL 6
REMARK VINA RESULT:      -8.1      1.813      2.247
REMARK  Name = 
REMARK  5 active torsions:
REMARK  status: ('A' for Active; 'I' for Inactive)
REMARK    1  A    between atoms: C_1  and  C_2
REMARK    2  A    between atoms: C_9  and  N_10
REMARK    3  A    between atoms: C_11  and  C_13
REMARK    4  A    between atoms: C_13  and  N_14
REMARK    5  A    between atoms: N_17  and  C_18
REMARK                            x       y       z     vdW  Elec       q    Type
REMARK                         _______ _______ _______ _____ _____    ______ ____
ROOT
ATOM      1  N   UNL     1       1.878   8.575  19.257  0.00  0.00    +0.000 N 
ATOM      2  C   UNL     1       1.624   9.736  18.534  0.00  0.00    +0.000 C 
ATOM      3  O   UNL     1       1.901   9.945  17.357  0.00  0.00    +0.000 OA
ATOM      4  H   UNL     1       1.757   8.672  20.262  0.00  0.00    +0.000 HD
ENDROOT
BRANCH   1  13
ATOM      5  C   UNL     1       5.323   3.894  16.011  0.00  0.00    +0.000 C 
ATOM      6  C   UNL     1       4.296   3.859  17.102  0.00  0.00    +0.000 A 
ATOM      7  C   UNL     1       3.834   2.691  17.577  0.00  0.00    +0.000 A 
ATOM      8  C   UNL     1       2.817   2.583  18.633  0.00  0.00    +0.000 A 
ATOM      9  O   UNL     1       2.444   1.487  19.034  0.00  0.00    +0.000 OA
ATOM     10  O   UNL     1       2.312   3.768  19.131  0.00  0.00    +0.000 OA
ATOM     11  C   UNL     1       2.764   5.010  18.644  0.00  0.00    +0.000 A 
ATOM     12  C   UNL     1       2.148   6.132  19.204  0.00  0.00    +0.000 A 
ATOM     13  C   UNL     1       2.505   7.406  18.778  0.00  0.00    +0.000 A 
ATOM     14  C   UNL     1       3.527   7.530  17.826  0.00  0.00    +0.000 A 
ATOM     15  C   UNL     1       4.139   6.390  17.269  0.00  0.00    +0.000 A 
ATOM     16  C   UNL     1       3.749   5.104  17.663  0.00  0.00    +0.000 A 
ENDBRANCH   1  13
BRANCH   2  17
ATOM     17  C   UNL     1       0.954  10.831  19.385  0.00  0.00    +0.000 C 
BRANCH  17  18
ATOM     18  N   UNL     1      -0.465  10.489  19.593  0.00  0.00    +0.000 NA
ATOM     19  C   UNL     1      -1.045  11.250  20.722  0.00  0.00    +0.000 C 
ATOM     20  C   UNL     1      -1.624  12.621  20.334  0.00  0.00    +0.000 C 
ATOM     21  N   UNL     1      -2.746  12.400  19.403  0.00  0.00    +0.000 N 
ATOM     22  C   UNL     1      -2.279  11.769  18.153  0.00  0.00    +0.000 C 
ATOM     23  C   UNL     1      -1.284  10.585  18.364  0.00  0.00    +0.000 C 
BRANCH  21  24
ATOM     24  C   UNL     1      -4.045  12.295  19.931  0.00  0.00    +0.000 A 
ATOM     25  C   UNL     1      -4.167  12.660  21.380  0.00  0.00    +0.000 A 
ATOM     26  N   UNL     1      -5.207  12.550  22.140  0.00  0.00    +0.000 NA
ATOM     27  N   UNL     1      -6.325  12.069  21.545  0.00  0.00    +0.000 N 
ATOM     28  C   UNL     1      -6.447  11.745  20.218  0.00  0.00    +0.000 A 
ATOM     29  O   UNL     1      -7.516  11.346  19.759  0.00  0.00    +0.000 OA
ATOM     30  C   UNL     1      -5.205  11.882  19.394  0.00  0.00    +0.000 A 
ATOM     31 CL   UNL     1      -5.348  11.333  17.757  0.00  0.00    +0.000 Cl
ATOM     32  H   UNL     1      -7.148  11.967  22.130  0.00  0.00    +0.000 HD
ENDBRANCH  21  24
ENDBRANCH  17  18
ENDBRANCH   2  17
TORSDOF 4
ENDMDL
MODEL 7
REMARK VINA RESULT:      -8.1      2.383      3.191
REMARK  Name = 
REMARK  5 active torsions:
REMARK  status: ('A' for Active; 'I' for Inactive)
REMARK    1  A    between atoms: C_1  and  C_2
REMARK    2  A    between atoms: C_9  and  N_10
REMARK    3  A    between atoms: C_11  and  C_13
REMARK    4  A    between atoms: C_13  and  N_14
REMARK    5  A    between atoms: N_17  and  C_18
REMARK                            x       y       z     vdW  Elec       q    Type
REMARK                         _______ _______ _______ _____ _____    ______ ____
ROOT
ATOM      1  N   UNL     1       1.904   8.454  19.297  0.00  0.00    +0.000 N 
ATOM      2  C   UNL     1       1.465   9.595  18.634  0.00  0.00    +0.000 C 
ATOM      3  O   UNL     1       1.498   9.802  17.424  0.00  0.00    +0.000 OA
ATOM      4  H   UNL     1       1.977   8.557  20.306  0.00  0.00    +0.000 HD
ENDROOT
BRANCH   1  13
ATOM      5  C   UNL     1       3.970   2.372  17.548  0.00  0.00    +0.000 C 
ATOM      6  C   UNL     1       4.340   3.759  17.116  0.00  0.00    +0.000 A 
ATOM      7  C   UNL     1       5.333   3.965  16.236  0.00  0.00    +0.000 A 
ATOM      8  C   UNL     1       5.757   5.298  15.781  0.00  0.00    +0.000 A 
ATOM      9  O   UNL     1       6.663   5.421  14.966  0.00  0.00    +0.000 OA
ATOM     10  O   UNL     1       5.093   6.379  16.323  0.00  0.00    +0.000 OA
ATOM     11  C   UNL     1       4.057   6.198  17.261  0.00  0.00    +0.000 A 
ATOM     12  C   UNL     1       3.490   7.372  17.761  0.00  0.00    +0.000 A 
ATOM     13  C   UNL     1       2.474   7.306  18.708  0.00  0.00    +0.000 A 
ATOM     14  C   UNL     1       2.005   6.044  19.097  0.00  0.00    +0.000 A 
ATOM     15  C   UNL     1       2.587   4.867  18.585  0.00  0.00    +0.000 A 
ATOM     16  C   UNL     1       3.641   4.930  17.665  0.00  0.00    +0.000 A 
ENDBRANCH   1  13
BRANCH   2  17
ATOM     17  C   UNL     1       0.928  10.671  19.596  0.00  0.00    +0.000 C 
BRANCH  17  18
ATOM     18  N   UNL     1      -0.505  10.431  19.848  0.00  0.00    +0.000 NA
ATOM     19  C   UNL     1      -0.993  11.227  20.996  0.00  0.00    +0.000 C 
ATOM     20  C   UNL     1      -1.483  12.637  20.630  0.00  0.00    +0.000 C 
ATOM     21  N   UNL     1      -2.647  12.501  19.734  0.00  0.00    +0.000 N 
ATOM     22  C   UNL     1      -2.266  11.844  18.469  0.00  0.00    +0.000 C 
ATOM     23  C   UNL     1      -1.353  10.591  18.645  0.00  0.00    +0.000 C 
BRANCH  21  24
ATOM     24  C   UNL     1      -3.933  12.487  20.303  0.00  0.00    +0.000 A 
ATOM     25  C   UNL     1      -3.963  12.611  21.797  0.00  0.00    +0.000 A 
ATOM     26  N   UNL     1      -4.987  12.516  22.580  0.00  0.00    +0.000 NA
ATOM     27  N   UNL     1      -6.178  12.305  21.970  0.00  0.00    +0.000 N 
ATOM     28  C   UNL     1      -6.381  12.235  20.615  0.00  0.00    +0.000 A 
ATOM     29  O   UNL     1      -7.508  12.072  20.151  0.00  0.00    +0.000 OA
ATOM     30  C   UNL     1      -5.155  12.339  19.763  0.00  0.00    +0.000 A 
ATOM     31 CL   UNL     1      -5.420  12.105  18.067  0.00  0.00    +0.000 Cl
ATOM     32  H   UNL     1      -6.992  12.218  22.570  0.00  0.00    +0.000 HD
ENDBRANCH  21  24
ENDBRANCH  17  18
ENDBRANCH   2  17
TORSDOF 4
ENDMDL
MODEL 8
REMARK VINA RESULT:      -8.0      2.383      3.103
REMARK  Name = 
REMARK  5 active torsions:
REMARK  status: ('A' for Active; 'I' for Inactive)
REMARK    1  A    between atoms: C_1  and  C_2
REMARK    2  A    between atoms: C_9  and  N_10
REMARK    3  A    between atoms: C_11  and  C_13
REMARK    4  A    between atoms: C_13  and  N_14
REMARK    5  A    between atoms: N_17  and  C_18
REMARK                            x       y       z     vdW  Elec       q    Type
REMARK                         _______ _______ _______ _____ _____    ______ ____
ROOT
ATOM      1  N   UNL     1       1.914   8.916  18.415  0.00  0.00    +0.000 N 
ATOM      2  C   UNL     1       1.445   9.245  19.683  0.00  0.00    +0.000 C 
ATOM      3  O   UNL     1       1.494   8.544  20.691  0.00  0.00    +0.000 OA
ATOM      4  H   UNL     1       1.601   9.541  17.677  0.00  0.00    +0.000 HD
ENDROOT
BRANCH   1  13
ATOM      5  C   UNL     1       3.982   2.653  17.511  0.00  0.00    +0.000 C 
ATOM      6  C   UNL     1       4.525   3.993  17.117  0.00  0.00    +0.000 A 
ATOM      7  C   UNL     1       5.711   4.102  16.497  0.00  0.00    +0.000 A 
ATOM      8  C   UNL     1       6.309   5.384  16.096  0.00  0.00    +0.000 A 
ATOM      9  O   UNL     1       7.390   5.417  15.521  0.00  0.00    +0.000 OA
ATOM     10  O   UNL     1       5.598   6.524  16.409  0.00  0.00    +0.000 OA
ATOM     11  C   UNL     1       4.358   6.447  17.073  0.00  0.00    +0.000 A 
ATOM     12  C   UNL     1       3.757   7.673  17.364  0.00  0.00    +0.000 A 
ATOM     13  C   UNL     1       2.541   7.711  18.038  0.00  0.00    +0.000 A 
ATOM     14  C   UNL     1       1.919   6.496  18.360  0.00  0.00    +0.000 A 
ATOM     15  C   UNL     1       2.538   5.266  18.061  0.00  0.00    +0.000 A 
ATOM     16  C   UNL     1       3.784   5.226  17.424  0.00  0.00    +0.000 A 
ENDBRANCH   1  13
BRANCH   2  17
ATOM     17  C   UNL     1       0.781  10.633  19.729  0.00  0.00    +0.000 C 
BRANCH  17  18
ATOM     18  N   UNL     1      -0.591  10.503  20.253  0.00  0.00    +0.000 NA
ATOM     19  C   UNL     1      -0.700  11.045  21.625  0.00  0.00    +0.000 C 
ATOM     20  C   UNL     1      -1.016  12.549  21.691  0.00  0.00    +0.000 C 
ATOM     21  N   UNL     1      -2.342  12.768  21.084  0.00  0.00    +0.000 N 
ATOM     22  C   UNL     1      -2.336  12.400  19.655  0.00  0.00    +0.000 C 
ATOM     23  C   UNL     1      -1.625  11.047  19.343  0.00  0.00    +0.000 C 
BRANCH  21  24
ATOM     24  C   UNL     1      -3.472  12.762  21.922  0.00  0.00    +0.000 A 
ATOM     25  C   UNL     1      -3.214  12.300  23.325  0.00  0.00    +0.000 A 
ATOM     26  N   UNL     1      -4.079  12.091  24.262  0.00  0.00    +0.000 NA
ATOM     27  N   UNL     1      -5.371  12.347  23.940  0.00  0.00    +0.000 N 
ATOM     28  C   UNL     1      -5.812  12.844  22.741  0.00  0.00    +0.000 A 
ATOM     29  O   UNL     1      -7.004  13.076  22.552  0.00  0.00    +0.000 OA
ATOM     30  C   UNL     1      -4.764  13.052  21.693  0.00  0.00    +0.000 A 
ATOM     31 CL   UNL     1      -5.364  13.545  20.144  0.00  0.00    +0.000 Cl
ATOM     32  H   UNL     1      -6.065  12.179  24.662  0.00  0.00    +0.000 HD
ENDBRANCH  21  24
ENDBRANCH  17  18
ENDBRANCH   2  17
TORSDOF 4
ENDMDL
MODEL 9
REMARK VINA RESULT:      -8.0      1.282      1.330
REMARK  Name = 
REMARK  5 active torsions:
REMARK  status: ('A' for Active; 'I' for Inactive)
REMARK    1  A    between atoms: C_1  and  C_2
REMARK    2  A    between atoms: C_9  and  N_10
REMARK    3  A    between atoms: C_11  and  C_13
REMARK    4  A    between atoms: C_13  and  N_14
REMARK    5  A    between atoms: N_17  and  C_18
REMARK                            x       y       z     vdW  Elec       q    Type
REMARK                         _______ _______ _______ _____ _____    ______ ____
ROOT
ATOM      1  N   UNL     1       1.382   9.075  20.170  0.00  0.00    +0.000 N 
ATOM      2  C   UNL     1       0.729   9.956  19.314  0.00  0.00    +0.000 C 
ATOM      3  O   UNL     1       0.414   9.749  18.146  0.00  0.00    +0.000 OA
ATOM      4  H   UNL     1       1.731   9.501  21.025  0.00  0.00    +0.000 HD
ENDROOT
BRANCH   1  13
ATOM      5  C   UNL     1       3.416   3.360  17.426  0.00  0.00    +0.000 C 
ATOM      6  C   UNL     1       2.913   3.739  18.786  0.00  0.00    +0.000 A 
ATOM      7  C   UNL     1       2.725   2.807  19.736  0.00  0.00    +0.000 A 
ATOM      8  C   UNL     1       2.222   3.106  21.085  0.00  0.00    +0.000 A 
ATOM      9  O   UNL     1       2.084   2.213  21.912  0.00  0.00    +0.000 OA
ATOM     10  O   UNL     1       1.914   4.424  21.354  0.00  0.00    +0.000 OA
ATOM     11  C   UNL     1       2.084   5.423  20.376  0.00  0.00    +0.000 A 
ATOM     12  C   UNL     1       1.702   6.710  20.761  0.00  0.00    +0.000 A 
ATOM     13  C   UNL     1       1.809   7.766  19.864  0.00  0.00    +0.000 A 
ATOM     14  C   UNL     1       2.358   7.514  18.599  0.00  0.00    +0.000 A 
ATOM     15  C   UNL     1       2.739   6.211  18.223  0.00  0.00    +0.000 A 
ATOM     16  C   UNL     1       2.589   5.137  19.109  0.00  0.00    +0.000 A 
ENDBRANCH   1  13
BRANCH   2  17
ATOM     17  C   UNL     1       0.442  11.319  19.971  0.00  0.00    +0.000 C 
BRANCH  17  18
ATOM     18  N   UNL     1      -0.952  11.347  20.450  0.00  0.00    +0.000 NA
ATOM     19  C   UNL     1      -1.015  11.414  21.927  0.00  0.00    +0.000 C 
ATOM     20  C   UNL     1      -0.984  12.839  22.501  0.00  0.00    +0.000 C 
ATOM     21  N   UNL     1      -2.188  13.551  22.033  0.00  0.00    +0.000 N 
ATOM     22  C   UNL     1      -2.183  13.686  20.564  0.00  0.00    +0.000 C 
ATOM     23  C   UNL     1      -1.781  12.387  19.800  0.00  0.00    +0.000 C 
BRANCH  21  24
ATOM     24  C   UNL     1      -3.336  13.531  22.844  0.00  0.00    +0.000 A 
ATOM     25  C   UNL     1      -3.472  12.319  23.716  0.00  0.00    +0.000 A 
ATOM     26  N   UNL     1      -4.470  11.991  24.469  0.00  0.00    +0.000 NA
ATOM     27  N   UNL     1      -5.506  12.865  24.488  0.00  0.00    +0.000 N 
ATOM     28  C   UNL     1      -5.552  14.064  23.824  0.00  0.00    +0.000 A 
ATOM     29  O   UNL     1      -6.525  14.808  23.928  0.00  0.00    +0.000 OA
ATOM     30  C   UNL     1      -4.372  14.380  22.960  0.00  0.00    +0.000 A 
ATOM     31 CL   UNL     1      -4.518  15.829  22.023  0.00  0.00    +0.000 Cl
ATOM     32  H   UNL     1      -6.303  12.618  25.066  0.00  0.00    +0.000 HD
ENDBRANCH  21  24
ENDBRANCH  17  18
ENDBRANCH   2  17
TORSDOF 4
ENDMDL
