MODEL 1
REMARK VINA RESULT:      -9.0      0.000      0.000
REMARK  Name = 
REMARK  5 active torsions:
REMARK  status: ('A' for Active; 'I' for Inactive)
REMARK    1  A    between atoms: O_1  and  C_2
REMARK    2  A    between atoms: C_4  and  S_5
REMARK    3  A    between atoms: S_5  and  C_6
REMARK    4  A    between atoms: C_6  and  C_7
REMARK    5  A    between atoms: C_13  and  C_14
REMARK                            x       y       z     vdW  Elec       q    Type
REMARK                         _______ _______ _______ _____ _____    ______ ____
ROOT
ATOM      1  S   UNL     1       4.066   2.796  17.850  0.00  0.00    +0.000 S 
ENDROOT
BRANCH   1   4
ATOM      2  C   UNL     1       7.039   5.235  18.865  0.00  0.00    +0.000 A 
ATOM      3  N   UNL     1       6.002   4.381  19.009  0.00  0.00    +0.000 NA
ATOM      4  C   UNL     1       5.435   3.913  17.877  0.00  0.00    +0.000 A 
ATOM      5  C   UNL     1       5.963   4.338  16.674  0.00  0.00    +0.000 A 
ATOM      6  N   UNL     1       5.676   4.096  15.358  0.00  0.00    +0.000 N 
ATOM      7  C   UNL     1       6.560   4.815  14.603  0.00  0.00    +0.000 A 
ATOM      8  N   UNL     1       7.392   5.501  15.354  0.00  0.00    +0.000 NA
ATOM      9  C   UNL     1       7.029   5.213  16.644  0.00  0.00    +0.000 A 
ATOM     10  N   UNL     1       7.610   5.697  17.753  0.00  0.00    +0.000 NA
ATOM     11  H   UNL     1       4.939   3.496  15.015  0.00  0.00    +0.000 HD
BRANCH   2  12
ATOM     12  O   UNL     1       7.563   5.680  20.035  0.00  0.00    +0.000 OA
ATOM     13  H   UNL     1       7.316   6.615  19.982  0.00  0.00    +0.000 HD
ENDBRANCH   2  12
ENDBRANCH   1   4
BRANCH   1  14
ATOM     14  C   UNL     1       2.675   3.855  17.336  0.00  0.00    +0.000 C 
BRANCH  14  15
ATOM     15  C   UNL     1       2.326   4.825  18.460  0.00  0.00    +0.000 A 
ATOM     16  C   UNL     1       2.708   6.178  18.303  0.00  0.00    +0.000 A 
ATOM     17  C   UNL     1       2.451   7.127  19.295  0.00  0.00    +0.000 A 
ATOM     18  C   UNL     1       1.814   6.739  20.459  0.00  0.00    +0.000 A 
ATOM     19  F   UNL     1       1.562   7.644  21.414  0.00  0.00    +0.000 F 
ATOM     20  C   UNL     1       1.439   5.417  20.654  0.00  0.00    +0.000 A 
ATOM     21  C   UNL     1       1.695   4.435  19.668  0.00  0.00    +0.000 A 
BRANCH  21  22
ATOM     22  C   UNL     1       1.266   3.024  20.016  0.00  0.00    +0.000 C 
ATOM     23  F   UNL     1       2.257   2.096  20.040  0.00  0.00    +0.000 F 
ATOM     24  F   UNL     1       0.674   2.960  21.243  0.00  0.00    +0.000 F 
ATOM     25  F   UNL     1       0.340   2.548  19.136  0.00  0.00    +0.000 F 
ENDBRANCH  21  22
ENDBRANCH  14  15
ENDBRANCH   1  14
TORSDOF 5
ENDMDL
MODEL 2
REMARK VINA RESULT:      -8.9      1.372      2.275
REMARK  Name = 
REMARK  5 active torsions:
REMARK  status: ('A' for Active; 'I' for Inactive)
REMARK    1  A    between atoms: O_1  and  C_2
REMARK    2  A    between atoms: C_4  and  S_5
REMARK    3  A    between atoms: S_5  and  C_6
REMARK    4  A    between atoms: C_6  and  C_7
REMARK    5  A    between atoms: C_13  and  C_14
REMARK                            x       y       z     vdW  Elec       q    Type
REMARK                         _______ _______ _______ _____ _____    ______ ____
ROOT
ATOM      1  S   UNL     1       4.090   2.872  17.675  0.00  0.00    +0.000 S 
ENDROOT
BRANCH   1   4
ATOM      2  C   UNL     1       6.571   4.837  15.265  0.00  0.00    +0.000 A 
ATOM      3  N   UNL     1       5.574   4.009  15.647  0.00  0.00    +0.000 NA
ATOM      4  C   UNL     1       5.340   3.905  16.973  0.00  0.00    +0.000 A 
ATOM      5  C   UNL     1       6.131   4.653  17.822  0.00  0.00    +0.000 A 
ATOM      6  N   UNL     1       6.201   4.816  19.180  0.00  0.00    +0.000 N 
ATOM      7  C   UNL     1       7.206   5.706  19.439  0.00  0.00    +0.000 A 
ATOM      8  N   UNL     1       7.782   6.120  18.333  0.00  0.00    +0.000 NA
ATOM      9  C   UNL     1       7.123   5.472  17.321  0.00  0.00    +0.000 A 
ATOM     10  N   UNL     1       7.379   5.592  16.010  0.00  0.00    +0.000 NA
ATOM     11  H   UNL     1       5.613   4.354  19.860  0.00  0.00    +0.000 HD
BRANCH   2  12
ATOM     12  O   UNL     1       6.766   4.895  13.924  0.00  0.00    +0.000 OA
ATOM     13  H   UNL     1       6.010   5.445  13.671  0.00  0.00    +0.000 HD
ENDBRANCH   2  12
ENDBRANCH   1   4
BRANCH   1  14
ATOM     14  C   UNL     1       2.550   3.774  17.306  0.00  0.00    +0.000 C 
BRANCH  14  15
ATOM     15  C   UNL     1       2.254   4.766  18.426  0.00  0.00    +0.000 A 
ATOM     16  C   UNL     1       2.642   6.112  18.231  0.00  0.00    +0.000 A 
ATOM     17  C   UNL     1       2.433   7.080  19.217  0.00  0.00    +0.000 A 
ATOM     18  C   UNL     1       1.840   6.716  20.411  0.00  0.00    +0.000 A 
ATOM     19  F   UNL     1       1.634   7.640  21.361  0.00  0.00    +0.000 F 
ATOM     20  C   UNL     1       1.461   5.402  20.643  0.00  0.00    +0.000 A 
ATOM     21  C   UNL     1       1.668   4.401  19.665  0.00  0.00    +0.000 A 
BRANCH  21  22
ATOM     22  C   UNL     1       1.240   3.001  20.053  0.00  0.00    +0.000 C 
ATOM     23  F   UNL     1       2.224   2.065  20.057  0.00  0.00    +0.000 F 
ATOM     24  F   UNL     1       0.693   2.963  21.301  0.00  0.00    +0.000 F 
ATOM     25  F   UNL     1       0.279   2.518  19.215  0.00  0.00    +0.000 F 
ENDBRANCH  21  22
ENDBRANCH  14  15
ENDBRANCH   1  14
TORSDOF 5
ENDMDL
MODEL 3
REMARK VINA RESULT:      -8.8      1.960      2.643
REMARK  Name = 
REMARK  5 active torsions:
REMARK  status: ('A' for Active; 'I' for Inactive)
REMARK    1  A    between atoms: O_1  and  C_2
REMARK    2  A    between atoms: C_4  and  S_5
REMARK    3  A    between atoms: S_5  and  C_6
REMARK    4  A    between atoms: C_6  and  C_7
REMARK    5  A    between atoms: C_13  and  C_14
REMARK                            x       y       z     vdW  Elec       q    Type
REMARK                         _______ _______ _______ _____ _____    ______ ____
ROOT
ATOM      1  S   UNL     1       3.680   6.531  18.038  0.00  0.00    +0.000 S 
ENDROOT
BRANCH   1   4
ATOM      2  C   UNL     1       7.222   5.295  19.361  0.00  0.00    +0.000 A 
ATOM      3  N   UNL     1       5.976   5.815  19.389  0.00  0.00    +0.000 NA
ATOM      4  C   UNL     1       5.313   5.878  18.215  0.00  0.00    +0.000 A 
ATOM      5  C   UNL     1       5.958   5.403  17.090  0.00  0.00    +0.000 A 
ATOM      6  N   UNL     1       5.631   5.296  15.765  0.00  0.00    +0.000 N 
ATOM      7  C   UNL     1       6.697   4.733  15.120  0.00  0.00    +0.000 A 
ATOM      8  N   UNL     1       7.683   4.473  15.949  0.00  0.00    +0.000 NA
ATOM      9  C   UNL     1       7.235   4.887  17.177  0.00  0.00    +0.000 A 
ATOM     10  N   UNL     1       7.918   4.815  18.330  0.00  0.00    +0.000 NA
ATOM     11  H   UNL     1       4.758   5.588  15.347  0.00  0.00    +0.000 HD
BRANCH   2  12
ATOM     12  O   UNL     1       7.843   5.265  20.567  0.00  0.00    +0.000 OA
ATOM     13  H   UNL     1       7.790   6.203  20.803  0.00  0.00    +0.000 HD
ENDBRANCH   2  12
ENDBRANCH   1   4
BRANCH   1  14
ATOM     14  C   UNL     1       2.693   5.066  17.593  0.00  0.00    +0.000 C 
BRANCH  14  15
ATOM     15  C   UNL     1       2.335   4.285  18.854  0.00  0.00    +0.000 A 
ATOM     16  C   UNL     1       1.765   5.003  19.931  0.00  0.00    +0.000 A 
ATOM     17  C   UNL     1       1.432   4.371  21.132  0.00  0.00    +0.000 A 
ATOM     18  C   UNL     1       1.668   3.017  21.276  0.00  0.00    +0.000 A 
ATOM     19  F   UNL     1       1.349   2.403  22.423  0.00  0.00    +0.000 F 
ATOM     20  C   UNL     1       2.241   2.284  20.245  0.00  0.00    +0.000 A 
ATOM     21  C   UNL     1       2.594   2.901  19.022  0.00  0.00    +0.000 A 
BRANCH  21  22
ATOM     22  C   UNL     1       3.240   2.000  17.991  0.00  0.00    +0.000 C 
ATOM     23  F   UNL     1       3.676   0.798  18.450  0.00  0.00    +0.000 F 
ATOM     24  F   UNL     1       2.392   1.712  16.962  0.00  0.00    +0.000 F 
ATOM     25  F   UNL     1       4.327   2.588  17.417  0.00  0.00    +0.000 F 
ENDBRANCH  21  22
ENDBRANCH  14  15
ENDBRANCH   1  14
TORSDOF 5
ENDMDL
MODEL 4
REMARK VINA RESULT:      -8.5      0.811      1.146
REMARK  Name = 
REMARK  5 active torsions:
REMARK  status: ('A' for Active; 'I' for Inactive)
REMARK    1  A    between atoms: O_1  and  C_2
REMARK    2  A    between atoms: C_4  and  S_5
REMARK    3  A    between atoms: S_5  and  C_6
REMARK    4  A    between atoms: C_6  and  C_7
REMARK    5  A    between atoms: C_13  and  C_14
REMARK                            x       y       z     vdW  Elec       q    Type
REMARK                         _______ _______ _______ _____ _____    ______ ____
ROOT
ATOM      1  S   UNL     1       4.354   3.085  17.746  0.00  0.00    +0.000 S 
ENDROOT
BRANCH   1   4
ATOM      2  C   UNL     1       7.097   5.961  17.576  0.00  0.00    +0.000 A 
ATOM      3  N   UNL     1       6.182   5.119  18.105  0.00  0.00    +0.000 NA
ATOM      4  C   UNL     1       5.582   4.258  17.256  0.00  0.00    +0.000 A 
ATOM      5  C   UNL     1       5.956   4.305  15.927  0.00  0.00    +0.000 A 
ATOM      6  N   UNL     1       5.592   3.619  14.800  0.00  0.00    +0.000 N 
ATOM      7  C   UNL     1       6.321   4.119  13.758  0.00  0.00    +0.000 A 
ATOM      8  N   UNL     1       7.127   5.081  14.148  0.00  0.00    +0.000 NA
ATOM      9  C   UNL     1       6.907   5.206  15.495  0.00  0.00    +0.000 A 
ATOM     10  N   UNL     1       7.517   6.075  16.316  0.00  0.00    +0.000 NA
ATOM     11  H   UNL     1       4.904   2.880  14.755  0.00  0.00    +0.000 HD
BRANCH   2  12
ATOM     12  O   UNL     1       7.660   6.809  18.473  0.00  0.00    +0.000 OA
ATOM     13  H   UNL     1       8.480   7.024  18.004  0.00  0.00    +0.000 HD
ENDBRANCH   2  12
ENDBRANCH   1   4
BRANCH   1  14
ATOM     14  C   UNL     1       2.790   3.918  17.319  0.00  0.00    +0.000 C 
BRANCH  14  15
ATOM     15  C   UNL     1       2.386   4.861  18.447  0.00  0.00    +0.000 A 
ATOM     16  C   UNL     1       2.724   6.228  18.313  0.00  0.00    +0.000 A 
ATOM     17  C   UNL     1       2.416   7.156  19.312  0.00  0.00    +0.000 A 
ATOM     18  C   UNL     1       1.772   6.731  20.458  0.00  0.00    +0.000 A 
ATOM     19  F   UNL     1       1.470   7.616  21.419  0.00  0.00    +0.000 F 
ATOM     20  C   UNL     1       1.439   5.395  20.631  0.00  0.00    +0.000 A 
ATOM     21  C   UNL     1       1.747   4.434  19.639  0.00  0.00    +0.000 A 
BRANCH  21  22
ATOM     22  C   UNL     1       1.361   3.006  19.962  0.00  0.00    +0.000 C 
ATOM     23  F   UNL     1       0.743   2.819  21.157  0.00  0.00    +0.000 F 
ATOM     24  F   UNL     1       0.517   2.482  19.027  0.00  0.00    +0.000 F 
ATOM     25  F   UNL     1       2.447   2.182  19.979  0.00  0.00    +0.000 F 
ENDBRANCH  21  22
ENDBRANCH  14  15
ENDBRANCH   1  14
TORSDOF 5
ENDMDL
MODEL 5
REMARK VINA RESULT:      -8.1      1.826      3.546
REMARK  Name = 
REMARK  5 active torsions:
REMARK  status: ('A' for Active; 'I' for Inactive)
REMARK    1  A    between atoms: O_1  and  C_2
REMARK    2  A    between atoms: C_4  and  S_5
REMARK    3  A    between atoms: S_5  and  C_6
REMARK    4  A    between atoms: C_6  and  C_7
REMARK    5  A    between atoms: C_13  and  C_14
REMARK                            x       y       z     vdW  Elec       q    Type
REMARK                         _______ _______ _______ _____ _____    ______ ____
ROOT
ATOM      1  S   UNL     1       4.248   2.850  16.916  0.00  0.00    +0.000 S 
ENDROOT
BRANCH   1   4
ATOM      2  C   UNL     1       6.904   5.150  15.052  0.00  0.00    +0.000 A 
ATOM      3  N   UNL     1       5.906   4.256  15.218  0.00  0.00    +0.000 NA
ATOM      4  C   UNL     1       5.526   3.993  16.487  0.00  0.00    +0.000 A 
ATOM      5  C   UNL     1       6.181   4.662  17.502  0.00  0.00    +0.000 A 
ATOM      6  N   UNL     1       6.086   4.669  18.868  0.00  0.00    +0.000 N 
ATOM      7  C   UNL     1       7.015   5.553  19.342  0.00  0.00    +0.000 A 
ATOM      8  N   UNL     1       7.698   6.108  18.366  0.00  0.00    +0.000 NA
ATOM      9  C   UNL     1       7.188   5.561  17.217  0.00  0.00    +0.000 A 
ATOM     10  N   UNL     1       7.588   5.838  15.966  0.00  0.00    +0.000 NA
ATOM     11  H   UNL     1       5.444   4.116  19.418  0.00  0.00    +0.000 HD
BRANCH   2  12
ATOM     12  O   UNL     1       7.250   5.368  13.758  0.00  0.00    +0.000 OA
ATOM     13  H   UNL     1       7.944   6.032  13.883  0.00  0.00    +0.000 HD
ENDBRANCH   2  12
ENDBRANCH   1   4
BRANCH   1  14
ATOM     14  C   UNL     1       2.823   3.931  17.264  0.00  0.00    +0.000 C 
BRANCH  14  15
ATOM     15  C   UNL     1       2.311   3.668  18.676  0.00  0.00    +0.000 A 
ATOM     16  C   UNL     1       1.959   2.339  19.010  0.00  0.00    +0.000 A 
ATOM     17  C   UNL     1       1.457   2.015  20.273  0.00  0.00    +0.000 A 
ATOM     18  C   UNL     1       1.293   3.012  21.216  0.00  0.00    +0.000 A 
ATOM     19  F   UNL     1       0.813   2.708  22.430  0.00  0.00    +0.000 F 
ATOM     20  C   UNL     1       1.612   4.329  20.918  0.00  0.00    +0.000 A 
ATOM     21  C   UNL     1       2.116   4.685  19.644  0.00  0.00    +0.000 A 
BRANCH  21  22
ATOM     22  C   UNL     1       2.394   6.159  19.434  0.00  0.00    +0.000 C 
ATOM     23  F   UNL     1       1.882   6.699  18.299  0.00  0.00    +0.000 F 
ATOM     24  F   UNL     1       1.905   6.920  20.455  0.00  0.00    +0.000 F 
ATOM     25  F   UNL     1       3.732   6.418  19.391  0.00  0.00    +0.000 F 
ENDBRANCH  21  22
ENDBRANCH  14  15
ENDBRANCH   1  14
TORSDOF 5
ENDMDL
MODEL 6
REMARK VINA RESULT:      -8.0      2.016      2.715
REMARK  Name = 
REMARK  5 active torsions:
REMARK  status: ('A' for Active; 'I' for Inactive)
REMARK    1  A    between atoms: O_1  and  C_2
REMARK    2  A    between atoms: C_4  and  S_5
REMARK    3  A    between atoms: S_5  and  C_6
REMARK    4  A    between atoms: C_6  and  C_7
REMARK    5  A    between atoms: C_13  and  C_14
REMARK                            x       y       z     vdW  Elec       q    Type
REMARK                         _______ _______ _______ _____ _____    ______ ____
ROOT
ATOM      1  S   UNL     1       3.419   6.185  17.831  0.00  0.00    +0.000 S 
ENDROOT
BRANCH   1   4
ATOM      2  C   UNL     1       7.136   5.454  19.042  0.00  0.00    +0.000 A 
ATOM      3  N   UNL     1       5.827   5.777  19.112  0.00  0.00    +0.000 NA
ATOM      4  C   UNL     1       5.135   5.781  17.953  0.00  0.00    +0.000 A 
ATOM      5  C   UNL     1       5.818   5.451  16.799  0.00  0.00    +0.000 A 
ATOM      6  N   UNL     1       5.480   5.344  15.477  0.00  0.00    +0.000 N 
ATOM      7  C   UNL     1       6.603   4.972  14.792  0.00  0.00    +0.000 A 
ATOM      8  N   UNL     1       7.636   4.836  15.593  0.00  0.00    +0.000 NA
ATOM      9  C   UNL     1       7.160   5.132  16.844  0.00  0.00    +0.000 A 
ATOM     10  N   UNL     1       7.873   5.123  17.981  0.00  0.00    +0.000 NA
ATOM     11  H   UNL     1       4.564   5.515  15.087  0.00  0.00    +0.000 HD
BRANCH   2  12
ATOM     12  O   UNL     1       7.783   5.474  20.234  0.00  0.00    +0.000 OA
ATOM     13  H   UNL     1       8.667   5.204  19.947  0.00  0.00    +0.000 HD
ENDBRANCH   2  12
ENDBRANCH   1   4
BRANCH   1  14
ATOM     14  C   UNL     1       2.635   4.571  17.510  0.00  0.00    +0.000 C 
BRANCH  14  15
ATOM     15  C   UNL     1       2.237   3.922  18.831  0.00  0.00    +0.000 A 
ATOM     16  C   UNL     1       1.233   4.556  19.600  0.00  0.00    +0.000 A 
ATOM     17  C   UNL     1       0.828   4.043  20.834  0.00  0.00    +0.000 A 
ATOM     18  C   UNL     1       1.423   2.894  21.322  0.00  0.00    +0.000 A 
ATOM     19  F   UNL     1       1.038   2.394  22.504  0.00  0.00    +0.000 F 
ATOM     20  C   UNL     1       2.422   2.254  20.602  0.00  0.00    +0.000 A 
ATOM     21  C   UNL     1       2.856   2.757  19.353  0.00  0.00    +0.000 A 
BRANCH  21  22
ATOM     22  C   UNL     1       3.975   1.986  18.685  0.00  0.00    +0.000 C 
ATOM     23  F   UNL     1       3.683   1.461  17.467  0.00  0.00    +0.000 F 
ATOM     24  F   UNL     1       5.083   2.759  18.493  0.00  0.00    +0.000 F 
ATOM     25  F   UNL     1       4.388   0.935  19.447  0.00  0.00    +0.000 F 
ENDBRANCH  21  22
ENDBRANCH  14  15
ENDBRANCH   1  14
TORSDOF 5
ENDMDL
MODEL 7
REMARK VINA RESULT:      -8.0      2.314      3.391
REMARK  Name = 
REMARK  5 active torsions:
REMARK  status: ('A' for Active; 'I' for Inactive)
REMARK    1  A    between atoms: O_1  and  C_2
REMARK    2  A    between atoms: C_4  and  S_5
REMARK    3  A    between atoms: S_5  and  C_6
REMARK    4  A    between atoms: C_6  and  C_7
REMARK    5  A    between atoms: C_13  and  C_14
REMARK                            x       y       z     vdW  Elec       q    Type
REMARK                         _______ _______ _______ _____ _____    ______ ____
ROOT
ATOM      1  S   UNL     1       3.754   6.492  17.612  0.00  0.00    +0.000 S 
ENDROOT
BRANCH   1   4
ATOM      2  C   UNL     1       6.693   4.798  15.536  0.00  0.00    +0.000 A 
ATOM      3  N   UNL     1       5.497   5.370  15.793  0.00  0.00    +0.000 NA
ATOM      4  C   UNL     1       5.257   5.738  17.069  0.00  0.00    +0.000 A 
ATOM      5  C   UNL     1       6.252   5.507  17.999  0.00  0.00    +0.000 A 
ATOM      6  N   UNL     1       6.384   5.731  19.343  0.00  0.00    +0.000 N 
ATOM      7  C   UNL     1       7.620   5.281  19.717  0.00  0.00    +0.000 A 
ATOM      8  N   UNL     1       8.283   4.783  18.698  0.00  0.00    +0.000 NA
ATOM      9  C   UNL     1       7.442   4.917  17.624  0.00  0.00    +0.000 A 
ATOM     10  N   UNL     1       7.705   4.539  16.364  0.00  0.00    +0.000 NA
ATOM     11  H   UNL     1       5.688   6.151  19.943  0.00  0.00    +0.000 HD
BRANCH   2  12
ATOM     12  O   UNL     1       6.875   4.441  14.240  0.00  0.00    +0.000 OA
ATOM     13  H   UNL     1       6.010   4.684  13.878  0.00  0.00    +0.000 HD
ENDBRANCH   2  12
ENDBRANCH   1   4
BRANCH   1  14
ATOM     14  C   UNL     1       2.536   5.144  17.465  0.00  0.00    +0.000 C 
BRANCH  14  15
ATOM     15  C   UNL     1       2.375   4.449  18.813  0.00  0.00    +0.000 A 
ATOM     16  C   UNL     1       1.929   5.228  19.905  0.00  0.00    +0.000 A 
ATOM     17  C   UNL     1       1.780   4.677  21.180  0.00  0.00    +0.000 A 
ATOM     18  C   UNL     1       2.078   3.343  21.383  0.00  0.00    +0.000 A 
ATOM     19  F   UNL     1       1.935   2.806  22.603  0.00  0.00    +0.000 F 
ATOM     20  C   UNL     1       2.532   2.551  20.338  0.00  0.00    +0.000 A 
ATOM     21  C   UNL     1       2.700   3.087  19.039  0.00  0.00    +0.000 A 
BRANCH  21  22
ATOM     22  C   UNL     1       3.233   2.129  17.994  0.00  0.00    +0.000 C 
ATOM     23  F   UNL     1       3.638   0.918  18.458  0.00  0.00    +0.000 F 
ATOM     24  F   UNL     1       2.306   1.859  17.030  0.00  0.00    +0.000 F 
ATOM     25  F   UNL     1       4.308   2.647  17.337  0.00  0.00    +0.000 F 
ENDBRANCH  21  22
ENDBRANCH  14  15
ENDBRANCH   1  14
TORSDOF 5
ENDMDL
MODEL 8
REMARK VINA RESULT:      -8.0      1.305      2.778
REMARK  Name = 
REMARK  5 active torsions:
REMARK  status: ('A' for Active; 'I' for Inactive)
REMARK    1  A    between atoms: O_1  and  C_2
REMARK    2  A    between atoms: C_4  and  S_5
REMARK    3  A    between atoms: S_5  and  C_6
REMARK    4  A    between atoms: C_6  and  C_7
REMARK    5  A    between atoms: C_13  and  C_14
REMARK                            x       y       z     vdW  Elec       q    Type
REMARK                         _______ _______ _______ _____ _____    ______ ____
ROOT
ATOM      1  S   UNL     1       3.636   3.049  16.600  0.00  0.00    +0.000 S 
ENDROOT
BRANCH   1   4
ATOM      2  C   UNL     1       6.705   4.968  18.251  0.00  0.00    +0.000 A 
ATOM      3  N   UNL     1       5.547   4.278  18.165  0.00  0.00    +0.000 NA
ATOM      4  C   UNL     1       5.126   3.942  16.927  0.00  0.00    +0.000 A 
ATOM      5  C   UNL     1       5.912   4.326  15.858  0.00  0.00    +0.000 A 
ATOM      6  N   UNL     1       5.829   4.178  14.500  0.00  0.00    +0.000 N 
ATOM      7  C   UNL     1       6.927   4.781  13.951  0.00  0.00    +0.000 A 
ATOM      8  N   UNL     1       7.704   5.304  14.872  0.00  0.00    +0.000 NA
ATOM      9  C   UNL     1       7.082   5.028  16.062  0.00  0.00    +0.000 A 
ATOM     10  N   UNL     1       7.523   5.377  17.281  0.00  0.00    +0.000 NA
ATOM     11  H   UNL     1       5.085   3.710  14.001  0.00  0.00    +0.000 HD
BRANCH   2  12
ATOM     12  O   UNL     1       7.074   5.285  19.517  0.00  0.00    +0.000 OA
ATOM     13  H   UNL     1       7.867   5.809  19.332  0.00  0.00    +0.000 HD
ENDBRANCH   2  12
ENDBRANCH   1   4
BRANCH   1  14
ATOM     14  C   UNL     1       2.338   4.161  17.234  0.00  0.00    +0.000 C 
BRANCH  14  15
ATOM     15  C   UNL     1       2.001   3.789  18.674  0.00  0.00    +0.000 A 
ATOM     16  C   UNL     1       1.572   2.465  18.927  0.00  0.00    +0.000 A 
ATOM     17  C   UNL     1       1.217   2.048  20.212  0.00  0.00    +0.000 A 
ATOM     18  C   UNL     1       1.281   2.946  21.260  0.00  0.00    +0.000 A 
ATOM     19  F   UNL     1       0.945   2.553  22.497  0.00  0.00    +0.000 F 
ATOM     20  C   UNL     1       1.682   4.257  21.047  0.00  0.00    +0.000 A 
ATOM     21  C   UNL     1       2.039   4.707  19.753  0.00  0.00    +0.000 A 
BRANCH  21  22
ATOM     22  C   UNL     1       2.428   6.167  19.647  0.00  0.00    +0.000 C 
ATOM     23  F   UNL     1       2.061   6.792  18.499  0.00  0.00    +0.000 F 
ATOM     24  F   UNL     1       1.892   6.912  20.657  0.00  0.00    +0.000 F 
ATOM     25  F   UNL     1       3.777   6.337  19.741  0.00  0.00    +0.000 F 
ENDBRANCH  21  22
ENDBRANCH  14  15
ENDBRANCH   1  14
TORSDOF 5
ENDMDL
MODEL 9
REMARK VINA RESULT:      -7.9      1.309      1.565
REMARK  Name = 
REMARK  5 active torsions:
REMARK  status: ('A' for Active; 'I' for Inactive)
REMARK    1  A    between atoms: O_1  and  C_2
REMARK    2  A    between atoms: C_4  and  S_5
REMARK    3  A    between atoms: S_5  and  C_6
REMARK    4  A    between atoms: C_6  and  C_7
REMARK    5  A    between atoms: C_13  and  C_14
REMARK                            x       y       z     vdW  Elec       q    Type
REMARK                         _______ _______ _______ _____ _____    ______ ____
ROOT
ATOM      1  S   UNL     1       4.288   3.373  17.386  0.00  0.00    +0.000 S 
ENDROOT
BRANCH   1   4
ATOM      2  C   UNL     1       7.184   6.090  17.162  0.00  0.00    +0.000 A 
ATOM      3  N   UNL     1       6.212   5.324  17.702  0.00  0.00    +0.000 NA
ATOM      4  C   UNL     1       5.590   4.455  16.878  0.00  0.00    +0.000 A 
ATOM      5  C   UNL     1       6.002   4.416  15.560  0.00  0.00    +0.000 A 
ATOM      6  N   UNL     1       5.632   3.696  14.457  0.00  0.00    +0.000 N 
ATOM      7  C   UNL     1       6.416   4.105  13.414  0.00  0.00    +0.000 A 
ATOM      8  N   UNL     1       7.261   5.042  13.782  0.00  0.00    +0.000 NA
ATOM      9  C   UNL     1       7.012   5.244  15.115  0.00  0.00    +0.000 A 
ATOM     10  N   UNL     1       7.644   6.119  15.911  0.00  0.00    +0.000 NA
ATOM     11  H   UNL     1       4.907   2.992  14.426  0.00  0.00    +0.000 HD
BRANCH   2  12
ATOM     12  O   UNL     1       7.768   6.950  18.034  0.00  0.00    +0.000 OA
ATOM     13  H   UNL     1       7.072   7.001  18.706  0.00  0.00    +0.000 HD
ENDBRANCH   2  12
ENDBRANCH   1   4
BRANCH   1  14
ATOM     14  C   UNL     1       4.352   3.473  19.205  0.00  0.00    +0.000 C 
BRANCH  14  15
ATOM     15  C   UNL     1       3.317   4.476  19.701  0.00  0.00    +0.000 A 
ATOM     16  C   UNL     1       3.482   5.830  19.327  0.00  0.00    +0.000 A 
ATOM     17  C   UNL     1       2.595   6.819  19.760  0.00  0.00    +0.000 A 
ATOM     18  C   UNL     1       1.536   6.472  20.577  0.00  0.00    +0.000 A 
ATOM     19  F   UNL     1       0.679   7.414  20.994  0.00  0.00    +0.000 F 
ATOM     20  C   UNL     1       1.351   5.156  20.977  0.00  0.00    +0.000 A 
ATOM     21  C   UNL     1       2.239   4.137  20.559  0.00  0.00    +0.000 A 
BRANCH  21  22
ATOM     22  C   UNL     1       1.948   2.749  21.091  0.00  0.00    +0.000 C 
ATOM     23  F   UNL     1       1.741   1.790  20.152  0.00  0.00    +0.000 F 
ATOM     24  F   UNL     1       2.961   2.281  21.875  0.00  0.00    +0.000 F 
ATOM     25  F   UNL     1       0.836   2.735  21.879  0.00  0.00    +0.000 F 
ENDBRANCH  21  22
ENDBRANCH  14  15
ENDBRANCH   1  14
TORSDOF 5
ENDMDL
