MODEL 1
REMARK VINA RESULT:      -8.6      0.000      0.000
REMARK  Name = 
REMARK  5 active torsions:
REMARK  status: ('A' for Active; 'I' for Inactive)
REMARK    1  A    between atoms: C_1  and  C_2
REMARK    2  A    between atoms: C_4  and  C_5
REMARK    3  A    between atoms: C_7  and  N_8
REMARK    4  A    between atoms: C_11  and  N_12
REMARK    5  A    between atoms: C_16  and  C_17
REMARK                            x       y       z     vdW  Elec       q    Type
REMARK                         _______ _______ _______ _____ _____    ______ ____
ROOT
ATOM      1  N   UNL     1       1.608   9.868  17.784  0.00  0.00    +0.000 N 
ATOM      2  C   UNL     1       1.868   8.718  18.565  0.00  0.00    +0.000 A 
ATOM      3  C   UNL     1       2.334   7.585  17.922  0.00  0.00    +0.000 A 
ATOM      4  C   UNL     1       2.510   6.457  18.699  0.00  0.00    +0.000 A 
ATOM      5  N   UNL     1       2.281   6.438  20.025  0.00  0.00    +0.000 NA
ATOM      6  C   UNL     1       1.837   7.574  20.556  0.00  0.00    +0.000 A 
ATOM      7  N   UNL     1       1.611   8.702  19.882  0.00  0.00    +0.000 NA
ATOM      8  H   UNL     1       2.022   9.807  16.862  0.00  0.00    +0.000 HD
ENDROOT
BRANCH   1  15
ATOM      9  C   UNL     1       3.482  14.452  18.249  0.00  0.00    +0.000 C 
ATOM     10  C   UNL     1       2.354  13.484  18.464  0.00  0.00    +0.000 A 
ATOM     11  C   UNL     1       1.130  13.893  19.000  0.00  0.00    +0.000 A 
ATOM     12  C   UNL     1       0.097  12.967  19.178  0.00  0.00    +0.000 A 
ATOM     13  C   UNL     1      -1.224  13.384  19.747  0.00  0.00    +0.000 C 
ATOM     14  C   UNL     1       0.297  11.633  18.797  0.00  0.00    +0.000 A 
ATOM     15  C   UNL     1       1.499  11.212  18.206  0.00  0.00    +0.000 A 
ATOM     16  C   UNL     1       2.529  12.148  18.094  0.00  0.00    +0.000 A 
ENDBRANCH   1  15
BRANCH   4  17
ATOM     17  N   UNL     1       2.877   5.238  18.070  0.00  0.00    +0.000 N 
ATOM     18  C   UNL     1       2.026   4.182  17.812  0.00  0.00    +0.000 A 
ATOM     19  C   UNL     1       2.759   3.286  17.076  0.00  0.00    +0.000 A 
ATOM     20  N   UNL     1       4.047   3.716  16.941  0.00  0.00    +0.000 NA
ATOM     21  C   UNL     1       4.138   4.867  17.598  0.00  0.00    +0.000 A 
BRANCH  21  22
ATOM     22  C   UNL     1       5.419   5.555  17.859  0.00  0.00    +0.000 A 
ATOM     23  C   UNL     1       6.208   5.150  18.945  0.00  0.00    +0.000 A 
ATOM     24  C   UNL     1       7.424   5.782  19.227  0.00  0.00    +0.000 A 
ATOM     25  C   UNL     1       7.872   6.830  18.424  0.00  0.00    +0.000 A 
ATOM     26  C   UNL     1       7.090   7.265  17.361  0.00  0.00    +0.000 A 
ATOM     27  C   UNL     1       5.861   6.653  17.103  0.00  0.00    +0.000 A 
ENDBRANCH  21  22
ENDBRANCH   4  17
TORSDOF 3
ENDMDL
MODEL 2
REMARK VINA RESULT:      -8.6      0.168      1.940
REMARK  Name = 
REMARK  5 active torsions:
REMARK  status: ('A' for Active; 'I' for Inactive)
REMARK    1  A    between atoms: C_1  and  C_2
REMARK    2  A    between atoms: C_4  and  C_5
REMARK    3  A    between atoms: C_7  and  N_8
REMARK    4  A    between atoms: C_11  and  N_12
REMARK    5  A    between atoms: C_16  and  C_17
REMARK                            x       y       z     vdW  Elec       q    Type
REMARK                         _______ _______ _______ _____ _____    ______ ____
ROOT
ATOM      1  N   UNL     1       1.616   9.916  17.812  0.00  0.00    +0.000 N 
ATOM      2  C   UNL     1       1.864   8.762  18.590  0.00  0.00    +0.000 A 
ATOM      3  C   UNL     1       2.327   7.629  17.946  0.00  0.00    +0.000 A 
ATOM      4  C   UNL     1       2.492   6.497  18.720  0.00  0.00    +0.000 A 
ATOM      5  N   UNL     1       2.253   6.475  20.045  0.00  0.00    +0.000 NA
ATOM      6  C   UNL     1       1.812   7.612  20.577  0.00  0.00    +0.000 A 
ATOM      7  N   UNL     1       1.598   8.743  19.906  0.00  0.00    +0.000 NA
ATOM      8  H   UNL     1       2.035   9.857  16.892  0.00  0.00    +0.000 HD
ENDROOT
BRANCH   1  15
ATOM      9  C   UNL     1      -0.907  13.610  19.986  0.00  0.00    +0.000 C 
ATOM     10  C   UNL     1       0.331  13.117  19.296  0.00  0.00    +0.000 A 
ATOM     11  C   UNL     1       1.454  13.933  19.133  0.00  0.00    +0.000 A 
ATOM     12  C   UNL     1       2.595  13.440  18.494  0.00  0.00    +0.000 A 
ATOM     13  C   UNL     1       3.810  14.296  18.312  0.00  0.00    +0.000 C 
ATOM     14  C   UNL     1       2.606  12.114  18.036  0.00  0.00    +0.000 A 
ATOM     15  C   UNL     1       1.512  11.260  18.238  0.00  0.00    +0.000 A 
ATOM     16  C   UNL     1       0.367  11.800  18.829  0.00  0.00    +0.000 A 
ENDBRANCH   1  15
BRANCH   4  17
ATOM     17  N   UNL     1       2.856   5.279  18.089  0.00  0.00    +0.000 N 
ATOM     18  C   UNL     1       1.999   4.231  17.816  0.00  0.00    +0.000 A 
ATOM     19  C   UNL     1       2.733   3.333  17.084  0.00  0.00    +0.000 A 
ATOM     20  N   UNL     1       4.026   3.753  16.966  0.00  0.00    +0.000 NA
ATOM     21  C   UNL     1       4.119   4.899  17.631  0.00  0.00    +0.000 A 
BRANCH  21  22
ATOM     22  C   UNL     1       5.403   5.575  17.910  0.00  0.00    +0.000 A 
ATOM     23  C   UNL     1       5.819   6.629  17.085  0.00  0.00    +0.000 A 
ATOM     24  C   UNL     1       7.032   7.287  17.314  0.00  0.00    +0.000 A 
ATOM     25  C   UNL     1       7.847   6.904  18.377  0.00  0.00    +0.000 A 
ATOM     26  C   UNL     1       7.466   5.842  19.189  0.00  0.00    +0.000 A 
ATOM     27  C   UNL     1       6.271   5.165  18.936  0.00  0.00    +0.000 A 
ENDBRANCH  21  22
ENDBRANCH   4  17
TORSDOF 3
ENDMDL
MODEL 3
REMARK VINA RESULT:      -8.3      4.334      6.488
REMARK  Name = 
REMARK  5 active torsions:
REMARK  status: ('A' for Active; 'I' for Inactive)
REMARK    1  A    between atoms: C_1  and  C_2
REMARK    2  A    between atoms: C_4  and  C_5
REMARK    3  A    between atoms: C_7  and  N_8
REMARK    4  A    between atoms: C_11  and  N_12
REMARK    5  A    between atoms: C_16  and  C_17
REMARK                            x       y       z     vdW  Elec       q    Type
REMARK                         _______ _______ _______ _____ _____    ______ ____
ROOT
ATOM      1  N   UNL     1       8.212   9.501  17.790  0.00  0.00    +0.000 N 
ATOM      2  C   UNL     1       8.060   8.103  17.938  0.00  0.00    +0.000 A 
ATOM      3  C   UNL     1       7.444   7.403  16.917  0.00  0.00    +0.000 A 
ATOM      4  C   UNL     1       7.246   6.051  17.119  0.00  0.00    +0.000 A 
ATOM      5  N   UNL     1       7.652   5.411  18.232  0.00  0.00    +0.000 NA
ATOM      6  C   UNL     1       8.237   6.166  19.158  0.00  0.00    +0.000 A 
ATOM      7  N   UNL     1       8.445   7.479  19.062  0.00  0.00    +0.000 NA
ATOM      8  H   UNL     1       8.061   9.805  16.836  0.00  0.00    +0.000 HD
ENDROOT
BRANCH   1  15
ATOM      9  C   UNL     1      12.136  12.558  17.819  0.00  0.00    +0.000 C 
ATOM     10  C   UNL     1      11.015  11.880  18.552  0.00  0.00    +0.000 A 
ATOM     11  C   UNL     1      10.752  12.148  19.899  0.00  0.00    +0.000 A 
ATOM     12  C   UNL     1       9.695  11.507  20.550  0.00  0.00    +0.000 A 
ATOM     13  C   UNL     1       9.393  11.781  21.991  0.00  0.00    +0.000 C 
ATOM     14  C   UNL     1       8.891  10.608  19.833  0.00  0.00    +0.000 A 
ATOM     15  C   UNL     1       9.101  10.366  18.467  0.00  0.00    +0.000 A 
ATOM     16  C   UNL     1      10.200  10.980  17.861  0.00  0.00    +0.000 A 
ENDBRANCH   1  15
BRANCH   4  17
ATOM     17  N   UNL     1       6.517   5.309  16.154  0.00  0.00    +0.000 N 
ATOM     18  C   UNL     1       7.006   4.882  14.935  0.00  0.00    +0.000 A 
ATOM     19  C   UNL     1       6.022   4.092  14.397  0.00  0.00    +0.000 A 
ATOM     20  N   UNL     1       4.919   4.083  15.202  0.00  0.00    +0.000 NA
ATOM     21  C   UNL     1       5.193   4.873  16.234  0.00  0.00    +0.000 A 
BRANCH  21  22
ATOM     22  C   UNL     1       4.183   5.286  17.231  0.00  0.00    +0.000 A 
ATOM     23  C   UNL     1       3.482   4.306  17.946  0.00  0.00    +0.000 A 
ATOM     24  C   UNL     1       2.514   4.659  18.892  0.00  0.00    +0.000 A 
ATOM     25  C   UNL     1       2.233   6.001  19.140  0.00  0.00    +0.000 A 
ATOM     26  C   UNL     1       2.897   6.988  18.421  0.00  0.00    +0.000 A 
ATOM     27  C   UNL     1       3.838   6.630  17.453  0.00  0.00    +0.000 A 
ENDBRANCH  21  22
ENDBRANCH   4  17
TORSDOF 3
ENDMDL
MODEL 4
REMARK VINA RESULT:      -8.2      4.481      6.671
REMARK  Name = 
REMARK  5 active torsions:
REMARK  status: ('A' for Active; 'I' for Inactive)
REMARK    1  A    between atoms: C_1  and  C_2
REMARK    2  A    between atoms: C_4  and  C_5
REMARK    3  A    between atoms: C_7  and  N_8
REMARK    4  A    between atoms: C_11  and  N_12
REMARK    5  A    between atoms: C_16  and  C_17
REMARK                            x       y       z     vdW  Elec       q    Type
REMARK                         _______ _______ _______ _____ _____    ______ ____
ROOT
ATOM      1  N   UNL     1       8.112   9.417  17.817  0.00  0.00    +0.000 N 
ATOM      2  C   UNL     1       7.992   8.012  17.919  0.00  0.00    +0.000 A 
ATOM      3  C   UNL     1       7.437   7.327  16.852  0.00  0.00    +0.000 A 
ATOM      4  C   UNL     1       7.267   5.965  17.008  0.00  0.00    +0.000 A 
ATOM      5  N   UNL     1       7.643   5.303  18.118  0.00  0.00    +0.000 NA
ATOM      6  C   UNL     1       8.169   6.044  19.090  0.00  0.00    +0.000 A 
ATOM      7  N   UNL     1       8.345   7.364  19.040  0.00  0.00    +0.000 NA
ATOM      8  H   UNL     1       7.993   9.745  16.867  0.00  0.00    +0.000 HD
ENDROOT
BRANCH   1  15
ATOM      9  C   UNL     1       9.378  11.672  22.066  0.00  0.00    +0.000 C 
ATOM     10  C   UNL     1       9.628  11.420  20.607  0.00  0.00    +0.000 A 
ATOM     11  C   UNL     1      10.740  11.955  19.952  0.00  0.00    +0.000 A 
ATOM     12  C   UNL     1      10.949  11.694  18.595  0.00  0.00    +0.000 A 
ATOM     13  C   UNL     1      12.136  12.253  17.873  0.00  0.00    +0.000 C 
ATOM     14  C   UNL     1      10.041  10.877  17.905  0.00  0.00    +0.000 A 
ATOM     15  C   UNL     1       8.948  10.284  18.556  0.00  0.00    +0.000 A 
ATOM     16  C   UNL     1       8.737  10.610  19.898  0.00  0.00    +0.000 A 
ENDBRANCH   1  15
BRANCH   4  17
ATOM     17  N   UNL     1       6.600   5.233  15.991  0.00  0.00    +0.000 N 
ATOM     18  C   UNL     1       7.140   4.885  14.768  0.00  0.00    +0.000 A 
ATOM     19  C   UNL     1       6.208   4.075  14.170  0.00  0.00    +0.000 A 
ATOM     20  N   UNL     1       5.088   3.978  14.942  0.00  0.00    +0.000 NA
ATOM     21  C   UNL     1       5.297   4.732  16.015  0.00  0.00    +0.000 A 
BRANCH  21  22
ATOM     22  C   UNL     1       4.243   5.052  17.001  0.00  0.00    +0.000 A 
ATOM     23  C   UNL     1       3.446   4.020  17.515  0.00  0.00    +0.000 A 
ATOM     24  C   UNL     1       2.434   4.285  18.444  0.00  0.00    +0.000 A 
ATOM     25  C   UNL     1       2.206   5.590  18.877  0.00  0.00    +0.000 A 
ATOM     26  C   UNL     1       2.966   6.631  18.358  0.00  0.00    +0.000 A 
ATOM     27  C   UNL     1       3.953   6.366  17.405  0.00  0.00    +0.000 A 
ENDBRANCH  21  22
ENDBRANCH   4  17
TORSDOF 3
ENDMDL
MODEL 5
REMARK VINA RESULT:      -8.2      3.382      7.923
REMARK  Name = 
REMARK  5 active torsions:
REMARK  status: ('A' for Active; 'I' for Inactive)
REMARK    1  A    between atoms: C_1  and  C_2
REMARK    2  A    between atoms: C_4  and  C_5
REMARK    3  A    between atoms: C_7  and  N_8
REMARK    4  A    between atoms: C_11  and  N_12
REMARK    5  A    between atoms: C_16  and  C_17
REMARK                            x       y       z     vdW  Elec       q    Type
REMARK                         _______ _______ _______ _____ _____    ______ ____
ROOT
ATOM      1  N   UNL     1       4.867   4.331  15.255  0.00  0.00    +0.000 N 
ATOM      2  C   UNL     1       5.206   4.332  16.628  0.00  0.00    +0.000 A 
ATOM      3  C   UNL     1       4.225   3.995  17.542  0.00  0.00    +0.000 A 
ATOM      4  C   UNL     1       4.564   4.074  18.878  0.00  0.00    +0.000 A 
ATOM      5  N   UNL     1       5.792   4.427  19.301  0.00  0.00    +0.000 NA
ATOM      6  C   UNL     1       6.672   4.733  18.350  0.00  0.00    +0.000 A 
ATOM      7  N   UNL     1       6.426   4.711  17.040  0.00  0.00    +0.000 NA
ATOM      8  H   UNL     1       3.996   3.848  15.075  0.00  0.00    +0.000 HD
ENDROOT
BRANCH   1  15
ATOM      9  C   UNL     1       8.774   5.989  12.662  0.00  0.00    +0.000 C 
ATOM     10  C   UNL     1       7.635   5.024  12.815  0.00  0.00    +0.000 A 
ATOM     11  C   UNL     1       7.439   3.973  11.914  0.00  0.00    +0.000 A 
ATOM     12  C   UNL     1       6.374   3.086  12.090  0.00  0.00    +0.000 A 
ATOM     13  C   UNL     1       6.147   1.951  11.138  0.00  0.00    +0.000 C 
ATOM     14  C   UNL     1       5.517   3.250  13.188  0.00  0.00    +0.000 A 
ATOM     15  C   UNL     1       5.728   4.264  14.136  0.00  0.00    +0.000 A 
ATOM     16  C   UNL     1       6.767   5.167  13.900  0.00  0.00    +0.000 A 
ENDBRANCH   1  15
BRANCH   4  17
ATOM     17  N   UNL     1       3.562   3.849  19.858  0.00  0.00    +0.000 N 
ATOM     18  C   UNL     1       3.312   2.645  20.487  0.00  0.00    +0.000 A 
ATOM     19  C   UNL     1       2.369   2.917  21.446  0.00  0.00    +0.000 A 
ATOM     20  N   UNL     1       1.975   4.221  21.376  0.00  0.00    +0.000 NA
ATOM     21  C   UNL     1       2.648   4.771  20.371  0.00  0.00    +0.000 A 
BRANCH  21  22
ATOM     22  C   UNL     1       2.360   6.121  19.843  0.00  0.00    +0.000 A 
ATOM     23  C   UNL     1       1.815   7.091  20.695  0.00  0.00    +0.000 A 
ATOM     24  C   UNL     1       1.522   8.377  20.229  0.00  0.00    +0.000 A 
ATOM     25  C   UNL     1       1.774   8.715  18.901  0.00  0.00    +0.000 A 
ATOM     26  C   UNL     1       2.288   7.759  18.032  0.00  0.00    +0.000 A 
ATOM     27  C   UNL     1       2.547   6.466  18.494  0.00  0.00    +0.000 A 
ENDBRANCH  21  22
ENDBRANCH   4  17
TORSDOF 3
ENDMDL
MODEL 6
REMARK VINA RESULT:      -8.1      2.178      8.575
REMARK  Name = 
REMARK  5 active torsions:
REMARK  status: ('A' for Active; 'I' for Inactive)
REMARK    1  A    between atoms: C_1  and  C_2
REMARK    2  A    between atoms: C_4  and  C_5
REMARK    3  A    between atoms: C_7  and  N_8
REMARK    4  A    between atoms: C_11  and  N_12
REMARK    5  A    between atoms: C_16  and  C_17
REMARK                            x       y       z     vdW  Elec       q    Type
REMARK                         _______ _______ _______ _____ _____    ______ ____
ROOT
ATOM      1  N   UNL     1       2.900   7.654  17.827  0.00  0.00    +0.000 N 
ATOM      2  C   UNL     1       2.112   8.364  18.762  0.00  0.00    +0.000 A 
ATOM      3  C   UNL     1       1.746   9.661  18.452  0.00  0.00    +0.000 A 
ATOM      4  C   UNL     1       1.037  10.354  19.414  0.00  0.00    +0.000 A 
ATOM      5  N   UNL     1       0.676   9.810  20.591  0.00  0.00    +0.000 NA
ATOM      6  C   UNL     1       1.071   8.557  20.800  0.00  0.00    +0.000 A 
ATOM      7  N   UNL     1       1.780   7.821  19.943  0.00  0.00    +0.000 NA
ATOM      8  H   UNL     1       2.912   8.098  16.918  0.00  0.00    +0.000 HD
ENDROOT
BRANCH   1  15
ATOM      9  C   UNL     1       1.289   2.984  18.414  0.00  0.00    +0.000 C 
ATOM     10  C   UNL     1       2.358   3.941  17.971  0.00  0.00    +0.000 A 
ATOM     11  C   UNL     1       3.528   3.496  17.350  0.00  0.00    +0.000 A 
ATOM     12  C   UNL     1       4.500   4.414  16.942  0.00  0.00    +0.000 A 
ATOM     13  C   UNL     1       5.760   3.959  16.271  0.00  0.00    +0.000 C 
ATOM     14  C   UNL     1       4.279   5.784  17.144  0.00  0.00    +0.000 A 
ATOM     15  C   UNL     1       3.087   6.257  17.714  0.00  0.00    +0.000 A 
ATOM     16  C   UNL     1       2.162   5.311  18.163  0.00  0.00    +0.000 A 
ENDBRANCH   1  15
BRANCH   4  17
ATOM     17  N   UNL     1       0.736  11.724  19.194  0.00  0.00    +0.000 N 
ATOM     18  C   UNL     1       1.533  12.789  19.564  0.00  0.00    +0.000 A 
ATOM     19  C   UNL     1       0.931  13.903  19.037  0.00  0.00    +0.000 A 
ATOM     20  N   UNL     1      -0.244  13.571  18.427  0.00  0.00    +0.000 NA
ATOM     21  C   UNL     1      -0.397  12.261  18.578  0.00  0.00    +0.000 A 
BRANCH  21  22
ATOM     22  C   UNL     1      -1.641  11.542  18.232  0.00  0.00    +0.000 A 
ATOM     23  C   UNL     1      -2.861  11.985  18.762  0.00  0.00    +0.000 A 
ATOM     24  C   UNL     1      -4.058  11.327  18.463  0.00  0.00    +0.000 A 
ATOM     25  C   UNL     1      -4.054  10.214  17.624  0.00  0.00    +0.000 A 
ATOM     26  C   UNL     1      -2.852   9.742  17.111  0.00  0.00    +0.000 A 
ATOM     27  C   UNL     1      -1.655  10.382  17.440  0.00  0.00    +0.000 A 
ENDBRANCH  21  22
ENDBRANCH   4  17
TORSDOF 3
ENDMDL
MODEL 7
REMARK VINA RESULT:      -8.0      1.657      3.658
REMARK  Name = 
REMARK  5 active torsions:
REMARK  status: ('A' for Active; 'I' for Inactive)
REMARK    1  A    between atoms: C_1  and  C_2
REMARK    2  A    between atoms: C_4  and  C_5
REMARK    3  A    between atoms: C_7  and  N_8
REMARK    4  A    between atoms: C_11  and  N_12
REMARK    5  A    between atoms: C_16  and  C_17
REMARK                            x       y       z     vdW  Elec       q    Type
REMARK                         _______ _______ _______ _____ _____    ______ ____
ROOT
ATOM      1  N   UNL     1       0.785  10.321  17.946  0.00  0.00    +0.000 N 
ATOM      2  C   UNL     1       1.422   9.230  18.581  0.00  0.00    +0.000 A 
ATOM      3  C   UNL     1       2.300   8.464  17.836  0.00  0.00    +0.000 A 
ATOM      4  C   UNL     1       2.853   7.364  18.462  0.00  0.00    +0.000 A 
ATOM      5  N   UNL     1       2.595   7.046  19.744  0.00  0.00    +0.000 NA
ATOM      6  C   UNL     1       1.741   7.841  20.382  0.00  0.00    +0.000 A 
ATOM      7  N   UNL     1       1.139   8.906  19.853  0.00  0.00    +0.000 NA
ATOM      8  H   UNL     1       1.227  10.566  17.069  0.00  0.00    +0.000 HD
ENDROOT
BRANCH   1  15
ATOM      9  C   UNL     1      -3.153  12.533  20.029  0.00  0.00    +0.000 C 
ATOM     10  C   UNL     1      -1.724  12.592  19.571  0.00  0.00    +0.000 A 
ATOM     11  C   UNL     1      -0.929  13.719  19.795  0.00  0.00    +0.000 A 
ATOM     12  C   UNL     1       0.401  13.738  19.365  0.00  0.00    +0.000 A 
ATOM     13  C   UNL     1       1.272  14.934  19.597  0.00  0.00    +0.000 C 
ATOM     14  C   UNL     1       0.931  12.609  18.723  0.00  0.00    +0.000 A 
ATOM     15  C   UNL     1       0.168  11.446  18.538  0.00  0.00    +0.000 A 
ATOM     16  C   UNL     1      -1.173  11.480  18.929  0.00  0.00    +0.000 A 
ENDBRANCH   1  15
BRANCH   4  17
ATOM     17  N   UNL     1       3.670   6.481  17.708  0.00  0.00    +0.000 N 
ATOM     18  C   UNL     1       4.547   6.856  16.710  0.00  0.00    +0.000 A 
ATOM     19  C   UNL     1       5.220   5.713  16.359  0.00  0.00    +0.000 A 
ATOM     20  N   UNL     1       4.735   4.639  17.048  0.00  0.00    +0.000 NA
ATOM     21  C   UNL     1       3.751   5.091  17.817  0.00  0.00    +0.000 A 
BRANCH  21  22
ATOM     22  C   UNL     1       2.837   4.207  18.571  0.00  0.00    +0.000 A 
ATOM     23  C   UNL     1       3.234   3.714  19.822  0.00  0.00    +0.000 A 
ATOM     24  C   UNL     1       2.399   2.869  20.560  0.00  0.00    +0.000 A 
ATOM     25  C   UNL     1       1.150   2.505  20.060  0.00  0.00    +0.000 A 
ATOM     26  C   UNL     1       0.750   2.960  18.809  0.00  0.00    +0.000 A 
ATOM     27  C   UNL     1       1.602   3.776  18.060  0.00  0.00    +0.000 A 
ENDBRANCH  21  22
ENDBRANCH   4  17
TORSDOF 3
ENDMDL
MODEL 8
REMARK VINA RESULT:      -8.0      1.640      3.203
REMARK  Name = 
REMARK  5 active torsions:
REMARK  status: ('A' for Active; 'I' for Inactive)
REMARK    1  A    between atoms: C_1  and  C_2
REMARK    2  A    between atoms: C_4  and  C_5
REMARK    3  A    between atoms: C_7  and  N_8
REMARK    4  A    between atoms: C_11  and  N_12
REMARK    5  A    between atoms: C_16  and  C_17
REMARK                            x       y       z     vdW  Elec       q    Type
REMARK                         _______ _______ _______ _____ _____    ______ ____
ROOT
ATOM      1  N   UNL     1       1.061  10.096  17.847  0.00  0.00    +0.000 N 
ATOM      2  C   UNL     1       1.708   8.983  18.432  0.00  0.00    +0.000 A 
ATOM      3  C   UNL     1       2.585   8.254  17.649  0.00  0.00    +0.000 A 
ATOM      4  C   UNL     1       3.147   7.131  18.224  0.00  0.00    +0.000 A 
ATOM      5  N   UNL     1       2.900   6.757  19.493  0.00  0.00    +0.000 NA
ATOM      6  C   UNL     1       2.045   7.520  20.170  0.00  0.00    +0.000 A 
ATOM      7  N   UNL     1       1.434   8.603  19.690  0.00  0.00    +0.000 NA
ATOM      8  H   UNL     1       1.495  10.380  16.979  0.00  0.00    +0.000 HD
ENDROOT
BRANCH   1  15
ATOM      9  C   UNL     1       1.276  14.588  19.971  0.00  0.00    +0.000 C 
ATOM     10  C   UNL     1       0.474  13.394  19.541  0.00  0.00    +0.000 A 
ATOM     11  C   UNL     1      -0.917  13.360  19.675  0.00  0.00    +0.000 A 
ATOM     12  C   UNL     1      -1.635  12.236  19.257  0.00  0.00    +0.000 A 
ATOM     13  C   UNL     1      -3.126  12.179  19.388  0.00  0.00    +0.000 C 
ATOM     14  C   UNL     1      -0.948  11.155  18.686  0.00  0.00    +0.000 A 
ATOM     15  C   UNL     1       0.441  11.191  18.490  0.00  0.00    +0.000 A 
ATOM     16  C   UNL     1       1.135  12.304  18.971  0.00  0.00    +0.000 A 
ENDBRANCH   1  15
BRANCH   4  17
ATOM     17  N   UNL     1       3.964   6.286  17.429  0.00  0.00    +0.000 N 
ATOM     18  C   UNL     1       4.823   6.706  16.433  0.00  0.00    +0.000 A 
ATOM     19  C   UNL     1       5.504   5.585  16.033  0.00  0.00    +0.000 A 
ATOM     20  N   UNL     1       5.040   4.482  16.688  0.00  0.00    +0.000 NA
ATOM     21  C   UNL     1       4.062   4.894  17.486  0.00  0.00    +0.000 A 
BRANCH  21  22
ATOM     22  C   UNL     1       3.168   3.972  18.219  0.00  0.00    +0.000 A 
ATOM     23  C   UNL     1       3.655   3.291  19.343  0.00  0.00    +0.000 A 
ATOM     24  C   UNL     1       2.841   2.406  20.057  0.00  0.00    +0.000 A 
ATOM     25  C   UNL     1       1.523   2.190  19.659  0.00  0.00    +0.000 A 
ATOM     26  C   UNL     1       1.030   2.833  18.531  0.00  0.00    +0.000 A 
ATOM     27  C   UNL     1       1.857   3.690  17.800  0.00  0.00    +0.000 A 
ENDBRANCH  21  22
ENDBRANCH   4  17
TORSDOF 3
ENDMDL
MODEL 9
REMARK VINA RESULT:      -7.9      2.202      8.393
REMARK  Name = 
REMARK  5 active torsions:
REMARK  status: ('A' for Active; 'I' for Inactive)
REMARK    1  A    between atoms: C_1  and  C_2
REMARK    2  A    between atoms: C_4  and  C_5
REMARK    3  A    between atoms: C_7  and  N_8
REMARK    4  A    between atoms: C_11  and  N_12
REMARK    5  A    between atoms: C_16  and  C_17
REMARK                            x       y       z     vdW  Elec       q    Type
REMARK                         _______ _______ _______ _____ _____    ______ ____
ROOT
ATOM      1  N   UNL     1       2.964   7.811  17.726  0.00  0.00    +0.000 N 
ATOM      2  C   UNL     1       2.157   8.481  18.674  0.00  0.00    +0.000 A 
ATOM      3  C   UNL     1       1.751   9.772  18.387  0.00  0.00    +0.000 A 
ATOM      4  C   UNL     1       1.023  10.427  19.362  0.00  0.00    +0.000 A 
ATOM      5  N   UNL     1       0.682   9.852  20.530  0.00  0.00    +0.000 NA
ATOM      6  C   UNL     1       1.114   8.608  20.717  0.00  0.00    +0.000 A 
ATOM      7  N   UNL     1       1.844   7.909  19.847  0.00  0.00    +0.000 NA
ATOM      8  H   UNL     1       2.960   8.272  16.825  0.00  0.00    +0.000 HD
ENDROOT
BRANCH   1  15
ATOM      9  C   UNL     1       5.870   3.982  16.448  0.00  0.00    +0.000 C 
ATOM     10  C   UNL     1       4.566   4.498  16.985  0.00  0.00    +0.000 A 
ATOM     11  C   UNL     1       3.573   3.633  17.453  0.00  0.00    +0.000 A 
ATOM     12  C   UNL     1       2.374   4.146  17.956  0.00  0.00    +0.000 A 
ATOM     13  C   UNL     1       1.298   3.237  18.466  0.00  0.00    +0.000 C 
ATOM     14  C   UNL     1       2.187   5.535  18.002  0.00  0.00    +0.000 A 
ATOM     15  C   UNL     1       3.192   6.424  17.589  0.00  0.00    +0.000 A 
ATOM     16  C   UNL     1       4.355   5.878  17.040  0.00  0.00    +0.000 A 
ENDBRANCH   1  15
BRANCH   4  17
ATOM     17  N   UNL     1       0.680  11.790  19.166  0.00  0.00    +0.000 N 
ATOM     18  C   UNL     1       1.449  12.873  19.546  0.00  0.00    +0.000 A 
ATOM     19  C   UNL     1       0.809  13.976  19.041  0.00  0.00    +0.000 A 
ATOM     20  N   UNL     1      -0.360  13.619  18.436  0.00  0.00    +0.000 NA
ATOM     21  C   UNL     1      -0.474  12.303  18.569  0.00  0.00    +0.000 A 
BRANCH  21  22
ATOM     22  C   UNL     1      -1.699  11.553  18.222  0.00  0.00    +0.000 A 
ATOM     23  C   UNL     1      -2.927  11.953  18.768  0.00  0.00    +0.000 A 
ATOM     24  C   UNL     1      -4.107  11.264  18.468  0.00  0.00    +0.000 A 
ATOM     25  C   UNL     1      -4.078  10.164  17.613  0.00  0.00    +0.000 A 
ATOM     26  C   UNL     1      -2.867   9.735  17.084  0.00  0.00    +0.000 A 
ATOM     27  C   UNL     1      -1.686  10.405  17.413  0.00  0.00    +0.000 A 
ENDBRANCH  21  22
ENDBRANCH   4  17
TORSDOF 3
ENDMDL
