MODEL 1
REMARK VINA RESULT:      -7.4      0.000      0.000
REMARK  Name = 
REMARK  13 active torsions:
REMARK  status: ('A' for Active; 'I' for Inactive)
REMARK    1  A    between atoms: C_1  and  C_2
REMARK    2  A    between atoms: C_2  and  C_3
REMARK    3  A    between atoms: C_2  and  C_4
REMARK    4  A    between atoms: C_2  and  O_5
REMARK    5  A    between atoms: O_5  and  C_6
REMARK    6  A    between atoms: N_8  and  C_9
REMARK    7  A    between atoms: C_9  and  C_10
REMARK    8  A    between atoms: C_9  and  C_22
REMARK    9  A    between atoms: C_10  and  C_11
REMARK   10  A    between atoms: C_14  and  N_15
REMARK   11  A    between atoms: N_15  and  S_16
REMARK   12  A    between atoms: S_16  and  O_19
REMARK   13  A    between atoms: C_25  and  C_26
REMARK                            x       y       z     vdW  Elec       q    Type
REMARK                         _______ _______ _______ _____ _____    ______ ____
ROOT
ATOM      1  C   UNL     1       0.407  11.226  19.359  0.00  0.00    +0.000 C 
ENDROOT
BRANCH   1   2
ATOM      2  C   UNL     1       0.992   9.837  19.363  0.00  0.00    +0.000 A 
ATOM      3  N   UNL     1       1.013   9.041  20.409  0.00  0.00    +0.000 NA
ATOM      4  C   UNL     1       1.699   7.886  20.097  0.00  0.00    +0.000 A 
ATOM      5  C   UNL     1       2.151   7.765  18.793  0.00  0.00    +0.000 A 
ATOM      6  S   UNL     1       1.754   9.210  17.949  0.00  0.00    +0.000 S 
BRANCH   5   7
ATOM      7  C   UNL     1       2.866   6.649  18.157  0.00  0.00    +0.000 A 
ATOM      8  C   UNL     1       2.387   5.330  18.209  0.00  0.00    +0.000 A 
ATOM      9  C   UNL     1       3.106   4.281  17.628  0.00  0.00    +0.000 A 
ATOM     10  C   UNL     1       4.315   4.532  16.986  0.00  0.00    +0.000 A 
ATOM     11  C   UNL     1       4.808   5.832  16.924  0.00  0.00    +0.000 A 
ATOM     12  C   UNL     1       4.089   6.881  17.506  0.00  0.00    +0.000 A 
ENDBRANCH   5   7
ENDBRANCH   1   2
BRANCH   1  15
ATOM     13  C   UNL     1      -1.801  11.899  18.546  0.00  0.00    +0.000 C 
ATOM     14  O   UNL     1      -1.294  12.651  17.717  0.00  0.00    +0.000 OA
ATOM     15  N   UNL     1      -1.053  11.152  19.394  0.00  0.00    +0.000 N 
ATOM     16  H   UNL     1      -1.500  10.506  20.035  0.00  0.00    +0.000 HD
BRANCH  13  17
ATOM     17  O   UNL     1      -3.136  11.729  18.724  0.00  0.00    +0.000 OA
BRANCH  17  19
ATOM     18  C   UNL     1      -5.289  10.603  18.295  0.00  0.00    +0.000 C 
ATOM     19  C   UNL     1      -3.854  10.852  17.807  0.00  0.00    +0.000 C 
ATOM     20  C   UNL     1      -3.121   9.515  17.600  0.00  0.00    +0.000 C 
ATOM     21  C   UNL     1      -3.936  11.575  16.450  0.00  0.00    +0.000 C 
ENDBRANCH  17  19
ENDBRANCH  13  17
ENDBRANCH   1  15
BRANCH   1  22
ATOM     22  C   UNL     1       1.020  12.080  20.495  0.00  0.00    +0.000 C 
BRANCH  22  23
ATOM     23  C   UNL     1       0.109  12.522  21.623  0.00  0.00    +0.000 A 
ATOM     24  C   UNL     1      -0.135  13.884  21.843  0.00  0.00    +0.000 A 
ATOM     25  C   UNL     1      -1.152  14.287  22.708  0.00  0.00    +0.000 A 
ATOM     26  C   UNL     1      -1.894  13.336  23.402  0.00  0.00    +0.000 A 
ATOM     27  C   UNL     1      -1.595  11.981  23.270  0.00  0.00    +0.000 A 
ATOM     28  C   UNL     1      -0.597  11.576  22.379  0.00  0.00    +0.000 A 
BRANCH  26  29
ATOM     29  N   UNL     1      -3.043  13.766  24.129  0.00  0.00    +0.000 N 
ATOM     30  H   UNL     1      -2.952  13.777  25.143  0.00  0.00    +0.000 HD
BRANCH  29  31
ATOM     31  S   UNL     1      -4.508  13.043  23.705  0.00  0.00    +0.000 S 
ATOM     32  O   UNL     1      -4.612  12.933  22.271  0.00  0.00    +0.000 OA
ATOM     33  O   UNL     1      -4.656  11.890  24.564  0.00  0.00    +0.000 OA
BRANCH  31  34
ATOM     34  O   UNL     1      -5.603  14.131  24.146  0.00  0.00    +0.000 OA
ATOM     35  H   UNL     1      -6.134  13.729  24.862  0.00  0.00    +0.000 HD
ENDBRANCH  31  34
ENDBRANCH  29  31
ENDBRANCH  26  29
ENDBRANCH  22  23
ENDBRANCH   1  22
TORSDOF 10
ENDMDL
MODEL 2
REMARK VINA RESULT:      -7.4      4.245      9.107
REMARK  Name = 
REMARK  13 active torsions:
REMARK  status: ('A' for Active; 'I' for Inactive)
REMARK    1  A    between atoms: C_1  and  C_2
REMARK    2  A    between atoms: C_2  and  C_3
REMARK    3  A    between atoms: C_2  and  C_4
REMARK    4  A    between atoms: C_2  and  O_5
REMARK    5  A    between atoms: O_5  and  C_6
REMARK    6  A    between atoms: N_8  and  C_9
REMARK    7  A    between atoms: C_9  and  C_10
REMARK    8  A    between atoms: C_9  and  C_22
REMARK    9  A    between atoms: C_10  and  C_11
REMARK   10  A    between atoms: C_14  and  N_15
REMARK   11  A    between atoms: N_15  and  S_16
REMARK   12  A    between atoms: S_16  and  O_19
REMARK   13  A    between atoms: C_25  and  C_26
REMARK                            x       y       z     vdW  Elec       q    Type
REMARK                         _______ _______ _______ _____ _____    ______ ____
ROOT
ATOM      1  C   UNL     1       0.422  10.705  19.065  0.00  0.00    +0.000 C 
ENDROOT
BRANCH   1   2
ATOM      2  C   UNL     1      -1.018  10.720  18.622  0.00  0.00    +0.000 A 
ATOM      3  N   UNL     1      -1.522   9.931  17.699  0.00  0.00    +0.000 NA
ATOM      4  C   UNL     1      -2.841  10.268  17.473  0.00  0.00    +0.000 A 
ATOM      5  C   UNL     1      -3.370  11.272  18.267  0.00  0.00    +0.000 A 
ATOM      6  S   UNL     1      -2.121  11.866  19.290  0.00  0.00    +0.000 S 
BRANCH   5   7
ATOM      7  C   UNL     1      -4.737  11.814  18.292  0.00  0.00    +0.000 A 
ATOM      8  C   UNL     1      -5.458  11.964  19.486  0.00  0.00    +0.000 A 
ATOM      9  C   UNL     1      -6.770  12.446  19.479  0.00  0.00    +0.000 A 
ATOM     10  C   UNL     1      -7.383  12.786  18.276  0.00  0.00    +0.000 A 
ATOM     11  C   UNL     1      -6.687  12.643  17.080  0.00  0.00    +0.000 A 
ATOM     12  C   UNL     1      -5.375  12.161  17.089  0.00  0.00    +0.000 A 
ENDBRANCH   5   7
ENDBRANCH   1   2
BRANCH   1  15
ATOM     13  C   UNL     1       1.767  12.746  19.176  0.00  0.00    +0.000 C 
ATOM     14  O   UNL     1       2.409  12.407  18.184  0.00  0.00    +0.000 OA
ATOM     15  N   UNL     1       0.768  11.984  19.683  0.00  0.00    +0.000 N 
ATOM     16  H   UNL     1       0.226  12.313  20.474  0.00  0.00    +0.000 HD
BRANCH  13  17
ATOM     17  O   UNL     1       1.974  13.889  19.878  0.00  0.00    +0.000 OA
BRANCH  17  19
ATOM     18  C   UNL     1       0.059  14.925  18.717  0.00  0.00    +0.000 C 
ATOM     19  C   UNL     1       1.445  15.139  19.345  0.00  0.00    +0.000 C 
ATOM     20  C   UNL     1       2.402  15.778  18.325  0.00  0.00    +0.000 C 
ATOM     21  C   UNL     1       1.279  16.109  20.530  0.00  0.00    +0.000 C 
ENDBRANCH  17  19
ENDBRANCH  13  17
ENDBRANCH   1  15
BRANCH   1  22
ATOM     22  C   UNL     1       0.704   9.476  19.963  0.00  0.00    +0.000 C 
BRANCH  22  23
ATOM     23  C   UNL     1       1.698   8.446  19.466  0.00  0.00    +0.000 A 
ATOM     24  C   UNL     1       1.924   7.271  20.196  0.00  0.00    +0.000 A 
ATOM     25  C   UNL     1       2.642   6.218  19.631  0.00  0.00    +0.000 A 
ATOM     26  C   UNL     1       3.187   6.350  18.357  0.00  0.00    +0.000 A 
ATOM     27  C   UNL     1       3.057   7.551  17.660  0.00  0.00    +0.000 A 
ATOM     28  C   UNL     1       2.311   8.594  18.214  0.00  0.00    +0.000 A 
BRANCH  26  29
ATOM     29  N   UNL     1       3.750   5.198  17.733  0.00  0.00    +0.000 N 
ATOM     30  H   UNL     1       3.094   4.461  17.479  0.00  0.00    +0.000 HD
BRANCH  29  31
ATOM     31  S   UNL     1       5.091   4.516  18.497  0.00  0.00    +0.000 S 
ATOM     32  O   UNL     1       5.917   5.551  19.069  0.00  0.00    +0.000 OA
ATOM     33  O   UNL     1       4.591   3.420  19.295  0.00  0.00    +0.000 OA
BRANCH  31  34
ATOM     34  O   UNL     1       5.939   3.897  17.282  0.00  0.00    +0.000 OA
ATOM     35  H   UNL     1       5.508   4.191  16.454  0.00  0.00    +0.000 HD
ENDBRANCH  31  34
ENDBRANCH  29  31
ENDBRANCH  26  29
ENDBRANCH  22  23
ENDBRANCH   1  22
TORSDOF 10
ENDMDL
MODEL 3
REMARK VINA RESULT:      -7.3      4.293      9.268
REMARK  Name = 
REMARK  13 active torsions:
REMARK  status: ('A' for Active; 'I' for Inactive)
REMARK    1  A    between atoms: C_1  and  C_2
REMARK    2  A    between atoms: C_2  and  C_3
REMARK    3  A    between atoms: C_2  and  C_4
REMARK    4  A    between atoms: C_2  and  O_5
REMARK    5  A    between atoms: O_5  and  C_6
REMARK    6  A    between atoms: N_8  and  C_9
REMARK    7  A    between atoms: C_9  and  C_10
REMARK    8  A    between atoms: C_9  and  C_22
REMARK    9  A    between atoms: C_10  and  C_11
REMARK   10  A    between atoms: C_14  and  N_15
REMARK   11  A    between atoms: N_15  and  S_16
REMARK   12  A    between atoms: S_16  and  O_19
REMARK   13  A    between atoms: C_25  and  C_26
REMARK                            x       y       z     vdW  Elec       q    Type
REMARK                         _______ _______ _______ _____ _____    ______ ____
ROOT
ATOM      1  C   UNL     1       0.675  10.471  18.845  0.00  0.00    +0.000 C 
ENDROOT
BRANCH   1   2
ATOM      2  C   UNL     1      -0.770  10.575  18.428  0.00  0.00    +0.000 A 
ATOM      3  N   UNL     1      -1.313   9.888  17.448  0.00  0.00    +0.000 NA
ATOM      4  C   UNL     1      -2.621  10.288  17.273  0.00  0.00    +0.000 A 
ATOM      5  C   UNL     1      -3.104  11.236  18.159  0.00  0.00    +0.000 A 
ATOM      6  S   UNL     1      -1.822  11.695  19.210  0.00  0.00    +0.000 S 
BRANCH   5   7
ATOM      7  C   UNL     1      -4.450  11.821  18.252  0.00  0.00    +0.000 A 
ATOM      8  C   UNL     1      -5.278  11.972  17.129  0.00  0.00    +0.000 A 
ATOM      9  C   UNL     1      -6.539  12.566  17.238  0.00  0.00    +0.000 A 
ATOM     10  C   UNL     1      -6.993  13.019  18.473  0.00  0.00    +0.000 A 
ATOM     11  C   UNL     1      -6.188  12.881  19.599  0.00  0.00    +0.000 A 
ATOM     12  C   UNL     1      -4.927  12.288  19.489  0.00  0.00    +0.000 A 
ENDBRANCH   5   7
ENDBRANCH   1   2
BRANCH   1  15
ATOM     13  C   UNL     1       2.038  12.499  18.983  0.00  0.00    +0.000 C 
ATOM     14  O   UNL     1       2.579  12.239  17.911  0.00  0.00    +0.000 OA
ATOM     15  N   UNL     1       1.087  11.699  19.524  0.00  0.00    +0.000 N 
ATOM     16  H   UNL     1       0.627  11.965  20.387  0.00  0.00    +0.000 HD
BRANCH  13  17
ATOM     17  O   UNL     1       2.319  13.584  19.749  0.00  0.00    +0.000 OA
BRANCH  17  19
ATOM     18  C   UNL     1       0.414  14.857  18.833  0.00  0.00    +0.000 C 
ATOM     19  C   UNL     1       1.883  14.895  19.285  0.00  0.00    +0.000 C 
ATOM     20  C   UNL     1       2.776  15.431  18.152  0.00  0.00    +0.000 C 
ATOM     21  C   UNL     1       1.982  15.862  20.480  0.00  0.00    +0.000 C 
ENDBRANCH  17  19
ENDBRANCH  13  17
ENDBRANCH   1  15
BRANCH   1  22
ATOM     22  C   UNL     1       0.913   9.185  19.672  0.00  0.00    +0.000 C 
BRANCH  22  23
ATOM     23  C   UNL     1       1.963   8.209  19.181  0.00  0.00    +0.000 A 
ATOM     24  C   UNL     1       2.230   7.036  19.900  0.00  0.00    +0.000 A 
ATOM     25  C   UNL     1       3.006   6.024  19.334  0.00  0.00    +0.000 A 
ATOM     26  C   UNL     1       3.567   6.199  18.072  0.00  0.00    +0.000 A 
ATOM     27  C   UNL     1       3.394   7.402  17.389  0.00  0.00    +0.000 A 
ATOM     28  C   UNL     1       2.590   8.403  17.942  0.00  0.00    +0.000 A 
BRANCH  26  29
ATOM     29  N   UNL     1       4.194   5.083  17.445  0.00  0.00    +0.000 N 
ATOM     30  H   UNL     1       3.671   4.210  17.459  0.00  0.00    +0.000 HD
BRANCH  29  31
ATOM     31  S   UNL     1       5.796   4.784  17.882  0.00  0.00    +0.000 S 
ATOM     32  O   UNL     1       5.845   4.086  19.143  0.00  0.00    +0.000 OA
ATOM     33  O   UNL     1       6.449   4.262  16.703  0.00  0.00    +0.000 OA
BRANCH  31  34
ATOM     34  O   UNL     1       6.386   6.250  18.166  0.00  0.00    +0.000 OA
ATOM     35  H   UNL     1       5.833   6.882  17.666  0.00  0.00    +0.000 HD
ENDBRANCH  31  34
ENDBRANCH  29  31
ENDBRANCH  26  29
ENDBRANCH  22  23
ENDBRANCH   1  22
TORSDOF 10
ENDMDL
MODEL 4
REMARK VINA RESULT:      -7.3      4.230      9.163
REMARK  Name = 
REMARK  13 active torsions:
REMARK  status: ('A' for Active; 'I' for Inactive)
REMARK    1  A    between atoms: C_1  and  C_2
REMARK    2  A    between atoms: C_2  and  C_3
REMARK    3  A    between atoms: C_2  and  C_4
REMARK    4  A    between atoms: C_2  and  O_5
REMARK    5  A    between atoms: O_5  and  C_6
REMARK    6  A    between atoms: N_8  and  C_9
REMARK    7  A    between atoms: C_9  and  C_10
REMARK    8  A    between atoms: C_9  and  C_22
REMARK    9  A    between atoms: C_10  and  C_11
REMARK   10  A    between atoms: C_14  and  N_15
REMARK   11  A    between atoms: N_15  and  S_16
REMARK   12  A    between atoms: S_16  and  O_19
REMARK   13  A    between atoms: C_25  and  C_26
REMARK                            x       y       z     vdW  Elec       q    Type
REMARK                         _______ _______ _______ _____ _____    ______ ____
ROOT
ATOM      1  C   UNL     1       0.569  10.615  19.031  0.00  0.00    +0.000 C 
ENDROOT
BRANCH   1   2
ATOM      2  C   UNL     1      -0.862  10.651  18.559  0.00  0.00    +0.000 A 
ATOM      3  N   UNL     1      -1.336   9.934  17.564  0.00  0.00    +0.000 NA
ATOM      4  C   UNL     1      -2.653  10.274  17.337  0.00  0.00    +0.000 A 
ATOM      5  C   UNL     1      -3.211  11.206  18.197  0.00  0.00    +0.000 A 
ATOM      6  S   UNL     1      -1.992  11.728  19.292  0.00  0.00    +0.000 S 
BRANCH   5   7
ATOM      7  C   UNL     1      -4.585  11.730  18.235  0.00  0.00    +0.000 A 
ATOM      8  C   UNL     1      -5.286  12.072  17.068  0.00  0.00    +0.000 A 
ATOM      9  C   UNL     1      -6.577  12.604  17.133  0.00  0.00    +0.000 A 
ATOM     10  C   UNL     1      -7.188  12.804  18.368  0.00  0.00    +0.000 A 
ATOM     11  C   UNL     1      -6.511  12.473  19.537  0.00  0.00    +0.000 A 
ATOM     12  C   UNL     1      -5.220  11.942  19.471  0.00  0.00    +0.000 A 
ENDBRANCH   5   7
ENDBRANCH   1   2
BRANCH   1  15
ATOM     13  C   UNL     1       1.907  12.658  19.176  0.00  0.00    +0.000 C 
ATOM     14  O   UNL     1       2.542  12.344  18.172  0.00  0.00    +0.000 OA
ATOM     15  N   UNL     1       0.914  11.881  19.674  0.00  0.00    +0.000 N 
ATOM     16  H   UNL     1       0.378  12.191  20.476  0.00  0.00    +0.000 HD
BRANCH  13  17
ATOM     17  O   UNL     1       2.114  13.787  19.901  0.00  0.00    +0.000 OA
BRANCH  17  19
ATOM     18  C   UNL     1       1.416  16.061  20.558  0.00  0.00    +0.000 C 
ATOM     19  C   UNL     1       1.548  15.040  19.417  0.00  0.00    +0.000 C 
ATOM     20  C   UNL     1       0.188  14.827  18.730  0.00  0.00    +0.000 C 
ATOM     21  C   UNL     1       2.531  15.617  18.381  0.00  0.00    +0.000 C 
ENDBRANCH  17  19
ENDBRANCH  13  17
ENDBRANCH   1  15
BRANCH   1  22
ATOM     22  C   UNL     1       0.820   9.371  19.917  0.00  0.00    +0.000 C 
BRANCH  22  23
ATOM     23  C   UNL     1       1.793   8.324  19.413  0.00  0.00    +0.000 A 
ATOM     24  C   UNL     1       2.053   7.175  20.173  0.00  0.00    +0.000 A 
ATOM     25  C   UNL     1       2.747   6.102  19.614  0.00  0.00    +0.000 A 
ATOM     26  C   UNL     1       3.234   6.190  18.313  0.00  0.00    +0.000 A 
ATOM     27  C   UNL     1       3.071   7.366  17.581  0.00  0.00    +0.000 A 
ATOM     28  C   UNL     1       2.348   8.428  18.130  0.00  0.00    +0.000 A 
BRANCH  26  29
ATOM     29  N   UNL     1       3.771   5.017  17.706  0.00  0.00    +0.000 N 
ATOM     30  H   UNL     1       3.289   4.144  17.917  0.00  0.00    +0.000 HD
BRANCH  29  31
ATOM     31  S   UNL     1       5.435   4.791  17.861  0.00  0.00    +0.000 S 
ATOM     32  O   UNL     1       5.995   4.341  16.610  0.00  0.00    +0.000 OA
ATOM     33  O   UNL     1       5.944   5.961  18.539  0.00  0.00    +0.000 OA
BRANCH  31  34
ATOM     34  O   UNL     1       5.551   3.546  18.869  0.00  0.00    +0.000 OA
ATOM     35  H   UNL     1       4.679   3.102  18.875  0.00  0.00    +0.000 HD
ENDBRANCH  31  34
ENDBRANCH  29  31
ENDBRANCH  26  29
ENDBRANCH  22  23
ENDBRANCH   1  22
TORSDOF 10
ENDMDL
MODEL 5
REMARK VINA RESULT:      -7.3      4.281      9.137
REMARK  Name = 
REMARK  13 active torsions:
REMARK  status: ('A' for Active; 'I' for Inactive)
REMARK    1  A    between atoms: C_1  and  C_2
REMARK    2  A    between atoms: C_2  and  C_3
REMARK    3  A    between atoms: C_2  and  C_4
REMARK    4  A    between atoms: C_2  and  O_5
REMARK    5  A    between atoms: O_5  and  C_6
REMARK    6  A    between atoms: N_8  and  C_9
REMARK    7  A    between atoms: C_9  and  C_10
REMARK    8  A    between atoms: C_9  and  C_22
REMARK    9  A    between atoms: C_10  and  C_11
REMARK   10  A    between atoms: C_14  and  N_15
REMARK   11  A    between atoms: N_15  and  S_16
REMARK   12  A    between atoms: S_16  and  O_19
REMARK   13  A    between atoms: C_25  and  C_26
REMARK                            x       y       z     vdW  Elec       q    Type
REMARK                         _______ _______ _______ _____ _____    ______ ____
ROOT
ATOM      1  C   UNL     1       0.890  10.497  19.055  0.00  0.00    +0.000 C 
ENDROOT
BRANCH   1   2
ATOM      2  C   UNL     1      -0.539  10.602  18.587  0.00  0.00    +0.000 A 
ATOM      3  N   UNL     1      -1.032   9.960  17.551  0.00  0.00    +0.000 NA
ATOM      4  C   UNL     1      -2.339  10.349  17.346  0.00  0.00    +0.000 A 
ATOM      5  C   UNL     1      -2.872  11.241  18.261  0.00  0.00    +0.000 A 
ATOM      6  S   UNL     1      -1.640  11.662  19.385  0.00  0.00    +0.000 S 
BRANCH   5   7
ATOM      7  C   UNL     1      -4.231  11.799  18.332  0.00  0.00    +0.000 A 
ATOM      8  C   UNL     1      -5.080  11.839  17.215  0.00  0.00    +0.000 A 
ATOM      9  C   UNL     1      -6.353  12.410  17.299  0.00  0.00    +0.000 A 
ATOM     10  C   UNL     1      -6.799  12.951  18.502  0.00  0.00    +0.000 A 
ATOM     11  C   UNL     1      -5.973  12.922  19.621  0.00  0.00    +0.000 A 
ATOM     12  C   UNL     1      -4.700  12.352  19.536  0.00  0.00    +0.000 A 
ENDBRANCH   5   7
ENDBRANCH   1   2
BRANCH   1  15
ATOM     13  C   UNL     1       2.119  12.613  19.026  0.00  0.00    +0.000 C 
ATOM     14  O   UNL     1       2.534  12.385  17.892  0.00  0.00    +0.000 OA
ATOM     15  N   UNL     1       1.302  11.752  19.681  0.00  0.00    +0.000 N 
ATOM     16  H   UNL     1       0.940  11.990  20.597  0.00  0.00    +0.000 HD
BRANCH  13  17
ATOM     17  O   UNL     1       2.423  13.718  19.754  0.00  0.00    +0.000 OA
BRANCH  17  19
ATOM     18  C   UNL     1       0.438  14.869  18.846  0.00  0.00    +0.000 C 
ATOM     19  C   UNL     1       1.894  15.005  19.319  0.00  0.00    +0.000 C 
ATOM     20  C   UNL     1       2.758  15.637  18.214  0.00  0.00    +0.000 C 
ATOM     21  C   UNL     1       1.906  15.942  20.541  0.00  0.00    +0.000 C 
ENDBRANCH  17  19
ENDBRANCH  13  17
ENDBRANCH   1  15
BRANCH   1  22
ATOM     22  C   UNL     1       1.080   9.253  19.956  0.00  0.00    +0.000 C 
BRANCH  22  23
ATOM     23  C   UNL     1       1.858   8.081  19.394  0.00  0.00    +0.000 A 
ATOM     24  C   UNL     1       2.507   8.190  18.156  0.00  0.00    +0.000 A 
ATOM     25  C   UNL     1       3.418   7.216  17.750  0.00  0.00    +0.000 A 
ATOM     26  C   UNL     1       3.646   6.099  18.549  0.00  0.00    +0.000 A 
ATOM     27  C   UNL     1       2.931   5.926  19.734  0.00  0.00    +0.000 A 
ATOM     28  C   UNL     1       2.042   6.918  20.156  0.00  0.00    +0.000 A 
BRANCH  26  29
ATOM     29  N   UNL     1       4.714   5.219  18.202  0.00  0.00    +0.000 N 
ATOM     30  H   UNL     1       5.524   5.652  17.763  0.00  0.00    +0.000 HD
BRANCH  29  31
ATOM     31  S   UNL     1       4.288   3.830  17.345  0.00  0.00    +0.000 S 
ATOM     32  O   UNL     1       2.861   3.791  17.138  0.00  0.00    +0.000 OA
ATOM     33  O   UNL     1       5.215   3.732  16.241  0.00  0.00    +0.000 OA
BRANCH  31  34
ATOM     34  O   UNL     1       4.616   2.641  18.373  0.00  0.00    +0.000 OA
ATOM     35  H   UNL     1       5.572   2.694  18.574  0.00  0.00    +0.000 HD
ENDBRANCH  31  34
ENDBRANCH  29  31
ENDBRANCH  26  29
ENDBRANCH  22  23
ENDBRANCH   1  22
TORSDOF 10
ENDMDL
MODEL 6
REMARK VINA RESULT:      -7.2      4.380      7.953
REMARK  Name = 
REMARK  13 active torsions:
REMARK  status: ('A' for Active; 'I' for Inactive)
REMARK    1  A    between atoms: C_1  and  C_2
REMARK    2  A    between atoms: C_2  and  C_3
REMARK    3  A    between atoms: C_2  and  C_4
REMARK    4  A    between atoms: C_2  and  O_5
REMARK    5  A    between atoms: O_5  and  C_6
REMARK    6  A    between atoms: N_8  and  C_9
REMARK    7  A    between atoms: C_9  and  C_10
REMARK    8  A    between atoms: C_9  and  C_22
REMARK    9  A    between atoms: C_10  and  C_11
REMARK   10  A    between atoms: C_14  and  N_15
REMARK   11  A    between atoms: N_15  and  S_16
REMARK   12  A    between atoms: S_16  and  O_19
REMARK   13  A    between atoms: C_25  and  C_26
REMARK                            x       y       z     vdW  Elec       q    Type
REMARK                         _______ _______ _______ _____ _____    ______ ____
ROOT
ATOM      1  C   UNL     1       0.678  10.591  18.622  0.00  0.00    +0.000 C 
ENDROOT
BRANCH   1   2
ATOM      2  C   UNL     1       1.445  11.725  19.252  0.00  0.00    +0.000 A 
ATOM      3  N   UNL     1       1.358  12.070  20.518  0.00  0.00    +0.000 NA
ATOM      4  C   UNL     1       2.118  13.199  20.742  0.00  0.00    +0.000 A 
ATOM      5  C   UNL     1       2.840  13.686  19.665  0.00  0.00    +0.000 A 
ATOM      6  S   UNL     1       2.481  12.715  18.292  0.00  0.00    +0.000 S 
BRANCH   5   7
ATOM      7  C   UNL     1       3.761  14.831  19.605  0.00  0.00    +0.000 A 
ATOM      8  C   UNL     1       4.681  15.103  20.629  0.00  0.00    +0.000 A 
ATOM      9  C   UNL     1       5.519  16.220  20.565  0.00  0.00    +0.000 A 
ATOM     10  C   UNL     1       5.451  17.084  19.476  0.00  0.00    +0.000 A 
ATOM     11  C   UNL     1       4.545  16.833  18.450  0.00  0.00    +0.000 A 
ATOM     12  C   UNL     1       3.707  15.716  18.515  0.00  0.00    +0.000 A 
ENDBRANCH   5   7
ENDBRANCH   1   2
BRANCH   1  15
ATOM     13  C   UNL     1      -1.615  11.422  18.436  0.00  0.00    +0.000 C 
ATOM     14  O   UNL     1      -1.792  11.281  19.643  0.00  0.00    +0.000 OA
ATOM     15  N   UNL     1      -0.437  11.119  17.838  0.00  0.00    +0.000 N 
ATOM     16  H   UNL     1      -0.308  11.291  16.848  0.00  0.00    +0.000 HD
BRANCH  13  17
ATOM     17  O   UNL     1      -2.551  11.880  17.565  0.00  0.00    +0.000 OA
BRANCH  17  19
ATOM     18  C   UNL     1      -3.335   9.540  17.561  0.00  0.00    +0.000 C 
ATOM     19  C   UNL     1      -3.384  10.909  16.865  0.00  0.00    +0.000 C 
ATOM     20  C   UNL     1      -2.985  10.771  15.385  0.00  0.00    +0.000 C 
ATOM     21  C   UNL     1      -4.836  11.419  16.931  0.00  0.00    +0.000 C 
ENDBRANCH  17  19
ENDBRANCH  13  17
ENDBRANCH   1  15
BRANCH   1  22
ATOM     22  C   UNL     1       1.628   9.668  17.821  0.00  0.00    +0.000 C 
BRANCH  22  23
ATOM     23  C   UNL     1       2.169   8.433  18.513  0.00  0.00    +0.000 A 
ATOM     24  C   UNL     1       1.702   8.072  19.784  0.00  0.00    +0.000 A 
ATOM     25  C   UNL     1       2.006   6.820  20.317  0.00  0.00    +0.000 A 
ATOM     26  C   UNL     1       2.822   5.941  19.611  0.00  0.00    +0.000 A 
ATOM     27  C   UNL     1       3.377   6.327  18.391  0.00  0.00    +0.000 A 
ATOM     28  C   UNL     1       3.047   7.569  17.843  0.00  0.00    +0.000 A 
BRANCH  26  29
ATOM     29  N   UNL     1       2.961   4.605  20.090  0.00  0.00    +0.000 N 
ATOM     30  H   UNL     1       3.888   4.343  20.421  0.00  0.00    +0.000 HD
BRANCH  29  31
ATOM     31  S   UNL     1       2.358   3.388  19.089  0.00  0.00    +0.000 S 
ATOM     32  O   UNL     1       1.192   3.857  18.383  0.00  0.00    +0.000 OA
ATOM     33  O   UNL     1       3.495   2.836  18.388  0.00  0.00    +0.000 OA
BRANCH  31  34
ATOM     34  O   UNL     1       1.831   2.280  20.125  0.00  0.00    +0.000 OA
ATOM     35  H   UNL     1       0.877   2.154  19.947  0.00  0.00    +0.000 HD
ENDBRANCH  31  34
ENDBRANCH  29  31
ENDBRANCH  26  29
ENDBRANCH  22  23
ENDBRANCH   1  22
TORSDOF 10
ENDMDL
MODEL 7
REMARK VINA RESULT:      -7.2      4.195      9.113
REMARK  Name = 
REMARK  13 active torsions:
REMARK  status: ('A' for Active; 'I' for Inactive)
REMARK    1  A    between atoms: C_1  and  C_2
REMARK    2  A    between atoms: C_2  and  C_3
REMARK    3  A    between atoms: C_2  and  C_4
REMARK    4  A    between atoms: C_2  and  O_5
REMARK    5  A    between atoms: O_5  and  C_6
REMARK    6  A    between atoms: N_8  and  C_9
REMARK    7  A    between atoms: C_9  and  C_10
REMARK    8  A    between atoms: C_9  and  C_22
REMARK    9  A    between atoms: C_10  and  C_11
REMARK   10  A    between atoms: C_14  and  N_15
REMARK   11  A    between atoms: N_15  and  S_16
REMARK   12  A    between atoms: S_16  and  O_19
REMARK   13  A    between atoms: C_25  and  C_26
REMARK                            x       y       z     vdW  Elec       q    Type
REMARK                         _______ _______ _______ _____ _____    ______ ____
ROOT
ATOM      1  C   UNL     1       0.635  10.722  19.015  0.00  0.00    +0.000 C 
ENDROOT
BRANCH   1   2
ATOM      2  C   UNL     1      -0.810  10.756  18.587  0.00  0.00    +0.000 A 
ATOM      3  N   UNL     1      -1.318  10.019  17.623  0.00  0.00    +0.000 NA
ATOM      4  C   UNL     1      -2.639  10.362  17.428  0.00  0.00    +0.000 A 
ATOM      5  C   UNL     1      -3.166  11.315  18.283  0.00  0.00    +0.000 A 
ATOM      6  S   UNL     1      -1.912  11.855  19.329  0.00  0.00    +0.000 S 
BRANCH   5   7
ATOM      7  C   UNL     1      -4.535  11.848  18.350  0.00  0.00    +0.000 A 
ATOM      8  C   UNL     1      -5.142  12.195  19.568  0.00  0.00    +0.000 A 
ATOM      9  C   UNL     1      -6.458  12.664  19.608  0.00  0.00    +0.000 A 
ATOM     10  C   UNL     1      -7.191  12.793  18.432  0.00  0.00    +0.000 A 
ATOM     11  C   UNL     1      -6.609  12.453  17.214  0.00  0.00    +0.000 A 
ATOM     12  C   UNL     1      -5.293  11.984  17.175  0.00  0.00    +0.000 A 
ENDBRANCH   5   7
ENDBRANCH   1   2
BRANCH   1  15
ATOM     13  C   UNL     1       1.983  12.762  19.111  0.00  0.00    +0.000 C 
ATOM     14  O   UNL     1       2.593  12.437  18.096  0.00  0.00    +0.000 OA
ATOM     15  N   UNL     1       0.999  11.993  19.640  0.00  0.00    +0.000 N 
ATOM     16  H   UNL     1       0.483  12.311  20.451  0.00  0.00    +0.000 HD
BRANCH  13  17
ATOM     17  O   UNL     1       2.211  13.896  19.822  0.00  0.00    +0.000 OA
BRANCH  17  19
ATOM     18  C   UNL     1       1.605  16.205  20.447  0.00  0.00    +0.000 C 
ATOM     19  C   UNL     1       1.652  15.149  19.331  0.00  0.00    +0.000 C 
ATOM     20  C   UNL     1       0.253  14.954  18.722  0.00  0.00    +0.000 C 
ATOM     21  C   UNL     1       2.593  15.671  18.230  0.00  0.00    +0.000 C 
ENDBRANCH  17  19
ENDBRANCH  13  17
ENDBRANCH   1  15
BRANCH   1  22
ATOM     22  C   UNL     1       0.912   9.484  19.902  0.00  0.00    +0.000 C 
BRANCH  22  23
ATOM     23  C   UNL     1       1.704   8.342  19.300  0.00  0.00    +0.000 A 
ATOM     24  C   UNL     1       2.287   8.476  18.032  0.00  0.00    +0.000 A 
ATOM     25  C   UNL     1       3.213   7.536  17.580  0.00  0.00    +0.000 A 
ATOM     26  C   UNL     1       3.522   6.428  18.364  0.00  0.00    +0.000 A 
ATOM     27  C   UNL     1       2.874   6.229  19.582  0.00  0.00    +0.000 A 
ATOM     28  C   UNL     1       1.970   7.187  20.049  0.00  0.00    +0.000 A 
BRANCH  26  29
ATOM     29  N   UNL     1       4.604   5.590  17.963  0.00  0.00    +0.000 N 
ATOM     30  H   UNL     1       5.357   6.046  17.452  0.00  0.00    +0.000 HD
BRANCH  29  31
ATOM     31  S   UNL     1       4.185   4.154  17.182  0.00  0.00    +0.000 S 
ATOM     32  O   UNL     1       2.758   3.955  17.238  0.00  0.00    +0.000 OA
ATOM     33  O   UNL     1       4.899   4.151  15.925  0.00  0.00    +0.000 OA
BRANCH  31  34
ATOM     34  O   UNL     1       4.827   3.018  18.118  0.00  0.00    +0.000 OA
ATOM     35  H   UNL     1       4.101   2.658  18.667  0.00  0.00    +0.000 HD
ENDBRANCH  31  34
ENDBRANCH  29  31
ENDBRANCH  26  29
ENDBRANCH  22  23
ENDBRANCH   1  22
TORSDOF 10
ENDMDL
MODEL 8
REMARK VINA RESULT:      -7.2      4.598      8.296
REMARK  Name = 
REMARK  13 active torsions:
REMARK  status: ('A' for Active; 'I' for Inactive)
REMARK    1  A    between atoms: C_1  and  C_2
REMARK    2  A    between atoms: C_2  and  C_3
REMARK    3  A    between atoms: C_2  and  C_4
REMARK    4  A    between atoms: C_2  and  O_5
REMARK    5  A    between atoms: O_5  and  C_6
REMARK    6  A    between atoms: N_8  and  C_9
REMARK    7  A    between atoms: C_9  and  C_10
REMARK    8  A    between atoms: C_9  and  C_22
REMARK    9  A    between atoms: C_10  and  C_11
REMARK   10  A    between atoms: C_14  and  N_15
REMARK   11  A    between atoms: N_15  and  S_16
REMARK   12  A    between atoms: S_16  and  O_19
REMARK   13  A    between atoms: C_25  and  C_26
REMARK                            x       y       z     vdW  Elec       q    Type
REMARK                         _______ _______ _______ _____ _____    ______ ____
ROOT
ATOM      1  C   UNL     1       0.678  10.632  18.559  0.00  0.00    +0.000 C 
ENDROOT
BRANCH   1   2
ATOM      2  C   UNL     1       1.464  11.761  19.175  0.00  0.00    +0.000 A 
ATOM      3  N   UNL     1       1.444  12.073  20.452  0.00  0.00    +0.000 NA
ATOM      4  C   UNL     1       2.199  13.207  20.662  0.00  0.00    +0.000 A 
ATOM      5  C   UNL     1       2.854  13.731  19.560  0.00  0.00    +0.000 A 
ATOM      6  S   UNL     1       2.431  12.789  18.184  0.00  0.00    +0.000 S 
BRANCH   5   7
ATOM      7  C   UNL     1       3.755  14.891  19.478  0.00  0.00    +0.000 A 
ATOM      8  C   UNL     1       4.921  14.875  18.696  0.00  0.00    +0.000 A 
ATOM      9  C   UNL     1       5.780  15.977  18.665  0.00  0.00    +0.000 A 
ATOM     10  C   UNL     1       5.488  17.113  19.415  0.00  0.00    +0.000 A 
ATOM     11  C   UNL     1       4.338  17.149  20.198  0.00  0.00    +0.000 A 
ATOM     12  C   UNL     1       3.479  16.046  20.228  0.00  0.00    +0.000 A 
ENDBRANCH   5   7
ENDBRANCH   1   2
BRANCH   1  15
ATOM     13  C   UNL     1      -1.643  11.406  18.579  0.00  0.00    +0.000 C 
ATOM     14  O   UNL     1      -1.724  11.211  19.789  0.00  0.00    +0.000 OA
ATOM     15  N   UNL     1      -0.506  11.159  17.883  0.00  0.00    +0.000 N 
ATOM     16  H   UNL     1      -0.455  11.374  16.894  0.00  0.00    +0.000 HD
BRANCH  13  17
ATOM     17  O   UNL     1      -2.653  11.872  17.799  0.00  0.00    +0.000 OA
BRANCH  17  19
ATOM     18  C   UNL     1      -3.244   9.484  17.610  0.00  0.00    +0.000 C 
ATOM     19  C   UNL     1      -3.481  10.909  17.085  0.00  0.00    +0.000 C 
ATOM     20  C   UNL     1      -3.244  10.964  15.565  0.00  0.00    +0.000 C 
ATOM     21  C   UNL     1      -4.951  11.274  17.361  0.00  0.00    +0.000 C 
ENDBRANCH  17  19
ENDBRANCH  13  17
ENDBRANCH   1  15
BRANCH   1  22
ATOM     22  C   UNL     1       1.586   9.765  17.653  0.00  0.00    +0.000 C 
BRANCH  22  23
ATOM     23  C   UNL     1       2.255   8.553  18.269  0.00  0.00    +0.000 A 
ATOM     24  C   UNL     1       1.807   8.044  19.495  0.00  0.00    +0.000 A 
ATOM     25  C   UNL     1       2.247   6.799  19.944  0.00  0.00    +0.000 A 
ATOM     26  C   UNL     1       3.178   6.080  19.201  0.00  0.00    +0.000 A 
ATOM     27  C   UNL     1       3.710   6.620  18.031  0.00  0.00    +0.000 A 
ATOM     28  C   UNL     1       3.245   7.853  17.565  0.00  0.00    +0.000 A 
BRANCH  26  29
ATOM     29  N   UNL     1       3.466   4.737  19.585  0.00  0.00    +0.000 N 
ATOM     30  H   UNL     1       3.331   4.515  20.570  0.00  0.00    +0.000 HD
BRANCH  29  31
ATOM     31  S   UNL     1       4.945   4.113  19.067  0.00  0.00    +0.000 S 
ATOM     32  O   UNL     1       4.905   3.848  17.650  0.00  0.00    +0.000 OA
ATOM     33  O   UNL     1       5.967   4.952  19.650  0.00  0.00    +0.000 OA
BRANCH  31  34
ATOM     34  O   UNL     1       5.017   2.677  19.783  0.00  0.00    +0.000 OA
ATOM     35  H   UNL     1       5.259   2.836  20.717  0.00  0.00    +0.000 HD
ENDBRANCH  31  34
ENDBRANCH  29  31
ENDBRANCH  26  29
ENDBRANCH  22  23
ENDBRANCH   1  22
TORSDOF 10
ENDMDL
MODEL 9
REMARK VINA RESULT:      -7.2      1.209      1.675
REMARK  Name = 
REMARK  13 active torsions:
REMARK  status: ('A' for Active; 'I' for Inactive)
REMARK    1  A    between atoms: C_1  and  C_2
REMARK    2  A    between atoms: C_2  and  C_3
REMARK    3  A    between atoms: C_2  and  C_4
REMARK    4  A    between atoms: C_2  and  O_5
REMARK    5  A    between atoms: O_5  and  C_6
REMARK    6  A    between atoms: N_8  and  C_9
REMARK    7  A    between atoms: C_9  and  C_10
REMARK    8  A    between atoms: C_9  and  C_22
REMARK    9  A    between atoms: C_10  and  C_11
REMARK   10  A    between atoms: C_14  and  N_15
REMARK   11  A    between atoms: N_15  and  S_16
REMARK   12  A    between atoms: S_16  and  O_19
REMARK   13  A    between atoms: C_25  and  C_26
REMARK                            x       y       z     vdW  Elec       q    Type
REMARK                         _______ _______ _______ _____ _____    ______ ____
ROOT
ATOM      1  C   UNL     1       0.539  10.871  19.584  0.00  0.00    +0.000 C 
ENDROOT
BRANCH   1   2
ATOM      2  C   UNL     1       1.284   9.701  18.992  0.00  0.00    +0.000 A 
ATOM      3  N   UNL     1       1.795   9.681  17.780  0.00  0.00    +0.000 NA
ATOM      4  C   UNL     1       2.325   8.434  17.524  0.00  0.00    +0.000 A 
ATOM      5  C   UNL     1       2.280   7.515  18.560  0.00  0.00    +0.000 A 
ATOM      6  S   UNL     1       1.463   8.239  19.889  0.00  0.00    +0.000 S 
BRANCH   5   7
ATOM      7  C   UNL     1       2.796   6.139  18.604  0.00  0.00    +0.000 A 
ATOM      8  C   UNL     1       3.988   5.810  19.267  0.00  0.00    +0.000 A 
ATOM      9  C   UNL     1       4.477   4.500  19.263  0.00  0.00    +0.000 A 
ATOM     10  C   UNL     1       3.781   3.497  18.594  0.00  0.00    +0.000 A 
ATOM     11  C   UNL     1       2.597   3.801  17.929  0.00  0.00    +0.000 A 
ATOM     12  C   UNL     1       2.110   5.111  17.934  0.00  0.00    +0.000 A 
ENDBRANCH   5   7
ENDBRANCH   1   2
BRANCH   1  15
ATOM     13  C   UNL     1      -1.506  11.706  18.533  0.00  0.00    +0.000 C 
ATOM     14  O   UNL     1      -0.906  12.677  18.078  0.00  0.00    +0.000 OA
ATOM     15  N   UNL     1      -0.886  10.760  19.279  0.00  0.00    +0.000 N 
ATOM     16  H   UNL     1      -1.399   9.947  19.601  0.00  0.00    +0.000 HD
BRANCH  13  17
ATOM     17  O   UNL     1      -2.831  11.465  18.361  0.00  0.00    +0.000 OA
BRANCH  17  19
ATOM     18  C   UNL     1      -2.026  10.060  16.500  0.00  0.00    +0.000 C 
ATOM     19  C   UNL     1      -3.240  10.548  17.305  0.00  0.00    +0.000 C 
ATOM     20  C   UNL     1      -4.284  11.180  16.367  0.00  0.00    +0.000 C 
ATOM     21  C   UNL     1      -3.878   9.321  17.984  0.00  0.00    +0.000 C 
ENDBRANCH  17  19
ENDBRANCH  13  17
ENDBRANCH   1  15
BRANCH   1  22
ATOM     22  C   UNL     1       0.850  11.007  21.094  0.00  0.00    +0.000 C 
BRANCH  22  23
ATOM     23  C   UNL     1      -0.166  11.716  21.967  0.00  0.00    +0.000 A 
ATOM     24  C   UNL     1      -0.344  13.103  21.862  0.00  0.00    +0.000 A 
ATOM     25  C   UNL     1      -1.434  13.721  22.474  0.00  0.00    +0.000 A 
ATOM     26  C   UNL     1      -2.320  12.971  23.242  0.00  0.00    +0.000 A 
ATOM     27  C   UNL     1      -2.097  11.608  23.439  0.00  0.00    +0.000 A 
ATOM     28  C   UNL     1      -1.024  10.983  22.799  0.00  0.00    +0.000 A 
BRANCH  26  29
ATOM     29  N   UNL     1      -3.521  13.590  23.697  0.00  0.00    +0.000 N 
ATOM     30  H   UNL     1      -3.629  13.668  24.707  0.00  0.00    +0.000 HD
BRANCH  29  31
ATOM     31  S   UNL     1      -4.958  13.019  23.022  0.00  0.00    +0.000 S 
ATOM     32  O   UNL     1      -4.698  12.413  21.739  0.00  0.00    +0.000 OA
ATOM     33  O   UNL     1      -5.644  12.301  24.072  0.00  0.00    +0.000 OA
BRANCH  31  34
ATOM     34  O   UNL     1      -5.787  14.360  22.716  0.00  0.00    +0.000 OA
ATOM     35  H   UNL     1      -6.261  14.216  21.872  0.00  0.00    +0.000 HD
ENDBRANCH  31  34
ENDBRANCH  29  31
ENDBRANCH  26  29
ENDBRANCH  22  23
ENDBRANCH   1  22
TORSDOF 10
ENDMDL
