MODEL 1
REMARK VINA RESULT:      -6.7      0.000      0.000
REMARK  Name = 
REMARK  2 active torsions:
REMARK  status: ('A' for Active; 'I' for Inactive)
REMARK    1  A    between atoms: C_1  and  C_2
REMARK    2  A    between atoms: C_9  and  N_10
REMARK                            x       y       z     vdW  Elec       q    Type
REMARK                         _______ _______ _______ _____ _____    ______ ____
ROOT
ATOM      1  C   UNL     1       3.691   8.297  17.571  0.00  0.00    +0.000 C 
ATOM      2  C   UNL     1       3.626   6.798  17.788  0.00  0.00    +0.000 A 
ATOM      3  C   UNL     1       2.889   6.224  18.867  0.00  0.00    +0.000 A 
ATOM      4  C   UNL     1       2.163   6.964  19.825  0.00  0.00    +0.000 A 
ATOM      5  N   UNL     1       1.453   6.453  20.857  0.00  0.00    +0.000 NA
ATOM      6  C   UNL     1       1.449   5.122  20.977  0.00  0.00    +0.000 A 
ATOM      7  C   UNL     1       2.115   4.281  20.103  0.00  0.00    +0.000 A 
ATOM      8  C   UNL     1       2.861   4.818  19.020  0.00  0.00    +0.000 A 
ATOM      9  C   UNL     1       3.594   4.047  18.067  0.00  0.00    +0.000 A 
ATOM     10  C   UNL     1       4.340   4.565  17.004  0.00  0.00    +0.000 A 
ATOM     11  N   UNL     1       5.045   3.779  16.156  0.00  0.00    +0.000 NA
ATOM     12  C   UNL     1       5.743   4.342  15.169  0.00  0.00    +0.000 A 
ATOM     13  N   UNL     1       6.503   3.531  14.366  0.00  0.00    +0.000 N 
ATOM     14  N   UNL     1       5.774   5.647  14.932  0.00  0.00    +0.000 NA
ATOM     15  C   UNL     1       5.084   6.420  15.789  0.00  0.00    +0.000 A 
ATOM     16  C   UNL     1       4.335   5.955  16.872  0.00  0.00    +0.000 A 
ATOM     17  H   UNL     1       6.226   2.562  14.381  0.00  0.00    +0.000 HD
ATOM     18  H   UNL     1       6.772   3.962  13.495  0.00  0.00    +0.000 HD
ENDROOT
BRANCH   9  19
ATOM     19  N   UNL     1       3.581   2.603  18.188  0.00  0.00    +0.000 N 
ATOM     20  O   UNL     1       4.373   2.099  18.995  0.00  0.00    +0.000 OA
ATOM     21  O   UNL     1       2.727   1.987  17.534  0.00  0.00    +0.000 OA
ENDBRANCH   9  19
TORSDOF 1
ENDMDL
MODEL 2
REMARK VINA RESULT:      -6.6      1.311      4.769
REMARK  Name = 
REMARK  2 active torsions:
REMARK  status: ('A' for Active; 'I' for Inactive)
REMARK    1  A    between atoms: C_1  and  C_2
REMARK    2  A    between atoms: C_9  and  N_10
REMARK                            x       y       z     vdW  Elec       q    Type
REMARK                         _______ _______ _______ _____ _____    ______ ____
ROOT
ATOM      1  C   UNL     1       2.942   7.717  18.090  0.00  0.00    +0.000 C 
ATOM      2  C   UNL     1       3.359   6.260  18.134  0.00  0.00    +0.000 A 
ATOM      3  C   UNL     1       4.282   5.711  17.193  0.00  0.00    +0.000 A 
ATOM      4  C   UNL     1       4.888   6.439  16.146  0.00  0.00    +0.000 A 
ATOM      5  N   UNL     1       5.766   5.952  15.240  0.00  0.00    +0.000 NA
ATOM      6  C   UNL     1       6.079   4.657  15.349  0.00  0.00    +0.000 A 
ATOM      7  C   UNL     1       5.560   3.834  16.332  0.00  0.00    +0.000 A 
ATOM      8  C   UNL     1       4.638   4.346  17.284  0.00  0.00    +0.000 A 
ATOM      9  C   UNL     1       4.032   3.585  18.329  0.00  0.00    +0.000 A 
ATOM     10  C   UNL     1       3.115   4.075  19.264  0.00  0.00    +0.000 A 
ATOM     11  N   UNL     1       2.548   3.290  20.211  0.00  0.00    +0.000 NA
ATOM     12  C   UNL     1       1.673   3.823  21.065  0.00  0.00    +0.000 A 
ATOM     13  N   UNL     1       1.061   2.994  21.970  0.00  0.00    +0.000 N 
ATOM     14  N   UNL     1       1.331   5.105  21.074  0.00  0.00    +0.000 NA
ATOM     15  C   UNL     1       1.888   5.872  20.121  0.00  0.00    +0.000 A 
ATOM     16  C   UNL     1       2.797   5.430  19.157  0.00  0.00    +0.000 A 
ATOM     17  H   UNL     1       1.550   2.128  22.129  0.00  0.00    +0.000 HD
ATOM     18  H   UNL     1       0.640   3.483  22.745  0.00  0.00    +0.000 HD
ENDROOT
BRANCH   9  19
ATOM     19  N   UNL     1       4.380   2.183  18.457  0.00  0.00    +0.000 N 
ATOM     20  O   UNL     1       5.136   1.874  19.386  0.00  0.00    +0.000 OA
ATOM     21  O   UNL     1       3.833   1.391  17.677  0.00  0.00    +0.000 OA
ENDBRANCH   9  19
TORSDOF 1
ENDMDL
MODEL 3
REMARK VINA RESULT:      -6.5      2.159      3.135
REMARK  Name = 
REMARK  2 active torsions:
REMARK  status: ('A' for Active; 'I' for Inactive)
REMARK    1  A    between atoms: C_1  and  C_2
REMARK    2  A    between atoms: C_9  and  N_10
REMARK                            x       y       z     vdW  Elec       q    Type
REMARK                         _______ _______ _______ _____ _____    ______ ____
ROOT
ATOM      1  C   UNL     1       3.904   6.974  16.960  0.00  0.00    +0.000 C 
ATOM      2  C   UNL     1       3.273   6.171  18.081  0.00  0.00    +0.000 A 
ATOM      3  C   UNL     1       2.504   6.791  19.111  0.00  0.00    +0.000 A 
ATOM      4  C   UNL     1       2.256   8.178  19.202  0.00  0.00    +0.000 A 
ATOM      5  N   UNL     1       1.531   8.798  20.162  0.00  0.00    +0.000 NA
ATOM      6  C   UNL     1       1.010   8.017  21.114  0.00  0.00    +0.000 A 
ATOM      7  C   UNL     1       1.174   6.644  21.139  0.00  0.00    +0.000 A 
ATOM      8  C   UNL     1       1.934   5.993  20.131  0.00  0.00    +0.000 A 
ATOM      9  C   UNL     1       2.177   4.587  20.066  0.00  0.00    +0.000 A 
ATOM     10  C   UNL     1       2.933   3.938  19.085  0.00  0.00    +0.000 A 
ATOM     11  N   UNL     1       3.156   2.602  19.101  0.00  0.00    +0.000 NA
ATOM     12  C   UNL     1       3.897   2.050  18.138  0.00  0.00    +0.000 A 
ATOM     13  N   UNL     1       4.165   0.708  18.214  0.00  0.00    +0.000 N 
ATOM     14  N   UNL     1       4.417   2.726  17.123  0.00  0.00    +0.000 NA
ATOM     15  C   UNL     1       4.203   4.054  17.124  0.00  0.00    +0.000 A 
ATOM     16  C   UNL     1       3.468   4.752  18.085  0.00  0.00    +0.000 A 
ATOM     17  H   UNL     1       3.528   0.194  18.802  0.00  0.00    +0.000 HD
ATOM     18  H   UNL     1       4.477   0.308  17.342  0.00  0.00    +0.000 HD
ENDROOT
BRANCH   9  19
ATOM     19  N   UNL     1       1.603   3.737  21.089  0.00  0.00    +0.000 N 
ATOM     20  O   UNL     1       0.560   3.136  20.801  0.00  0.00    +0.000 OA
ATOM     21  O   UNL     1       2.238   3.615  22.147  0.00  0.00    +0.000 OA
ENDBRANCH   9  19
TORSDOF 1
ENDMDL
MODEL 4
REMARK VINA RESULT:      -6.0      2.339      4.416
REMARK  Name = 
REMARK  2 active torsions:
REMARK  status: ('A' for Active; 'I' for Inactive)
REMARK    1  A    between atoms: C_1  and  C_2
REMARK    2  A    between atoms: C_9  and  N_10
REMARK                            x       y       z     vdW  Elec       q    Type
REMARK                         _______ _______ _______ _____ _____    ______ ____
ROOT
ATOM      1  C   UNL     1       1.122   5.314  20.653  0.00  0.00    +0.000 C 
ATOM      2  C   UNL     1       2.429   5.190  19.895  0.00  0.00    +0.000 A 
ATOM      3  C   UNL     1       2.859   6.184  18.965  0.00  0.00    +0.000 A 
ATOM      4  C   UNL     1       2.135   7.356  18.653  0.00  0.00    +0.000 A 
ATOM      5  N   UNL     1       2.512   8.317  17.780  0.00  0.00    +0.000 NA
ATOM      6  C   UNL     1       3.678   8.130  17.153  0.00  0.00    +0.000 A 
ATOM      7  C   UNL     1       4.486   7.028  17.372  0.00  0.00    +0.000 A 
ATOM      8  C   UNL     1       4.089   6.019  18.289  0.00  0.00    +0.000 A 
ATOM      9  C   UNL     1       4.837   4.838  18.581  0.00  0.00    +0.000 A 
ATOM     10  C   UNL     1       4.451   3.832  19.474  0.00  0.00    +0.000 A 
ATOM     11  N   UNL     1       5.191   2.716  19.679  0.00  0.00    +0.000 NA
ATOM     12  C   UNL     1       4.756   1.793  20.538  0.00  0.00    +0.000 A 
ATOM     13  N   UNL     1       5.488   0.641  20.677  0.00  0.00    +0.000 N 
ATOM     14  N   UNL     1       3.641   1.904  21.246  0.00  0.00    +0.000 NA
ATOM     15  C   UNL     1       2.906   3.008  21.024  0.00  0.00    +0.000 A 
ATOM     16  C   UNL     1       3.239   4.033  20.136  0.00  0.00    +0.000 A 
ATOM     17  H   UNL     1       6.444   0.721  20.369  0.00  0.00    +0.000 HD
ATOM     18  H   UNL     1       5.273   0.125  21.517  0.00  0.00    +0.000 HD
ENDROOT
BRANCH   9  19
ATOM     19  N   UNL     1       6.107   4.638  17.912  0.00  0.00    +0.000 N 
ATOM     20  O   UNL     1       7.130   4.901  18.558  0.00  0.00    +0.000 OA
ATOM     21  O   UNL     1       6.078   4.147  16.775  0.00  0.00    +0.000 OA
ENDBRANCH   9  19
TORSDOF 1
ENDMDL
MODEL 5
REMARK VINA RESULT:      -5.9      2.079      3.122
REMARK  Name = 
REMARK  2 active torsions:
REMARK  status: ('A' for Active; 'I' for Inactive)
REMARK    1  A    between atoms: C_1  and  C_2
REMARK    2  A    between atoms: C_9  and  N_10
REMARK                            x       y       z     vdW  Elec       q    Type
REMARK                         _______ _______ _______ _____ _____    ______ ____
ROOT
ATOM      1  C   UNL     1       4.455   6.828  16.278  0.00  0.00    +0.000 C 
ATOM      2  C   UNL     1       3.700   6.231  17.449  0.00  0.00    +0.000 A 
ATOM      3  C   UNL     1       2.926   7.036  18.337  0.00  0.00    +0.000 A 
ATOM      4  C   UNL     1       2.783   8.438  18.229  0.00  0.00    +0.000 A 
ATOM      5  N   UNL     1       2.057   9.230  19.050  0.00  0.00    +0.000 NA
ATOM      6  C   UNL     1       1.424   8.624  20.059  0.00  0.00    +0.000 A 
ATOM      7  C   UNL     1       1.477   7.259  20.274  0.00  0.00    +0.000 A 
ATOM      8  C   UNL     1       2.240   6.426  19.412  0.00  0.00    +0.000 A 
ATOM      9  C   UNL     1       2.375   5.011  19.547  0.00  0.00    +0.000 A 
ATOM     10  C   UNL     1       3.131   4.183  18.712  0.00  0.00    +0.000 A 
ATOM     11  N   UNL     1       3.247   2.849  18.917  0.00  0.00    +0.000 NA
ATOM     12  C   UNL     1       3.995   2.122  18.086  0.00  0.00    +0.000 A 
ATOM     13  N   UNL     1       4.153   0.787  18.354  0.00  0.00    +0.000 N 
ATOM     14  N   UNL     1       4.623   2.616  17.028  0.00  0.00    +0.000 NA
ATOM     15  C   UNL     1       4.514   3.943  16.841  0.00  0.00    +0.000 A 
ATOM     16  C   UNL     1       3.784   4.815  17.652  0.00  0.00    +0.000 A 
ATOM     17  H   UNL     1       3.445   0.403  18.961  0.00  0.00    +0.000 HD
ATOM     18  H   UNL     1       4.480   0.252  17.565  0.00  0.00    +0.000 HD
ENDROOT
BRANCH   9  19
ATOM     19  N   UNL     1       1.679   4.349  20.633  0.00  0.00    +0.000 N 
ATOM     20  O   UNL     1       2.278   4.257  21.712  0.00  0.00    +0.000 OA
ATOM     21  O   UNL     1       0.509   3.996  20.425  0.00  0.00    +0.000 OA
ENDBRANCH   9  19
TORSDOF 1
ENDMDL
MODEL 6
REMARK VINA RESULT:      -5.8      6.562      9.743
REMARK  Name = 
REMARK  2 active torsions:
REMARK  status: ('A' for Active; 'I' for Inactive)
REMARK    1  A    between atoms: C_1  and  C_2
REMARK    2  A    between atoms: C_9  and  N_10
REMARK                            x       y       z     vdW  Elec       q    Type
REMARK                         _______ _______ _______ _____ _____    ______ ____
ROOT
ATOM      1  C   UNL     1       0.205   9.391  23.098  0.00  0.00    +0.000 C 
ATOM      2  C   UNL     1      -0.131  10.098  21.800  0.00  0.00    +0.000 A 
ATOM      3  C   UNL     1       0.444   9.703  20.555  0.00  0.00    +0.000 A 
ATOM      4  C   UNL     1       1.365   8.644  20.398  0.00  0.00    +0.000 A 
ATOM      5  N   UNL     1       1.927   8.242  19.235  0.00  0.00    +0.000 NA
ATOM      6  C   UNL     1       1.578   8.920  18.138  0.00  0.00    +0.000 A 
ATOM      7  C   UNL     1       0.682   9.974  18.153  0.00  0.00    +0.000 A 
ATOM      8  C   UNL     1       0.091  10.396  19.374  0.00  0.00    +0.000 A 
ATOM      9  C   UNL     1      -0.833  11.476  19.507  0.00  0.00    +0.000 A 
ATOM     10  C   UNL     1      -1.412  11.908  20.705  0.00  0.00    +0.000 A 
ATOM     11  N   UNL     1      -2.256  12.965  20.768  0.00  0.00    +0.000 NA
ATOM     12  C   UNL     1      -2.763  13.328  21.948  0.00  0.00    +0.000 A 
ATOM     13  N   UNL     1      -3.560  14.443  21.997  0.00  0.00    +0.000 N 
ATOM     14  N   UNL     1      -2.520  12.694  23.087  0.00  0.00    +0.000 NA
ATOM     15  C   UNL     1      -1.669  11.655  23.016  0.00  0.00    +0.000 A 
ATOM     16  C   UNL     1      -1.055  11.193  21.849  0.00  0.00    +0.000 A 
ATOM     17  H   UNL     1      -3.953  14.706  21.107  0.00  0.00    +0.000 HD
ATOM     18  H   UNL     1      -4.123  14.500  22.831  0.00  0.00    +0.000 HD
ENDROOT
BRANCH   9  19
ATOM     19  N   UNL     1      -1.224  12.205  18.316  0.00  0.00    +0.000 N 
ATOM     20  O   UNL     1      -0.534  13.184  18.005  0.00  0.00    +0.000 OA
ATOM     21  O   UNL     1      -2.169  11.748  17.657  0.00  0.00    +0.000 OA
ENDBRANCH   9  19
TORSDOF 1
ENDMDL
MODEL 7
REMARK VINA RESULT:      -5.8      6.384      8.439
REMARK  Name = 
REMARK  2 active torsions:
REMARK  status: ('A' for Active; 'I' for Inactive)
REMARK    1  A    between atoms: C_1  and  C_2
REMARK    2  A    between atoms: C_9  and  N_10
REMARK                            x       y       z     vdW  Elec       q    Type
REMARK                         _______ _______ _______ _____ _____    ______ ____
ROOT
ATOM      1  C   UNL     1      -0.121   9.471  23.408  0.00  0.00    +0.000 C 
ATOM      2  C   UNL     1      -0.354  10.237  22.120  0.00  0.00    +0.000 A 
ATOM      3  C   UNL     1      -1.232  11.360  22.059  0.00  0.00    +0.000 A 
ATOM      4  C   UNL     1      -1.963  11.867  23.157  0.00  0.00    +0.000 A 
ATOM      5  N   UNL     1      -2.801  12.928  23.135  0.00  0.00    +0.000 NA
ATOM      6  C   UNL     1      -2.951  13.546  21.960  0.00  0.00    +0.000 A 
ATOM      7  C   UNL     1      -2.289  13.154  20.810  0.00  0.00    +0.000 A 
ATOM      8  C   UNL     1      -1.409  12.040  20.832  0.00  0.00    +0.000 A 
ATOM      9  C   UNL     1      -0.687  11.542  19.705  0.00  0.00    +0.000 A 
ATOM     10  C   UNL     1       0.173  10.439  19.713  0.00  0.00    +0.000 A 
ATOM     11  N   UNL     1       0.801   9.996  18.598  0.00  0.00    +0.000 NA
ATOM     12  C   UNL     1       1.600   8.930  18.678  0.00  0.00    +0.000 A 
ATOM     13  N   UNL     1       2.170   8.459  17.523  0.00  0.00    +0.000 N 
ATOM     14  N   UNL     1       1.855   8.276  19.803  0.00  0.00    +0.000 NA
ATOM     15  C   UNL     1       1.215   8.715  20.901  0.00  0.00    +0.000 A 
ATOM     16  C   UNL     1       0.338   9.801  20.943  0.00  0.00    +0.000 A 
ATOM     17  H   UNL     1       2.198   9.132  16.774  0.00  0.00    +0.000 HD
ATOM     18  H   UNL     1       2.958   7.851  17.681  0.00  0.00    +0.000 HD
ENDROOT
BRANCH   9  19
ATOM     19  N   UNL     1      -0.838  12.218  18.432  0.00  0.00    +0.000 N 
ATOM     20  O   UNL     1      -1.757  11.834  17.697  0.00  0.00    +0.000 OA
ATOM     21  O   UNL     1      -0.089  13.180  18.209  0.00  0.00    +0.000 OA
ENDBRANCH   9  19
TORSDOF 1
ENDMDL
MODEL 8
REMARK VINA RESULT:      -5.8      9.773     11.490
REMARK  Name = 
REMARK  2 active torsions:
REMARK  status: ('A' for Active; 'I' for Inactive)
REMARK    1  A    between atoms: C_1  and  C_2
REMARK    2  A    between atoms: C_9  and  N_10
REMARK                            x       y       z     vdW  Elec       q    Type
REMARK                         _______ _______ _______ _____ _____    ______ ____
ROOT
ATOM      1  C   UNL     1      -2.348  13.175  21.985  0.00  0.00    +0.000 C 
ATOM      2  C   UNL     1      -3.514  12.737  21.121  0.00  0.00    +0.000 A 
ATOM      3  C   UNL     1      -4.850  12.698  21.622  0.00  0.00    +0.000 A 
ATOM      4  C   UNL     1      -5.223  13.048  22.939  0.00  0.00    +0.000 A 
ATOM      5  N   UNL     1      -6.477  13.024  23.446  0.00  0.00    +0.000 NA
ATOM      6  C   UNL     1      -7.447  12.624  22.618  0.00  0.00    +0.000 A 
ATOM      7  C   UNL     1      -7.218  12.259  21.304  0.00  0.00    +0.000 A 
ATOM      8  C   UNL     1      -5.901  12.284  20.771  0.00  0.00    +0.000 A 
ATOM      9  C   UNL     1      -5.549  11.917  19.437  0.00  0.00    +0.000 A 
ATOM     10  C   UNL     1      -4.255  11.927  18.906  0.00  0.00    +0.000 A 
ATOM     11  N   UNL     1      -3.983  11.531  17.640  0.00  0.00    +0.000 NA
ATOM     12  C   UNL     1      -2.723  11.558  17.202  0.00  0.00    +0.000 A 
ATOM     13  N   UNL     1      -2.464  11.087  15.941  0.00  0.00    +0.000 N 
ATOM     14  N   UNL     1      -1.696  11.983  17.925  0.00  0.00    +0.000 NA
ATOM     15  C   UNL     1      -1.974  12.359  19.185  0.00  0.00    +0.000 A 
ATOM     16  C   UNL     1      -3.243  12.355  19.767  0.00  0.00    +0.000 A 
ATOM     17  H   UNL     1      -3.271  11.061  15.338  0.00  0.00    +0.000 HD
ATOM     18  H   UNL     1      -1.573  11.385  15.574  0.00  0.00    +0.000 HD
ENDROOT
BRANCH   9  19
ATOM     19  N   UNL     1      -6.601  11.495  18.534  0.00  0.00    +0.000 N 
ATOM     20  O   UNL     1      -7.076  12.356  17.783  0.00  0.00    +0.000 OA
ATOM     21  O   UNL     1      -6.892  10.290  18.526  0.00  0.00    +0.000 OA
ENDBRANCH   9  19
TORSDOF 1
ENDMDL
MODEL 9
REMARK VINA RESULT:      -5.7      1.876      2.062
REMARK  Name = 
REMARK  2 active torsions:
REMARK  status: ('A' for Active; 'I' for Inactive)
REMARK    1  A    between atoms: C_1  and  C_2
REMARK    2  A    between atoms: C_9  and  N_10
REMARK                            x       y       z     vdW  Elec       q    Type
REMARK                         _______ _______ _______ _____ _____    ______ ____
ROOT
ATOM      1  C   UNL     1       2.839   7.291  18.532  0.00  0.00    +0.000 C 
ATOM      2  C   UNL     1       3.265   5.865  18.821  0.00  0.00    +0.000 A 
ATOM      3  C   UNL     1       2.418   4.951  19.516  0.00  0.00    +0.000 A 
ATOM      4  C   UNL     1       1.128   5.263  20.001  0.00  0.00    +0.000 A 
ATOM      5  N   UNL     1       0.299   4.422  20.660  0.00  0.00    +0.000 NA
ATOM      6  C   UNL     1       0.753   3.183  20.875  0.00  0.00    +0.000 A 
ATOM      7  C   UNL     1       1.994   2.748  20.448  0.00  0.00    +0.000 A 
ATOM      8  C   UNL     1       2.865   3.631  19.755  0.00  0.00    +0.000 A 
ATOM      9  C   UNL     1       4.170   3.293  19.282  0.00  0.00    +0.000 A 
ATOM     10  C   UNL     1       5.039   4.157  18.609  0.00  0.00    +0.000 A 
ATOM     11  N   UNL     1       6.281   3.783  18.218  0.00  0.00    +0.000 NA
ATOM     12  C   UNL     1       7.062   4.663  17.589  0.00  0.00    +0.000 A 
ATOM     13  N   UNL     1       8.338   4.283  17.265  0.00  0.00    +0.000 N 
ATOM     14  N   UNL     1       6.690   5.899  17.284  0.00  0.00    +0.000 NA
ATOM     15  C   UNL     1       5.462   6.265  17.690  0.00  0.00    +0.000 A 
ATOM     16  C   UNL     1       4.561   5.447  18.376  0.00  0.00    +0.000 A 
ATOM     17  H   UNL     1       8.475   3.285  17.238  0.00  0.00    +0.000 HD
ATOM     18  H   UNL     1       8.769   4.868  16.565  0.00  0.00    +0.000 HD
ENDROOT
BRANCH   9  19
ATOM     19  N   UNL     1       4.659   1.946  19.503  0.00  0.00    +0.000 N 
ATOM     20  O   UNL     1       5.278   1.738  20.554  0.00  0.00    +0.000 OA
ATOM     21  O   UNL     1       4.354   1.088  18.662  0.00  0.00    +0.000 OA
ENDBRANCH   9  19
TORSDOF 1
ENDMDL
