MODEL 1
REMARK VINA RESULT:      -7.8      0.000      0.000
REMARK  Name = 
REMARK  3 active torsions:
REMARK  status: ('A' for Active; 'I' for Inactive)
REMARK    1  A    between atoms: C_1  and  C_2
REMARK    2  A    between atoms: C_5  and  S_6
REMARK    3  A    between atoms: S_6  and  N_9
REMARK                            x       y       z     vdW  Elec       q    Type
REMARK                         _______ _______ _______ _____ _____    ______ ____
ROOT
ATOM      1  S   UNL     1       2.753   3.661  18.338  0.00  0.00    +0.000 S 
ATOM      2  O   UNL     1       2.738   2.617  19.340  0.00  0.00    +0.000 OA
ATOM      3  O   UNL     1       1.937   3.515  17.144  0.00  0.00    +0.000 OA
ENDROOT
BRANCH   1   4
ATOM      4  N   UNL     1       4.346   4.003  17.871  0.00  0.00    +0.000 N 
ATOM      5  C   UNL     1       4.600   4.056  16.468  0.00  0.00    +0.000 A 
ATOM      6  C   UNL     1       5.856   4.176  16.024  0.00  0.00    +0.000 A 
ATOM      7 BR   UNL     1       6.238   4.215  14.195  0.00  0.00    +0.000 Br
ATOM      8  C   UNL     1       6.986   4.265  16.981  0.00  0.00    +0.000 A 
ATOM      9  O   UNL     1       8.162   4.244  16.635  0.00  0.00    +0.000 OA
ATOM     10  N   UNL     1       6.643   4.378  18.292  0.00  0.00    +0.000 N 
ATOM     11  C   UNL     1       5.386   4.214  18.794  0.00  0.00    +0.000 A 
ATOM     12  O   UNL     1       5.218   4.263  20.006  0.00  0.00    +0.000 OA
ATOM     13  H   UNL     1       7.392   4.448  18.963  0.00  0.00    +0.000 HD
ENDBRANCH   1   4
BRANCH   1  18
ATOM     14  C   UNL     1       1.320   8.856  21.142  0.00  0.00    +0.000 C 
ATOM     15  C   UNL     1       1.624   7.569  20.429  0.00  0.00    +0.000 A 
ATOM     16  C   UNL     1       1.363   6.337  21.041  0.00  0.00    +0.000 A 
ATOM     17  C   UNL     1       1.681   5.146  20.389  0.00  0.00    +0.000 A 
ATOM     18  C   UNL     1       2.251   5.183  19.113  0.00  0.00    +0.000 A 
ATOM     19  C   UNL     1       2.519   6.405  18.491  0.00  0.00    +0.000 A 
ATOM     20  C   UNL     1       2.202   7.595  19.152  0.00  0.00    +0.000 A 
ENDBRANCH   1  18
TORSDOF 2
ENDMDL
MODEL 2
REMARK VINA RESULT:      -7.6      0.244      1.137
REMARK  Name = 
REMARK  3 active torsions:
REMARK  status: ('A' for Active; 'I' for Inactive)
REMARK    1  A    between atoms: C_1  and  C_2
REMARK    2  A    between atoms: C_5  and  S_6
REMARK    3  A    between atoms: S_6  and  N_9
REMARK                            x       y       z     vdW  Elec       q    Type
REMARK                         _______ _______ _______ _____ _____    ______ ____
ROOT
ATOM      1  S   UNL     1       2.772   3.895  18.419  0.00  0.00    +0.000 S 
ATOM      2  O   UNL     1       2.739   2.864  19.433  0.00  0.00    +0.000 OA
ATOM      3  O   UNL     1       1.913   3.777  17.252  0.00  0.00    +0.000 OA
ENDROOT
BRANCH   1   4
ATOM      4  N   UNL     1       4.365   4.156  17.899  0.00  0.00    +0.000 N 
ATOM      5  C   UNL     1       4.577   4.181  16.488  0.00  0.00    +0.000 A 
ATOM      6  C   UNL     1       5.822   4.236  16.003  0.00  0.00    +0.000 A 
ATOM      7 BR   UNL     1       6.148   4.236  14.164  0.00  0.00    +0.000 Br
ATOM      8  C   UNL     1       6.984   4.282  16.924  0.00  0.00    +0.000 A 
ATOM      9  O   UNL     1       8.147   4.201  16.542  0.00  0.00    +0.000 OA
ATOM     10  N   UNL     1       6.688   4.427  18.244  0.00  0.00    +0.000 N 
ATOM     11  C   UNL     1       5.441   4.328  18.786  0.00  0.00    +0.000 A 
ATOM     12  O   UNL     1       5.314   4.399  20.002  0.00  0.00    +0.000 OA
ATOM     13  H   UNL     1       7.461   4.469  18.890  0.00  0.00    +0.000 HD
ENDBRANCH   1   4
BRANCH   1  18
ATOM     14  C   UNL     1       1.105   9.181  20.906  0.00  0.00    +0.000 C 
ATOM     15  C   UNL     1       1.567   7.882  20.309  0.00  0.00    +0.000 A 
ATOM     16  C   UNL     1       2.127   7.847  19.026  0.00  0.00    +0.000 A 
ATOM     17  C   UNL     1       2.521   6.633  18.463  0.00  0.00    +0.000 A 
ATOM     18  C   UNL     1       2.368   5.448  19.190  0.00  0.00    +0.000 A 
ATOM     19  C   UNL     1       1.809   5.468  20.470  0.00  0.00    +0.000 A 
ATOM     20  C   UNL     1       1.413   6.687  21.027  0.00  0.00    +0.000 A 
ENDBRANCH   1  18
TORSDOF 2
ENDMDL
MODEL 3
REMARK VINA RESULT:      -7.6      1.786      2.127
REMARK  Name = 
REMARK  3 active torsions:
REMARK  status: ('A' for Active; 'I' for Inactive)
REMARK    1  A    between atoms: C_1  and  C_2
REMARK    2  A    between atoms: C_5  and  S_6
REMARK    3  A    between atoms: S_6  and  N_9
REMARK                            x       y       z     vdW  Elec       q    Type
REMARK                         _______ _______ _______ _____ _____    ______ ____
ROOT
ATOM      1  S   UNL     1       4.769   4.116  18.204  0.00  0.00    +0.000 S 
ATOM      2  O   UNL     1       5.620   3.929  19.359  0.00  0.00    +0.000 OA
ATOM      3  O   UNL     1       3.913   3.026  17.765  0.00  0.00    +0.000 OA
ENDROOT
BRANCH   1   4
ATOM      4  N   UNL     1       5.683   4.657  16.882  0.00  0.00    +0.000 N 
ATOM      5  C   UNL     1       5.353   4.101  15.610  0.00  0.00    +0.000 A 
ATOM      6  C   UNL     1       6.121   4.367  14.548  0.00  0.00    +0.000 A 
ATOM      7 BR   UNL     1       5.745   3.633  12.872  0.00  0.00    +0.000 Br
ATOM      8  C   UNL     1       7.308   5.246  14.683  0.00  0.00    +0.000 A 
ATOM      9  O   UNL     1       8.120   5.420  13.780  0.00  0.00    +0.000 OA
ATOM     10  N   UNL     1       7.452   5.868  15.884  0.00  0.00    +0.000 N 
ATOM     11  C   UNL     1       6.726   5.592  17.005  0.00  0.00    +0.000 A 
ATOM     12  O   UNL     1       7.004   6.166  18.050  0.00  0.00    +0.000 OA
ATOM     13  H   UNL     1       8.247   6.476  15.999  0.00  0.00    +0.000 HD
ENDBRANCH   1   4
BRANCH   1  18
ATOM     14  C   UNL     1       1.364   8.993  19.439  0.00  0.00    +0.000 C 
ATOM     15  C   UNL     1       2.163   7.762  19.115  0.00  0.00    +0.000 A 
ATOM     16  C   UNL     1       2.249   6.707  20.030  0.00  0.00    +0.000 A 
ATOM     17  C   UNL     1       3.021   5.582  19.738  0.00  0.00    +0.000 A 
ATOM     18  C   UNL     1       3.701   5.504  18.518  0.00  0.00    +0.000 A 
ATOM     19  C   UNL     1       3.625   6.551  17.596  0.00  0.00    +0.000 A 
ATOM     20  C   UNL     1       2.853   7.676  17.897  0.00  0.00    +0.000 A 
ENDBRANCH   1  18
TORSDOF 2
ENDMDL
MODEL 4
REMARK VINA RESULT:      -7.6      1.840      2.479
REMARK  Name = 
REMARK  3 active torsions:
REMARK  status: ('A' for Active; 'I' for Inactive)
REMARK    1  A    between atoms: C_1  and  C_2
REMARK    2  A    between atoms: C_5  and  S_6
REMARK    3  A    between atoms: S_6  and  N_9
REMARK                            x       y       z     vdW  Elec       q    Type
REMARK                         _______ _______ _______ _____ _____    ______ ____
ROOT
ATOM      1  S   UNL     1       4.768   4.211  18.119  0.00  0.00    +0.000 S 
ATOM      2  O   UNL     1       5.632   3.934  19.245  0.00  0.00    +0.000 OA
ATOM      3  O   UNL     1       3.816   3.202  17.685  0.00  0.00    +0.000 OA
ENDROOT
BRANCH   1   4
ATOM      4  N   UNL     1       5.687   4.703  16.781  0.00  0.00    +0.000 N 
ATOM      5  C   UNL     1       5.330   4.137  15.521  0.00  0.00    +0.000 A 
ATOM      6  C   UNL     1       6.097   4.363  14.449  0.00  0.00    +0.000 A 
ATOM      7 BR   UNL     1       5.685   3.614  12.787  0.00  0.00    +0.000 Br
ATOM      8  C   UNL     1       7.311   5.207  14.560  0.00  0.00    +0.000 A 
ATOM      9  O   UNL     1       8.121   5.342  13.648  0.00  0.00    +0.000 OA
ATOM     10  N   UNL     1       7.483   5.843  15.749  0.00  0.00    +0.000 N 
ATOM     11  C   UNL     1       6.759   5.607  16.880  0.00  0.00    +0.000 A 
ATOM     12  O   UNL     1       7.063   6.189  17.914  0.00  0.00    +0.000 OA
ATOM     13  H   UNL     1       8.298   6.429  15.848  0.00  0.00    +0.000 HD
ENDBRANCH   1   4
BRANCH   1  18
ATOM     14  C   UNL     1       1.300   9.078  19.209  0.00  0.00    +0.000 C 
ATOM     15  C   UNL     1       2.199   7.900  18.960  0.00  0.00    +0.000 A 
ATOM     16  C   UNL     1       2.942   7.809  17.776  0.00  0.00    +0.000 A 
ATOM     17  C   UNL     1       3.748   6.696  17.535  0.00  0.00    +0.000 A 
ATOM     18  C   UNL     1       3.824   5.674  18.487  0.00  0.00    +0.000 A 
ATOM     19  C   UNL     1       3.087   5.752  19.671  0.00  0.00    +0.000 A 
ATOM     20  C   UNL     1       2.279   6.867  19.905  0.00  0.00    +0.000 A 
ENDBRANCH   1  18
TORSDOF 2
ENDMDL
MODEL 5
REMARK VINA RESULT:      -7.4      1.281      1.379
REMARK  Name = 
REMARK  3 active torsions:
REMARK  status: ('A' for Active; 'I' for Inactive)
REMARK    1  A    between atoms: C_1  and  C_2
REMARK    2  A    between atoms: C_5  and  S_6
REMARK    3  A    between atoms: S_6  and  N_9
REMARK                            x       y       z     vdW  Elec       q    Type
REMARK                         _______ _______ _______ _____ _____    ______ ____
ROOT
ATOM      1  S   UNL     1       4.183   3.311  18.580  0.00  0.00    +0.000 S 
ATOM      2  O   UNL     1       4.940   2.774  19.690  0.00  0.00    +0.000 OA
ATOM      3  O   UNL     1       3.251   2.451  17.870  0.00  0.00    +0.000 OA
ENDROOT
BRANCH   1   4
ATOM      4  N   UNL     1       5.225   4.032  17.453  0.00  0.00    +0.000 N 
ATOM      5  C   UNL     1       4.897   3.849  16.076  0.00  0.00    +0.000 A 
ATOM      6  C   UNL     1       5.747   4.262  15.130  0.00  0.00    +0.000 A 
ATOM      7 BR   UNL     1       5.374   4.013  13.316  0.00  0.00    +0.000 Br
ATOM      8  C   UNL     1       7.024   4.919  15.503  0.00  0.00    +0.000 A 
ATOM      9  O   UNL     1       7.898   5.199  14.689  0.00  0.00    +0.000 OA
ATOM     10  N   UNL     1       7.178   5.206  16.823  0.00  0.00    +0.000 N 
ATOM     11  C   UNL     1       6.366   4.764  17.825  0.00  0.00    +0.000 A 
ATOM     12  O   UNL     1       6.656   5.026  18.986  0.00  0.00    +0.000 OA
ATOM     13  H   UNL     1       8.035   5.660  17.102  0.00  0.00    +0.000 HD
ENDBRANCH   1   4
BRANCH   1  18
ATOM     14  C   UNL     1       1.223   8.141  20.774  0.00  0.00    +0.000 C 
ATOM     15  C   UNL     1       1.910   6.930  20.208  0.00  0.00    +0.000 A 
ATOM     16  C   UNL     1       1.893   5.714  20.900  0.00  0.00    +0.000 A 
ATOM     17  C   UNL     1       2.563   4.603  20.387  0.00  0.00    +0.000 A 
ATOM     18  C   UNL     1       3.242   4.703  19.169  0.00  0.00    +0.000 A 
ATOM     19  C   UNL     1       3.269   5.911  18.469  0.00  0.00    +0.000 A 
ATOM     20  C   UNL     1       2.599   7.021  18.990  0.00  0.00    +0.000 A 
ENDBRANCH   1  18
TORSDOF 2
ENDMDL
MODEL 6
REMARK VINA RESULT:      -7.3      1.271      1.755
REMARK  Name = 
REMARK  3 active torsions:
REMARK  status: ('A' for Active; 'I' for Inactive)
REMARK    1  A    between atoms: C_1  and  C_2
REMARK    2  A    between atoms: C_5  and  S_6
REMARK    3  A    between atoms: S_6  and  N_9
REMARK                            x       y       z     vdW  Elec       q    Type
REMARK                         _______ _______ _______ _____ _____    ______ ____
ROOT
ATOM      1  S   UNL     1       4.170   3.358  18.641  0.00  0.00    +0.000 S 
ATOM      2  O   UNL     1       4.929   2.734  19.703  0.00  0.00    +0.000 OA
ATOM      3  O   UNL     1       3.163   2.584  17.933  0.00  0.00    +0.000 OA
ENDROOT
BRANCH   1   4
ATOM      4  N   UNL     1       5.216   4.059  17.505  0.00  0.00    +0.000 N 
ATOM      5  C   UNL     1       4.871   3.886  16.131  0.00  0.00    +0.000 A 
ATOM      6  C   UNL     1       5.721   4.282  15.178  0.00  0.00    +0.000 A 
ATOM      7 BR   UNL     1       5.325   4.045  13.367  0.00  0.00    +0.000 Br
ATOM      8  C   UNL     1       7.015   4.911  15.539  0.00  0.00    +0.000 A 
ATOM      9  O   UNL     1       7.887   5.173  14.718  0.00  0.00    +0.000 OA
ATOM     10  N   UNL     1       7.188   5.192  16.859  0.00  0.00    +0.000 N 
ATOM     11  C   UNL     1       6.376   4.766  17.868  0.00  0.00    +0.000 A 
ATOM     12  O   UNL     1       6.683   5.019  19.026  0.00  0.00    +0.000 OA
ATOM     13  H   UNL     1       8.056   5.626  17.130  0.00  0.00    +0.000 HD
ENDBRANCH   1   4
BRANCH   1  18
ATOM     14  C   UNL     1       1.069   8.136  20.754  0.00  0.00    +0.000 C 
ATOM     15  C   UNL     1       1.879   6.973  20.256  0.00  0.00    +0.000 A 
ATOM     16  C   UNL     1       2.604   7.069  19.062  0.00  0.00    +0.000 A 
ATOM     17  C   UNL     1       3.326   5.974  18.586  0.00  0.00    +0.000 A 
ATOM     18  C   UNL     1       3.336   4.780  19.314  0.00  0.00    +0.000 A 
ATOM     19  C   UNL     1       2.615   4.669  20.505  0.00  0.00    +0.000 A 
ATOM     20  C   UNL     1       1.891   5.768  20.974  0.00  0.00    +0.000 A 
ENDBRANCH   1  18
TORSDOF 2
ENDMDL
MODEL 7
REMARK VINA RESULT:      -7.2      2.859      6.290
REMARK  Name = 
REMARK  3 active torsions:
REMARK  status: ('A' for Active; 'I' for Inactive)
REMARK    1  A    between atoms: C_1  and  C_2
REMARK    2  A    between atoms: C_5  and  S_6
REMARK    3  A    between atoms: S_6  and  N_9
REMARK                            x       y       z     vdW  Elec       q    Type
REMARK                         _______ _______ _______ _____ _____    ______ ____
ROOT
ATOM      1  S   UNL     1       6.951   5.623  17.337  0.00  0.00    +0.000 S 
ATOM      2  O   UNL     1       7.790   4.674  18.034  0.00  0.00    +0.000 OA
ATOM      3  O   UNL     1       7.437   6.975  17.110  0.00  0.00    +0.000 OA
ENDROOT
BRANCH   1   4
ATOM      4  N   UNL     1       5.426   5.710  18.072  0.00  0.00    +0.000 N 
ATOM      5  C   UNL     1       4.578   6.780  17.657  0.00  0.00    +0.000 A 
ATOM      6  C   UNL     1       3.423   6.999  18.293  0.00  0.00    +0.000 A 
ATOM      7 BR   UNL     1       2.300   8.410  17.805  0.00  0.00    +0.000 Br
ATOM      8  C   UNL     1       3.011   6.130  19.422  0.00  0.00    +0.000 A 
ATOM      9  O   UNL     1       2.033   6.360  20.125  0.00  0.00    +0.000 OA
ATOM     10  N   UNL     1       3.789   5.036  19.641  0.00  0.00    +0.000 N 
ATOM     11  C   UNL     1       4.997   4.798  19.053  0.00  0.00    +0.000 A 
ATOM     12  O   UNL     1       5.640   3.813  19.393  0.00  0.00    +0.000 OA
ATOM     13  H   UNL     1       3.527   4.424  20.398  0.00  0.00    +0.000 HD
ENDBRANCH   1   4
BRANCH   1  18
ATOM     14  C   UNL     1       5.826   3.088  11.932  0.00  0.00    +0.000 C 
ATOM     15  C   UNL     1       6.076   3.757  13.253  0.00  0.00    +0.000 A 
ATOM     16  C   UNL     1       7.157   4.631  13.416  0.00  0.00    +0.000 A 
ATOM     17  C   UNL     1       7.405   5.222  14.655  0.00  0.00    +0.000 A 
ATOM     18  C   UNL     1       6.560   4.950  15.736  0.00  0.00    +0.000 A 
ATOM     19  C   UNL     1       5.479   4.079  15.588  0.00  0.00    +0.000 A 
ATOM     20  C   UNL     1       5.238   3.487  14.345  0.00  0.00    +0.000 A 
ENDBRANCH   1  18
TORSDOF 2
ENDMDL
MODEL 8
REMARK VINA RESULT:      -7.2      2.840      6.184
REMARK  Name = 
REMARK  3 active torsions:
REMARK  status: ('A' for Active; 'I' for Inactive)
REMARK    1  A    between atoms: C_1  and  C_2
REMARK    2  A    between atoms: C_5  and  S_6
REMARK    3  A    between atoms: S_6  and  N_9
REMARK                            x       y       z     vdW  Elec       q    Type
REMARK                         _______ _______ _______ _____ _____    ______ ____
ROOT
ATOM      1  S   UNL     1       7.021   5.674  17.403  0.00  0.00    +0.000 S 
ATOM      2  O   UNL     1       7.895   4.820  18.179  0.00  0.00    +0.000 OA
ATOM      3  O   UNL     1       7.437   7.034  17.100  0.00  0.00    +0.000 OA
ENDROOT
BRANCH   1   4
ATOM      4  N   UNL     1       5.476   5.719  18.098  0.00  0.00    +0.000 N 
ATOM      5  C   UNL     1       4.614   6.771  17.665  0.00  0.00    +0.000 A 
ATOM      6  C   UNL     1       3.437   6.959  18.272  0.00  0.00    +0.000 A 
ATOM      7 BR   UNL     1       2.293   8.344  17.760  0.00  0.00    +0.000 Br
ATOM      8  C   UNL     1       3.017   6.073  19.385  0.00  0.00    +0.000 A 
ATOM      9  O   UNL     1       2.015   6.275  20.063  0.00  0.00    +0.000 OA
ATOM     10  N   UNL     1       3.815   4.997  19.619  0.00  0.00    +0.000 N 
ATOM     11  C   UNL     1       5.043   4.792  19.062  0.00  0.00    +0.000 A 
ATOM     12  O   UNL     1       5.701   3.821  19.415  0.00  0.00    +0.000 OA
ATOM     13  H   UNL     1       3.548   4.375  20.367  0.00  0.00    +0.000 HD
ENDBRANCH   1   4
BRANCH   1  18
ATOM     14  C   UNL     1       5.729   3.182  12.016  0.00  0.00    +0.000 C 
ATOM     15  C   UNL     1       6.080   3.756  13.359  0.00  0.00    +0.000 A 
ATOM     16  C   UNL     1       5.350   3.399  14.499  0.00  0.00    +0.000 A 
ATOM     17  C   UNL     1       5.658   3.964  15.737  0.00  0.00    +0.000 A 
ATOM     18  C   UNL     1       6.710   4.879  15.841  0.00  0.00    +0.000 A 
ATOM     19  C   UNL     1       7.445   5.246  14.711  0.00  0.00    +0.000 A 
ATOM     20  C   UNL     1       7.129   4.680  13.473  0.00  0.00    +0.000 A 
ENDBRANCH   1  18
TORSDOF 2
ENDMDL
MODEL 9
REMARK VINA RESULT:      -7.1      2.528      5.524
REMARK  Name = 
REMARK  3 active torsions:
REMARK  status: ('A' for Active; 'I' for Inactive)
REMARK    1  A    between atoms: C_1  and  C_2
REMARK    2  A    between atoms: C_5  and  S_6
REMARK    3  A    between atoms: S_6  and  N_9
REMARK                            x       y       z     vdW  Elec       q    Type
REMARK                         _______ _______ _______ _____ _____    ______ ____
ROOT
ATOM      1  S   UNL     1       4.117   3.299  18.977  0.00  0.00    +0.000 S 
ATOM      2  O   UNL     1       3.249   2.239  18.510  0.00  0.00    +0.000 OA
ATOM      3  O   UNL     1       5.099   3.014  20.010  0.00  0.00    +0.000 OA
ENDROOT
BRANCH   1   4
ATOM      4  N   UNL     1       3.198   4.642  19.455  0.00  0.00    +0.000 N 
ATOM      5  C   UNL     1       3.179   5.751  18.558  0.00  0.00    +0.000 A 
ATOM      6  C   UNL     1       2.599   6.897  18.930  0.00  0.00    +0.000 A 
ATOM      7 BR   UNL     1       2.580   8.385  17.800  0.00  0.00    +0.000 Br
ATOM      8  C   UNL     1       1.965   7.019  20.265  0.00  0.00    +0.000 A 
ATOM      9  O   UNL     1       1.535   8.077  20.711  0.00  0.00    +0.000 OA
ATOM     10  N   UNL     1       1.877   5.868  20.986  0.00  0.00    +0.000 N 
ATOM     11  C   UNL     1       2.494   4.693  20.671  0.00  0.00    +0.000 A 
ATOM     12  O   UNL     1       2.403   3.748  21.444  0.00  0.00    +0.000 OA
ATOM     13  H   UNL     1       1.444   5.922  21.895  0.00  0.00    +0.000 HD
ENDBRANCH   1   4
BRANCH   1  18
ATOM     14  C   UNL     1       7.346   5.189  14.192  0.00  0.00    +0.000 C 
ATOM     15  C   UNL     1       6.530   4.772  15.382  0.00  0.00    +0.000 A 
ATOM     16  C   UNL     1       7.061   4.859  16.675  0.00  0.00    +0.000 A 
ATOM     17  C   UNL     1       6.311   4.436  17.773  0.00  0.00    +0.000 A 
ATOM     18  C   UNL     1       5.019   3.936  17.581  0.00  0.00    +0.000 A 
ATOM     19  C   UNL     1       4.479   3.842  16.297  0.00  0.00    +0.000 A 
ATOM     20  C   UNL     1       5.236   4.263  15.201  0.00  0.00    +0.000 A 
ENDBRANCH   1  18
TORSDOF 2
ENDMDL
