MODEL 1
REMARK VINA RESULT:      -7.4      0.000      0.000
REMARK  Name = 
REMARK  8 active torsions:
REMARK  status: ('A' for Active; 'I' for Inactive)
REMARK    1  A    between atoms: C_1  and  O_2
REMARK    2  A    between atoms: O_2  and  C_3
REMARK    3  A    between atoms: C_6  and  C_7
REMARK    4  A    between atoms: C_8  and  C_9
REMARK    5  A    between atoms: C_9  and  N_10
REMARK    6  A    between atoms: N_10  and  C_11
REMARK    7  A    between atoms: N_10  and  C_12
REMARK    8  A    between atoms: C_12  and  C_13
REMARK                            x       y       z     vdW  Elec       q    Type
REMARK                         _______ _______ _______ _____ _____    ______ ____
ROOT
ATOM      1  N   UNL     1       5.023   5.172  16.063  0.00  0.00    +0.000 NA
ATOM      2  C   UNL     1       5.890   5.333  14.889  0.00  0.00    +0.000 C 
ENDROOT
BRANCH   1   3
ATOM      3  C   UNL     1       5.444   6.029  17.179  0.00  0.00    +0.000 C 
BRANCH   3   5
ATOM      4  C   UNL     1       3.324   6.779  18.265  0.00  0.00    +0.000 C 
ATOM      5  C   UNL     1       4.397   7.048  17.507  0.00  0.00    +0.000 C 
BRANCH   4   9
ATOM      6  C   UNL     1       0.540   9.754  19.564  0.00  0.00    +0.000 A 
ATOM      7  C   UNL     1       1.057   8.818  20.456  0.00  0.00    +0.000 A 
ATOM      8  C   UNL     1       1.959   7.847  20.020  0.00  0.00    +0.000 A 
ATOM      9  C   UNL     1       2.341   7.785  18.678  0.00  0.00    +0.000 A 
ATOM     10  C   UNL     1       1.823   8.732  17.784  0.00  0.00    +0.000 A 
ATOM     11  C   UNL     1       0.922   9.706  18.223  0.00  0.00    +0.000 A 
BRANCH   6  13
ATOM     12  C   UNL     1      -0.290  10.793  21.522  0.00  0.00    +0.000 C 
ATOM     13  O   UNL     1      -0.344  10.649  20.106  0.00  0.00    +0.000 OA
ENDBRANCH   6  13
ENDBRANCH   4   9
ENDBRANCH   3   5
ENDBRANCH   1   3
BRANCH   1  14
ATOM     14  C   UNL     1       5.041   3.766  16.482  0.00  0.00    +0.000 C 
BRANCH  14  15
ATOM     15  C   UNL     1       3.851   3.353  17.306  0.00  0.00    +0.000 A 
ATOM     16  C   UNL     1       2.528   3.644  16.946  0.00  0.00    +0.000 A 
ATOM     17  C   UNL     1       1.506   3.506  17.891  0.00  0.00    +0.000 A 
ATOM     18  C   UNL     1       1.808   3.158  19.209  0.00  0.00    +0.000 A 
ATOM     19  C   UNL     1       3.121   2.866  19.550  0.00  0.00    +0.000 A 
ATOM     20  C   UNL     1       4.112   2.864  18.589  0.00  0.00    +0.000 A 
ATOM     21  O   UNL     1       3.574   2.731  20.822  0.00  0.00    +0.000 OA
ATOM     22  C   UNL     1       2.563   2.428  21.755  0.00  0.00    +0.000 C 
ATOM     23  C   UNL     1       1.146   2.906  21.446  0.00  0.00    +0.000 C 
ATOM     24  O   UNL     1       0.781   3.151  20.092  0.00  0.00    +0.000 OA
ENDBRANCH  14  15
ENDBRANCH   1  14
TORSDOF 6
ENDMDL
MODEL 2
REMARK VINA RESULT:      -7.3      0.517      1.145
REMARK  Name = 
REMARK  8 active torsions:
REMARK  status: ('A' for Active; 'I' for Inactive)
REMARK    1  A    between atoms: C_1  and  O_2
REMARK    2  A    between atoms: O_2  and  C_3
REMARK    3  A    between atoms: C_6  and  C_7
REMARK    4  A    between atoms: C_8  and  C_9
REMARK    5  A    between atoms: C_9  and  N_10
REMARK    6  A    between atoms: N_10  and  C_11
REMARK    7  A    between atoms: N_10  and  C_12
REMARK    8  A    between atoms: C_12  and  C_13
REMARK                            x       y       z     vdW  Elec       q    Type
REMARK                         _______ _______ _______ _____ _____    ______ ____
ROOT
ATOM      1  N   UNL     1       5.037   5.192  16.150  0.00  0.00    +0.000 NA
ATOM      2  C   UNL     1       5.850   5.408  14.947  0.00  0.00    +0.000 C 
ENDROOT
BRANCH   1   3
ATOM      3  C   UNL     1       5.577   5.904  17.314  0.00  0.00    +0.000 C 
BRANCH   3   5
ATOM      4  C   UNL     1       3.343   6.755  18.035  0.00  0.00    +0.000 C 
ATOM      5  C   UNL     1       4.640   6.975  17.779  0.00  0.00    +0.000 C 
BRANCH   4   9
ATOM      6  C   UNL     1       0.605   9.673  19.544  0.00  0.00    +0.000 A 
ATOM      7  C   UNL     1       0.989   9.676  18.205  0.00  0.00    +0.000 A 
ATOM      8  C   UNL     1       1.888   8.723  17.726  0.00  0.00    +0.000 A 
ATOM      9  C   UNL     1       2.434   7.766  18.584  0.00  0.00    +0.000 A 
ATOM     10  C   UNL     1       2.042   7.764  19.929  0.00  0.00    +0.000 A 
ATOM     11  C   UNL     1       1.138   8.716  20.408  0.00  0.00    +0.000 A 
BRANCH   6  13
ATOM     12  C   UNL     1      -1.161  11.100  18.875  0.00  0.00    +0.000 C 
ATOM     13  O   UNL     1      -0.273  10.662  19.900  0.00  0.00    +0.000 OA
ENDBRANCH   6  13
ENDBRANCH   4   9
ENDBRANCH   3   5
ENDBRANCH   1   3
BRANCH   1  14
ATOM     14  C   UNL     1       4.975   3.753  16.432  0.00  0.00    +0.000 C 
BRANCH  14  15
ATOM     15  C   UNL     1       3.805   3.343  17.286  0.00  0.00    +0.000 A 
ATOM     16  C   UNL     1       2.474   3.649  16.966  0.00  0.00    +0.000 A 
ATOM     17  C   UNL     1       1.479   3.511  17.938  0.00  0.00    +0.000 A 
ATOM     18  C   UNL     1       1.815   3.147  19.244  0.00  0.00    +0.000 A 
ATOM     19  C   UNL     1       3.134   2.840  19.545  0.00  0.00    +0.000 A 
ATOM     20  C   UNL     1       4.097   2.839  18.556  0.00  0.00    +0.000 A 
ATOM     21  O   UNL     1       3.622   2.689  20.803  0.00  0.00    +0.000 OA
ATOM     22  C   UNL     1       2.635   2.386  21.761  0.00  0.00    +0.000 C 
ATOM     23  C   UNL     1       1.214   2.879  21.496  0.00  0.00    +0.000 C 
ATOM     24  O   UNL     1       0.813   3.141  20.156  0.00  0.00    +0.000 OA
ENDBRANCH  14  15
ENDBRANCH   1  14
TORSDOF 6
ENDMDL
MODEL 3
REMARK VINA RESULT:      -7.2      2.354      4.252
REMARK  Name = 
REMARK  8 active torsions:
REMARK  status: ('A' for Active; 'I' for Inactive)
REMARK    1  A    between atoms: C_1  and  O_2
REMARK    2  A    between atoms: O_2  and  C_3
REMARK    3  A    between atoms: C_6  and  C_7
REMARK    4  A    between atoms: C_8  and  C_9
REMARK    5  A    between atoms: C_9  and  N_10
REMARK    6  A    between atoms: N_10  and  C_11
REMARK    7  A    between atoms: N_10  and  C_12
REMARK    8  A    between atoms: C_12  and  C_13
REMARK                            x       y       z     vdW  Elec       q    Type
REMARK                         _______ _______ _______ _____ _____    ______ ____
ROOT
ATOM      1  N   UNL     1       1.825   2.395  19.902  0.00  0.00    +0.000 NA
ATOM      2  C   UNL     1       0.842   2.838  18.905  0.00  0.00    +0.000 C 
ENDROOT
BRANCH   1   3
ATOM      3  C   UNL     1       1.965   3.358  21.002  0.00  0.00    +0.000 C 
BRANCH   3   5
ATOM      4  C   UNL     1       2.259   5.822  20.718  0.00  0.00    +0.000 C 
ATOM      5  C   UNL     1       1.502   4.721  20.593  0.00  0.00    +0.000 C 
BRANCH   4   9
ATOM      6  C   UNL     1       1.045   9.632  19.203  0.00  0.00    +0.000 A 
ATOM      7  C   UNL     1       1.791   8.754  18.420  0.00  0.00    +0.000 A 
ATOM      8  C   UNL     1       2.188   7.516  18.927  0.00  0.00    +0.000 A 
ATOM      9  C   UNL     1       1.862   7.147  20.234  0.00  0.00    +0.000 A 
ATOM     10  C   UNL     1       1.107   8.031  21.017  0.00  0.00    +0.000 A 
ATOM     11  C   UNL     1       0.707   9.269  20.507  0.00  0.00    +0.000 A 
BRANCH   6  13
ATOM     12  C   UNL     1       1.654  11.882  18.793  0.00  0.00    +0.000 C 
ATOM     13  O   UNL     1       0.724  10.819  18.601  0.00  0.00    +0.000 OA
ENDBRANCH   6  13
ENDBRANCH   4   9
ENDBRANCH   3   5
ENDBRANCH   1   3
BRANCH   1  14
ATOM     14  C   UNL     1       3.121   2.203  19.242  0.00  0.00    +0.000 C 
BRANCH  14  15
ATOM     15  C   UNL     1       3.747   3.473  18.732  0.00  0.00    +0.000 A 
ATOM     16  C   UNL     1       3.381   4.079  17.521  0.00  0.00    +0.000 A 
ATOM     17  C   UNL     1       4.199   5.068  16.966  0.00  0.00    +0.000 A 
ATOM     18  C   UNL     1       5.415   5.398  17.570  0.00  0.00    +0.000 A 
ATOM     19  C   UNL     1       5.761   4.796  18.771  0.00  0.00    +0.000 A 
ATOM     20  C   UNL     1       4.892   3.923  19.395  0.00  0.00    +0.000 A 
ATOM     21  O   UNL     1       6.992   4.863  19.340  0.00  0.00    +0.000 OA
ATOM     22  C   UNL     1       7.760   5.959  18.901  0.00  0.00    +0.000 C 
ATOM     23  C   UNL     1       7.481   6.506  17.502  0.00  0.00    +0.000 C 
ATOM     24  O   UNL     1       6.204   6.284  16.917  0.00  0.00    +0.000 OA
ENDBRANCH  14  15
ENDBRANCH   1  14
TORSDOF 6
ENDMDL
MODEL 4
REMARK VINA RESULT:      -7.1      2.892      5.265
REMARK  Name = 
REMARK  8 active torsions:
REMARK  status: ('A' for Active; 'I' for Inactive)
REMARK    1  A    between atoms: C_1  and  O_2
REMARK    2  A    between atoms: O_2  and  C_3
REMARK    3  A    between atoms: C_6  and  C_7
REMARK    4  A    between atoms: C_8  and  C_9
REMARK    5  A    between atoms: C_9  and  N_10
REMARK    6  A    between atoms: N_10  and  C_11
REMARK    7  A    between atoms: N_10  and  C_12
REMARK    8  A    between atoms: C_12  and  C_13
REMARK                            x       y       z     vdW  Elec       q    Type
REMARK                         _______ _______ _______ _____ _____    ______ ____
ROOT
ATOM      1  N   UNL     1       3.964   2.954  18.550  0.00  0.00    +0.000 NA
ATOM      2  C   UNL     1       3.408   1.625  18.271  0.00  0.00    +0.000 C 
ENDROOT
BRANCH   1   3
ATOM      3  C   UNL     1       3.329   3.584  19.714  0.00  0.00    +0.000 C 
BRANCH   3   5
ATOM      4  C   UNL     1       2.710   5.964  20.146  0.00  0.00    +0.000 C 
ATOM      5  C   UNL     1       2.691   4.887  19.347  0.00  0.00    +0.000 C 
BRANCH   4   9
ATOM      6  C   UNL     1       1.096   9.733  18.931  0.00  0.00    +0.000 A 
ATOM      7  C   UNL     1       1.811   8.939  18.038  0.00  0.00    +0.000 A 
ATOM      8  C   UNL     1       2.339   7.714  18.447  0.00  0.00    +0.000 A 
ATOM      9  C   UNL     1       2.178   7.275  19.763  0.00  0.00    +0.000 A 
ATOM     10  C   UNL     1       1.453   8.075  20.657  0.00  0.00    +0.000 A 
ATOM     11  C   UNL     1       0.921   9.300  20.245  0.00  0.00    +0.000 A 
BRANCH   6  13
ATOM     12  C   UNL     1       1.155  12.098  19.022  0.00  0.00    +0.000 C 
ATOM     13  O   UNL     1       0.636  10.917  18.417  0.00  0.00    +0.000 OA
ENDBRANCH   6  13
ENDBRANCH   4   9
ENDBRANCH   3   5
ENDBRANCH   1   3
BRANCH   1  14
ATOM     14  C   UNL     1       3.786   3.803  17.366  0.00  0.00    +0.000 C 
BRANCH  14  15
ATOM     15  C   UNL     1       5.062   4.105  16.627  0.00  0.00    +0.000 A 
ATOM     16  C   UNL     1       5.977   5.084  17.040  0.00  0.00    +0.000 A 
ATOM     17  C   UNL     1       6.971   5.520  16.158  0.00  0.00    +0.000 A 
ATOM     18  C   UNL     1       7.007   5.043  14.846  0.00  0.00    +0.000 A 
ATOM     19  C   UNL     1       6.100   4.070  14.453  0.00  0.00    +0.000 A 
ATOM     20  C   UNL     1       5.207   3.535  15.359  0.00  0.00    +0.000 A 
ATOM     21  O   UNL     1       5.889   3.688  13.167  0.00  0.00    +0.000 OA
ATOM     22  C   UNL     1       6.964   3.981  12.305  0.00  0.00    +0.000 C 
ATOM     23  C   UNL     1       7.858   5.167  12.663  0.00  0.00    +0.000 C 
ATOM     24  O   UNL     1       7.928   5.592  14.019  0.00  0.00    +0.000 OA
ENDBRANCH  14  15
ENDBRANCH   1  14
TORSDOF 6
ENDMDL
MODEL 5
REMARK VINA RESULT:      -7.1      2.360      4.142
REMARK  Name = 
REMARK  8 active torsions:
REMARK  status: ('A' for Active; 'I' for Inactive)
REMARK    1  A    between atoms: C_1  and  O_2
REMARK    2  A    between atoms: O_2  and  C_3
REMARK    3  A    between atoms: C_6  and  C_7
REMARK    4  A    between atoms: C_8  and  C_9
REMARK    5  A    between atoms: C_9  and  N_10
REMARK    6  A    between atoms: N_10  and  C_11
REMARK    7  A    between atoms: N_10  and  C_12
REMARK    8  A    between atoms: C_12  and  C_13
REMARK                            x       y       z     vdW  Elec       q    Type
REMARK                         _______ _______ _______ _____ _____    ______ ____
ROOT
ATOM      1  N   UNL     1       2.271   2.186  19.452  0.00  0.00    +0.000 NA
ATOM      2  C   UNL     1       1.266   2.550  18.446  0.00  0.00    +0.000 C 
ENDROOT
BRANCH   1   3
ATOM      3  C   UNL     1       2.297   3.135  20.572  0.00  0.00    +0.000 C 
BRANCH   3   5
ATOM      4  C   UNL     1       2.367   5.632  20.565  0.00  0.00    +0.000 C 
ATOM      5  C   UNL     1       1.806   4.485  20.152  0.00  0.00    +0.000 C 
BRANCH   4   9
ATOM      6  C   UNL     1       1.247   9.553  19.280  0.00  0.00    +0.000 A 
ATOM      7  C   UNL     1       0.919   9.096  20.554  0.00  0.00    +0.000 A 
ATOM      8  C   UNL     1       1.283   7.812  20.960  0.00  0.00    +0.000 A 
ATOM      9  C   UNL     1       1.963   6.957  20.089  0.00  0.00    +0.000 A 
ATOM     10  C   UNL     1       2.295   7.423  18.810  0.00  0.00    +0.000 A 
ATOM     11  C   UNL     1       1.933   8.711  18.405  0.00  0.00    +0.000 A 
BRANCH   6  13
ATOM     12  C   UNL     1       0.880  11.754  20.071  0.00  0.00    +0.000 C 
ATOM     13  O   UNL     1       0.827  10.825  18.992  0.00  0.00    +0.000 OA
ENDBRANCH   6  13
ENDBRANCH   4   9
ENDBRANCH   3   5
ENDBRANCH   1   3
BRANCH   1  14
ATOM     14  C   UNL     1       3.591   2.136  18.812  0.00  0.00    +0.000 C 
BRANCH  14  15
ATOM     15  C   UNL     1       4.106   3.475  18.358  0.00  0.00    +0.000 A 
ATOM     16  C   UNL     1       3.748   4.063  17.136  0.00  0.00    +0.000 A 
ATOM     17  C   UNL     1       4.487   5.144  16.644  0.00  0.00    +0.000 A 
ATOM     18  C   UNL     1       5.624   5.587  17.324  0.00  0.00    +0.000 A 
ATOM     19  C   UNL     1       5.963   5.001  18.534  0.00  0.00    +0.000 A 
ATOM     20  C   UNL     1       5.157   4.029  19.093  0.00  0.00    +0.000 A 
ATOM     21  O   UNL     1       7.145   5.186  19.175  0.00  0.00    +0.000 OA
ATOM     22  C   UNL     1       7.816   6.365  18.798  0.00  0.00    +0.000 C 
ATOM     23  C   UNL     1       7.561   6.908  17.393  0.00  0.00    +0.000 C 
ATOM     24  O   UNL     1       6.350   6.565  16.730  0.00  0.00    +0.000 OA
ENDBRANCH  14  15
ENDBRANCH   1  14
TORSDOF 6
ENDMDL
MODEL 6
REMARK VINA RESULT:      -6.9      5.194      6.047
REMARK  Name = 
REMARK  8 active torsions:
REMARK  status: ('A' for Active; 'I' for Inactive)
REMARK    1  A    between atoms: C_1  and  O_2
REMARK    2  A    between atoms: O_2  and  C_3
REMARK    3  A    between atoms: C_6  and  C_7
REMARK    4  A    between atoms: C_8  and  C_9
REMARK    5  A    between atoms: C_9  and  N_10
REMARK    6  A    between atoms: N_10  and  C_11
REMARK    7  A    between atoms: N_10  and  C_12
REMARK    8  A    between atoms: C_12  and  C_13
REMARK                            x       y       z     vdW  Elec       q    Type
REMARK                         _______ _______ _______ _____ _____    ______ ____
ROOT
ATOM      1  N   UNL     1       6.764   6.756  16.656  0.00  0.00    +0.000 NA
ATOM      2  C   UNL     1       7.057   5.382  16.231  0.00  0.00    +0.000 C 
ENDROOT
BRANCH   1   3
ATOM      3  C   UNL     1       7.591   7.167  17.796  0.00  0.00    +0.000 C 
BRANCH   3   5
ATOM      4  C   UNL     1       8.665   9.255  18.648  0.00  0.00    +0.000 C 
ATOM      5  C   UNL     1       7.993   8.605  17.686  0.00  0.00    +0.000 C 
BRANCH   4   9
ATOM      6  C   UNL     1      10.201  13.223  18.226  0.00  0.00    +0.000 A 
ATOM      7  C   UNL     1      10.878  12.270  18.983  0.00  0.00    +0.000 A 
ATOM      8  C   UNL     1      10.363  10.980  19.120  0.00  0.00    +0.000 A 
ATOM      9  C   UNL     1       9.152  10.631  18.518  0.00  0.00    +0.000 A 
ATOM     10  C   UNL     1       8.478  11.592  17.752  0.00  0.00    +0.000 A 
ATOM     11  C   UNL     1       8.996  12.882  17.613  0.00  0.00    +0.000 A 
BRANCH   6  13
ATOM     12  C   UNL     1      10.018  15.542  18.665  0.00  0.00    +0.000 C 
ATOM     13  O   UNL     1      10.798  14.455  18.174  0.00  0.00    +0.000 OA
ENDBRANCH   6  13
ENDBRANCH   4   9
ENDBRANCH   3   5
ENDBRANCH   1   3
BRANCH   1  14
ATOM     14  C   UNL     1       5.343   6.852  17.011  0.00  0.00    +0.000 C 
BRANCH  14  15
ATOM     15  C   UNL     1       4.756   5.576  17.552  0.00  0.00    +0.000 A 
ATOM     16  C   UNL     1       4.380   4.496  16.739  0.00  0.00    +0.000 A 
ATOM     17  C   UNL     1       3.572   3.483  17.263  0.00  0.00    +0.000 A 
ATOM     18  C   UNL     1       3.073   3.581  18.564  0.00  0.00    +0.000 A 
ATOM     19  C   UNL     1       3.458   4.650  19.359  0.00  0.00    +0.000 A 
ATOM     20  C   UNL     1       4.368   5.579  18.894  0.00  0.00    +0.000 A 
ATOM     21  O   UNL     1       2.883   4.974  20.545  0.00  0.00    +0.000 OA
ATOM     22  C   UNL     1       2.202   3.903  21.156  0.00  0.00    +0.000 C 
ATOM     23  C   UNL     1       1.633   2.813  20.249  0.00  0.00    +0.000 C 
ATOM     24  O   UNL     1       2.209   2.617  18.963  0.00  0.00    +0.000 OA
ENDBRANCH  14  15
ENDBRANCH   1  14
TORSDOF 6
ENDMDL
MODEL 7
REMARK VINA RESULT:      -6.9      5.420      6.456
REMARK  Name = 
REMARK  8 active torsions:
REMARK  status: ('A' for Active; 'I' for Inactive)
REMARK    1  A    between atoms: C_1  and  O_2
REMARK    2  A    between atoms: O_2  and  C_3
REMARK    3  A    between atoms: C_6  and  C_7
REMARK    4  A    between atoms: C_8  and  C_9
REMARK    5  A    between atoms: C_9  and  N_10
REMARK    6  A    between atoms: N_10  and  C_11
REMARK    7  A    between atoms: N_10  and  C_12
REMARK    8  A    between atoms: C_12  and  C_13
REMARK                            x       y       z     vdW  Elec       q    Type
REMARK                         _______ _______ _______ _____ _____    ______ ____
ROOT
ATOM      1  N   UNL     1       7.537   5.997  17.864  0.00  0.00    +0.000 NA
ATOM      2  C   UNL     1       7.395   5.706  19.296  0.00  0.00    +0.000 C 
ENDROOT
BRANCH   1   3
ATOM      3  C   UNL     1       7.230   7.399  17.556  0.00  0.00    +0.000 C 
BRANCH   3   5
ATOM      4  C   UNL     1       8.196   9.635  18.110  0.00  0.00    +0.000 C 
ATOM      5  C   UNL     1       8.340   8.307  17.988  0.00  0.00    +0.000 C 
BRANCH   4   9
ATOM      6  C   UNL     1      11.195  12.329  19.536  0.00  0.00    +0.000 A 
ATOM      7  C   UNL     1      11.047  12.077  18.174  0.00  0.00    +0.000 A 
ATOM      8  C   UNL     1      10.070  11.191  17.721  0.00  0.00    +0.000 A 
ATOM      9  C   UNL     1       9.239  10.526  18.626  0.00  0.00    +0.000 A 
ATOM     10  C   UNL     1       9.388  10.786  19.995  0.00  0.00    +0.000 A 
ATOM     11  C   UNL     1      10.365  11.677  20.448  0.00  0.00    +0.000 A 
BRANCH   6  13
ATOM     12  C   UNL     1      11.840  14.589  19.825  0.00  0.00    +0.000 C 
ATOM     13  O   UNL     1      12.194  13.208  19.860  0.00  0.00    +0.000 OA
ENDBRANCH   6  13
ENDBRANCH   4   9
ENDBRANCH   3   5
ENDBRANCH   1   3
BRANCH   1  14
ATOM     14  C   UNL     1       6.642   5.114  17.107  0.00  0.00    +0.000 C 
BRANCH  14  15
ATOM     15  C   UNL     1       5.230   5.077  17.626  0.00  0.00    +0.000 A 
ATOM     16  C   UNL     1       4.371   6.185  17.601  0.00  0.00    +0.000 A 
ATOM     17  C   UNL     1       3.200   6.172  18.365  0.00  0.00    +0.000 A 
ATOM     18  C   UNL     1       2.922   5.095  19.210  0.00  0.00    +0.000 A 
ATOM     19  C   UNL     1       3.776   4.002  19.219  0.00  0.00    +0.000 A 
ATOM     20  C   UNL     1       4.859   3.949  18.364  0.00  0.00    +0.000 A 
ATOM     21  O   UNL     1       3.740   3.005  20.140  0.00  0.00    +0.000 OA
ATOM     22  C   UNL     1       2.501   2.884  20.797  0.00  0.00    +0.000 C 
ATOM     23  C   UNL     1       1.641   4.141  20.928  0.00  0.00    +0.000 C 
ATOM     24  O   UNL     1       1.827   5.202  20.000  0.00  0.00    +0.000 OA
ENDBRANCH  14  15
ENDBRANCH   1  14
TORSDOF 6
ENDMDL
MODEL 8
REMARK VINA RESULT:      -6.8      4.560      5.579
REMARK  Name = 
REMARK  8 active torsions:
REMARK  status: ('A' for Active; 'I' for Inactive)
REMARK    1  A    between atoms: C_1  and  O_2
REMARK    2  A    between atoms: O_2  and  C_3
REMARK    3  A    between atoms: C_6  and  C_7
REMARK    4  A    between atoms: C_8  and  C_9
REMARK    5  A    between atoms: C_9  and  N_10
REMARK    6  A    between atoms: N_10  and  C_11
REMARK    7  A    between atoms: N_10  and  C_12
REMARK    8  A    between atoms: C_12  and  C_13
REMARK                            x       y       z     vdW  Elec       q    Type
REMARK                         _______ _______ _______ _____ _____    ______ ____
ROOT
ATOM      1  N   UNL     1       6.070   6.728  16.566  0.00  0.00    +0.000 NA
ATOM      2  C   UNL     1       5.956   5.838  15.404  0.00  0.00    +0.000 C 
ENDROOT
BRANCH   1   3
ATOM      3  C   UNL     1       7.111   6.283  17.499  0.00  0.00    +0.000 C 
BRANCH   3   5
ATOM      4  C   UNL     1       7.972   8.627  17.534  0.00  0.00    +0.000 C 
ATOM      5  C   UNL     1       7.796   7.447  18.146  0.00  0.00    +0.000 C 
BRANCH   4   9
ATOM      6  C   UNL     1       9.546  12.130  19.414  0.00  0.00    +0.000 A 
ATOM      7  C   UNL     1       8.961  12.196  18.151  0.00  0.00    +0.000 A 
ATOM      8  C   UNL     1       8.458  11.045  17.544  0.00  0.00    +0.000 A 
ATOM      9  C   UNL     1       8.550   9.806  18.183  0.00  0.00    +0.000 A 
ATOM     10  C   UNL     1       9.135   9.746  19.455  0.00  0.00    +0.000 A 
ATOM     11  C   UNL     1       9.636  10.900  20.064  0.00  0.00    +0.000 A 
BRANCH   6  13
ATOM     12  C   UNL     1      10.745  14.125  18.978  0.00  0.00    +0.000 C 
ATOM     13  O   UNL     1      10.014  13.322  19.901  0.00  0.00    +0.000 OA
ENDBRANCH   6  13
ENDBRANCH   4   9
ENDBRANCH   3   5
ENDBRANCH   1   3
BRANCH   1  14
ATOM     14  C   UNL     1       4.775   6.782  17.254  0.00  0.00    +0.000 C 
BRANCH  14  15
ATOM     15  C   UNL     1       4.336   5.468  17.844  0.00  0.00    +0.000 A 
ATOM     16  C   UNL     1       4.039   4.337  17.069  0.00  0.00    +0.000 A 
ATOM     17  C   UNL     1       3.354   3.263  17.645  0.00  0.00    +0.000 A 
ATOM     18  C   UNL     1       2.897   3.344  18.963  0.00  0.00    +0.000 A 
ATOM     19  C   UNL     1       3.204   4.465  19.720  0.00  0.00    +0.000 A 
ATOM     20  C   UNL     1       3.999   5.466  19.201  0.00  0.00    +0.000 A 
ATOM     21  O   UNL     1       2.643   4.760  20.920  0.00  0.00    +0.000 OA
ATOM     22  C   UNL     1       2.094   3.644  21.580  0.00  0.00    +0.000 C 
ATOM     23  C   UNL     1       1.602   2.481  20.719  0.00  0.00    +0.000 C 
ATOM     24  O   UNL     1       2.146   2.311  19.415  0.00  0.00    +0.000 OA
ENDBRANCH  14  15
ENDBRANCH   1  14
TORSDOF 6
ENDMDL
MODEL 9
REMARK VINA RESULT:      -6.8      5.265      6.260
REMARK  Name = 
REMARK  8 active torsions:
REMARK  status: ('A' for Active; 'I' for Inactive)
REMARK    1  A    between atoms: C_1  and  O_2
REMARK    2  A    between atoms: O_2  and  C_3
REMARK    3  A    between atoms: C_6  and  C_7
REMARK    4  A    between atoms: C_8  and  C_9
REMARK    5  A    between atoms: C_9  and  N_10
REMARK    6  A    between atoms: N_10  and  C_11
REMARK    7  A    between atoms: N_10  and  C_12
REMARK    8  A    between atoms: C_12  and  C_13
REMARK                            x       y       z     vdW  Elec       q    Type
REMARK                         _______ _______ _______ _____ _____    ______ ____
ROOT
ATOM      1  N   UNL     1       7.663   6.086  17.562  0.00  0.00    +0.000 NA
ATOM      2  C   UNL     1       7.372   5.664  18.938  0.00  0.00    +0.000 C 
ENDROOT
BRANCH   1   3
ATOM      3  C   UNL     1       7.263   7.477  17.317  0.00  0.00    +0.000 C 
BRANCH   3   5
ATOM      4  C   UNL     1       8.298   9.718  17.696  0.00  0.00    +0.000 C 
ATOM      5  C   UNL     1       8.145   8.435  18.056  0.00  0.00    +0.000 C 
BRANCH   4   9
ATOM      6  C   UNL     1      10.481  12.656  19.906  0.00  0.00    +0.000 A 
ATOM      7  C   UNL     1      10.093  12.892  18.590  0.00  0.00    +0.000 A 
ATOM      8  C   UNL     1       9.387  11.924  17.876  0.00  0.00    +0.000 A 
ATOM      9  C   UNL     1       9.078  10.694  18.462  0.00  0.00    +0.000 A 
ATOM     10  C   UNL     1       9.466  10.462  19.788  0.00  0.00    +0.000 A 
ATOM     11  C   UNL     1      10.170  11.435  20.504  0.00  0.00    +0.000 A 
BRANCH   6  13
ATOM     12  C   UNL     1      10.467  14.901  20.657  0.00  0.00    +0.000 C 
ATOM     13  O   UNL     1      11.178  13.676  20.499  0.00  0.00    +0.000 OA
ENDBRANCH   6  13
ENDBRANCH   4   9
ENDBRANCH   3   5
ENDBRANCH   1   3
BRANCH   1  14
ATOM     14  C   UNL     1       6.961   5.194  16.631  0.00  0.00    +0.000 C 
BRANCH  14  15
ATOM     15  C   UNL     1       5.473   5.124  16.851  0.00  0.00    +0.000 A 
ATOM     16  C   UNL     1       4.692   6.238  17.191  0.00  0.00    +0.000 A 
ATOM     17  C   UNL     1       3.393   6.051  17.674  0.00  0.00    +0.000 A 
ATOM     18  C   UNL     1       2.900   4.763  17.893  0.00  0.00    +0.000 A 
ATOM     19  C   UNL     1       3.681   3.670  17.546  0.00  0.00    +0.000 A 
ATOM     20  C   UNL     1       4.908   3.849  16.938  0.00  0.00    +0.000 A 
ATOM     21  O   UNL     1       3.415   2.388  17.904  0.00  0.00    +0.000 OA
ATOM     22  C   UNL     1       2.065   2.161  18.235  0.00  0.00    +0.000 C 
ATOM     23  C   UNL     1       1.259   3.340  18.779  0.00  0.00    +0.000 C 
ATOM     24  O   UNL     1       1.677   4.663  18.465  0.00  0.00    +0.000 OA
ENDBRANCH  14  15
ENDBRANCH   1  14
TORSDOF 6
ENDMDL
