MODEL 1
REMARK VINA RESULT:      -8.9      0.000      0.000
REMARK  Name = 
REMARK  2 active torsions:
REMARK  status: ('A' for Active; 'I' for Inactive)
REMARK    1  A    between atoms: C_2  and  C_25
REMARK    2  A    between atoms: C_15  and  C_16
REMARK                            x       y       z     vdW  Elec       q    Type
REMARK                         _______ _______ _______ _____ _____    ______ ____
ROOT
ATOM      1  O   UNL     1       5.008   3.302  15.687  0.00  0.00    +0.000 OA
ATOM      2  C   UNL     1       5.416   4.380  15.276  0.00  0.00    +0.000 C 
ATOM      3  N   UNL     1       5.179   5.624  15.806  0.00  0.00    +0.000 N 
ATOM      4  C   UNL     1       4.442   5.882  16.957  0.00  0.00    +0.000 A 
ATOM      5  N   UNL     1       4.119   4.884  17.793  0.00  0.00    +0.000 NA
ATOM      6  C   UNL     1       3.359   5.124  18.878  0.00  0.00    +0.000 A 
ATOM      7  N   UNL     1       2.979   4.121  19.736  0.00  0.00    +0.000 N 
ATOM      8  C   UNL     1       3.006   2.733  19.291  0.00  0.00    +0.000 C 
ATOM      9  C   UNL     1       1.716   2.076  19.806  0.00  0.00    +0.000 C 
ATOM     10  C   UNL     1       1.491   2.309  21.309  0.00  0.00    +0.000 C 
ATOM     11  C   UNL     1       1.677   3.776  21.709  0.00  0.00    +0.000 C 
ATOM     12  C   UNL     1       3.007   4.306  21.178  0.00  0.00    +0.000 C 
ATOM     13  C   UNL     1       2.885   6.423  19.000  0.00  0.00    +0.000 A 
ATOM     14  N   UNL     1       1.960   6.978  19.841  0.00  0.00    +0.000 N 
ATOM     15  C   UNL     1       1.795   8.320  19.593  0.00  0.00    +0.000 A 
ATOM     16  C   UNL     1       2.626   8.610  18.518  0.00  0.00    +0.000 A 
ATOM     17  C   UNL     1       3.279   7.414  18.126  0.00  0.00    +0.000 A 
ATOM     18  N   UNL     1       4.112   7.178  17.093  0.00  0.00    +0.000 NA
ATOM     19  H   UNL     1       5.388   6.458  15.281  0.00  0.00    +0.000 HD
ATOM     20  H   UNL     1       1.426   6.445  20.511  0.00  0.00    +0.000 HD
ENDROOT
BRANCH  15  21
ATOM     21  C   UNL     1       0.840   9.136  20.342  0.00  0.00    +0.000 A 
ATOM     22  C   UNL     1       0.179  10.219  19.742  0.00  0.00    +0.000 A 
ATOM     23  C   UNL     1      -0.708  11.012  20.475  0.00  0.00    +0.000 A 
ATOM     24  C   UNL     1      -0.947  10.730  21.817  0.00  0.00    +0.000 A 
ATOM     25  C   UNL     1      -0.297   9.657  22.426  0.00  0.00    +0.000 A 
ATOM     26  C   UNL     1       0.590   8.865  21.693  0.00  0.00    +0.000 A 
ENDBRANCH  15  21
BRANCH   2  27
ATOM     27  C   UNL     1       6.202   4.393  14.013  0.00  0.00    +0.000 A 
ATOM     28  C   UNL     1       5.854   3.488  13.002  0.00  0.00    +0.000 A 
ATOM     29  C   UNL     1       6.570   3.471  11.804  0.00  0.00    +0.000 A 
ATOM     30  C   UNL     1       7.638   4.348  11.620  0.00  0.00    +0.000 A 
ATOM     31  C   UNL     1       7.998   5.239  12.634  0.00  0.00    +0.000 A 
ATOM     32  C   UNL     1       7.282   5.264  13.831  0.00  0.00    +0.000 A 
ENDBRANCH   2  27
TORSDOF 2
ENDMDL
MODEL 2
REMARK VINA RESULT:      -8.3      4.233      7.597
REMARK  Name = 
REMARK  2 active torsions:
REMARK  status: ('A' for Active; 'I' for Inactive)
REMARK    1  A    between atoms: C_2  and  C_25
REMARK    2  A    between atoms: C_15  and  C_16
REMARK                            x       y       z     vdW  Elec       q    Type
REMARK                         _______ _______ _______ _____ _____    ______ ____
ROOT
ATOM      1  O   UNL     1       2.898   7.436  19.277  0.00  0.00    +0.000 OA
ATOM      2  C   UNL     1       2.212   6.772  20.044  0.00  0.00    +0.000 C 
ATOM      3  N   UNL     1       1.177   7.207  20.835  0.00  0.00    +0.000 N 
ATOM      4  C   UNL     1       0.688   8.508  20.878  0.00  0.00    +0.000 A 
ATOM      5  N   UNL     1       1.037   9.395  19.934  0.00  0.00    +0.000 NA
ATOM      6  C   UNL     1       0.608  10.669  20.006  0.00  0.00    +0.000 A 
ATOM      7  N   UNL     1       0.974  11.613  19.077  0.00  0.00    +0.000 N 
ATOM      8  C   UNL     1       2.154  11.400  18.249  0.00  0.00    +0.000 C 
ATOM      9  C   UNL     1       2.905  12.740  18.193  0.00  0.00    +0.000 C 
ATOM     10  C   UNL     1       1.994  13.914  17.798  0.00  0.00    +0.000 C 
ATOM     11  C   UNL     1       0.686  13.935  18.595  0.00  0.00    +0.000 C 
ATOM     12  C   UNL     1       0.013  12.566  18.545  0.00  0.00    +0.000 C 
ATOM     13  C   UNL     1      -0.121  10.990  21.142  0.00  0.00    +0.000 A 
ATOM     14  N   UNL     1      -0.547  12.192  21.639  0.00  0.00    +0.000 N 
ATOM     15  C   UNL     1      -1.238  12.033  22.817  0.00  0.00    +0.000 A 
ATOM     16  C   UNL     1      -1.206  10.672  23.093  0.00  0.00    +0.000 A 
ATOM     17  C   UNL     1      -0.476  10.027  22.062  0.00  0.00    +0.000 A 
ATOM     18  N   UNL     1      -0.114   8.735  21.932  0.00  0.00    +0.000 NA
ATOM     19  H   UNL     1       0.815   6.629  21.576  0.00  0.00    +0.000 HD
ATOM     20  H   UNL     1      -0.321  13.081  21.218  0.00  0.00    +0.000 HD
ENDROOT
BRANCH  15  21
ATOM     21  C   UNL     1      -1.774  13.172  23.561  0.00  0.00    +0.000 A 
ATOM     22  C   UNL     1      -0.991  14.309  23.817  0.00  0.00    +0.000 A 
ATOM     23  C   UNL     1      -1.502  15.379  24.557  0.00  0.00    +0.000 A 
ATOM     24  C   UNL     1      -2.803  15.326  25.049  0.00  0.00    +0.000 A 
ATOM     25  C   UNL     1      -3.592  14.203  24.803  0.00  0.00    +0.000 A 
ATOM     26  C   UNL     1      -3.081  13.133  24.064  0.00  0.00    +0.000 A 
ENDBRANCH  15  21
BRANCH   2  27
ATOM     27  C   UNL     1       2.559   5.337  20.225  0.00  0.00    +0.000 A 
ATOM     28  C   UNL     1       3.602   4.801  19.458  0.00  0.00    +0.000 A 
ATOM     29  C   UNL     1       3.955   3.459  19.600  0.00  0.00    +0.000 A 
ATOM     30  C   UNL     1       3.261   2.649  20.499  0.00  0.00    +0.000 A 
ATOM     31  C   UNL     1       2.209   3.177  21.251  0.00  0.00    +0.000 A 
ATOM     32  C   UNL     1       1.856   4.519  21.116  0.00  0.00    +0.000 A 
ENDBRANCH   2  27
TORSDOF 2
ENDMDL
MODEL 3
REMARK VINA RESULT:      -8.2      4.286      7.761
REMARK  Name = 
REMARK  2 active torsions:
REMARK  status: ('A' for Active; 'I' for Inactive)
REMARK    1  A    between atoms: C_2  and  C_25
REMARK    2  A    between atoms: C_15  and  C_16
REMARK                            x       y       z     vdW  Elec       q    Type
REMARK                         _______ _______ _______ _____ _____    ______ ____
ROOT
ATOM      1  O   UNL     1       2.822   7.714  19.191  0.00  0.00    +0.000 OA
ATOM      2  C   UNL     1       2.092   7.052  19.918  0.00  0.00    +0.000 C 
ATOM      3  N   UNL     1       1.057   7.501  20.700  0.00  0.00    +0.000 N 
ATOM      4  C   UNL     1       0.619   8.820  20.779  0.00  0.00    +0.000 A 
ATOM      5  N   UNL     1       1.027   9.724  19.876  0.00  0.00    +0.000 NA
ATOM      6  C   UNL     1       0.648  11.011  19.984  0.00  0.00    +0.000 A 
ATOM      7  N   UNL     1       1.074  11.971  19.098  0.00  0.00    +0.000 N 
ATOM      8  C   UNL     1       2.265  11.739  18.290  0.00  0.00    +0.000 C 
ATOM      9  C   UNL     1       3.070  13.048  18.299  0.00  0.00    +0.000 C 
ATOM     10  C   UNL     1       2.217  14.271  17.926  0.00  0.00    +0.000 C 
ATOM     11  C   UNL     1       0.892  14.319  18.693  0.00  0.00    +0.000 C 
ATOM     12  C   UNL     1       0.165  12.981  18.579  0.00  0.00    +0.000 C 
ATOM     13  C   UNL     1      -0.094  11.322  21.114  0.00  0.00    +0.000 A 
ATOM     14  N   UNL     1      -0.483  12.523  21.644  0.00  0.00    +0.000 N 
ATOM     15  C   UNL     1      -1.208  12.351  22.799  0.00  0.00    +0.000 A 
ATOM     16  C   UNL     1      -1.238  10.981  23.027  0.00  0.00    +0.000 A 
ATOM     17  C   UNL     1      -0.510  10.343  21.990  0.00  0.00    +0.000 A 
ATOM     18  N   UNL     1      -0.198   9.043  21.822  0.00  0.00    +0.000 NA
ATOM     19  H   UNL     1       0.654   6.913  21.412  0.00  0.00    +0.000 HD
ATOM     20  H   UNL     1      -0.212  13.415  21.260  0.00  0.00    +0.000 HD
ENDROOT
BRANCH  15  21
ATOM     21  C   UNL     1      -1.715  13.484  23.572  0.00  0.00    +0.000 A 
ATOM     22  C   UNL     1      -3.023  13.491  24.082  0.00  0.00    +0.000 A 
ATOM     23  C   UNL     1      -3.509  14.593  24.792  0.00  0.00    +0.000 A 
ATOM     24  C   UNL     1      -2.693  15.700  25.002  0.00  0.00    +0.000 A 
ATOM     25  C   UNL     1      -1.391  15.707  24.501  0.00  0.00    +0.000 A 
ATOM     26  C   UNL     1      -0.906  14.606  23.791  0.00  0.00    +0.000 A 
ENDBRANCH  15  21
BRANCH   2  27
ATOM     27  C   UNL     1       2.377   5.599  20.054  0.00  0.00    +0.000 A 
ATOM     28  C   UNL     1       1.472   4.806  20.772  0.00  0.00    +0.000 A 
ATOM     29  C   UNL     1       1.707   3.439  20.921  0.00  0.00    +0.000 A 
ATOM     30  C   UNL     1       2.849   2.865  20.364  0.00  0.00    +0.000 A 
ATOM     31  C   UNL     1       3.762   3.657  19.663  0.00  0.00    +0.000 A 
ATOM     32  C   UNL     1       3.529   5.023  19.507  0.00  0.00    +0.000 A 
ENDBRANCH   2  27
TORSDOF 2
ENDMDL
MODEL 4
REMARK VINA RESULT:      -8.0      3.654      7.444
REMARK  Name = 
REMARK  2 active torsions:
REMARK  status: ('A' for Active; 'I' for Inactive)
REMARK    1  A    between atoms: C_2  and  C_25
REMARK    2  A    between atoms: C_15  and  C_16
REMARK                            x       y       z     vdW  Elec       q    Type
REMARK                         _______ _______ _______ _____ _____    ______ ____
ROOT
ATOM      1  O   UNL     1       3.317   8.872  17.805  0.00  0.00    +0.000 OA
ATOM      2  C   UNL     1       2.573   8.018  18.271  0.00  0.00    +0.000 C 
ATOM      3  N   UNL     1       1.472   8.210  19.069  0.00  0.00    +0.000 N 
ATOM      4  C   UNL     1       0.973   9.445  19.470  0.00  0.00    +0.000 A 
ATOM      5  N   UNL     1       1.395  10.572  18.877  0.00  0.00    +0.000 NA
ATOM      6  C   UNL     1       0.954  11.770  19.301  0.00  0.00    +0.000 A 
ATOM      7  N   UNL     1       1.392  12.946  18.742  0.00  0.00    +0.000 N 
ATOM      8  C   UNL     1       2.640  12.974  17.989  0.00  0.00    +0.000 C 
ATOM      9  C   UNL     1       3.384  14.251  18.409  0.00  0.00    +0.000 C 
ATOM     10  C   UNL     1       2.503  15.507  18.321  0.00  0.00    +0.000 C 
ATOM     11  C   UNL     1       1.132  15.310  18.975  0.00  0.00    +0.000 C 
ATOM     12  C   UNL     1       0.474  14.036  18.451  0.00  0.00    +0.000 C 
ATOM     13  C   UNL     1       0.130  11.743  20.417  0.00  0.00    +0.000 A 
ATOM     14  N   UNL     1      -0.344  12.743  21.222  0.00  0.00    +0.000 N 
ATOM     15  C   UNL     1      -1.131  12.243  22.233  0.00  0.00    +0.000 A 
ATOM     16  C   UNL     1      -1.115  10.863  22.078  0.00  0.00    +0.000 A 
ATOM     17  C   UNL     1      -0.297  10.551  20.963  0.00  0.00    +0.000 A 
ATOM     18  N   UNL     1       0.083   9.354  20.473  0.00  0.00    +0.000 NA
ATOM     19  H   UNL     1       1.052   7.440  19.564  0.00  0.00    +0.000 HD
ATOM     20  H   UNL     1      -0.089  13.712  21.116  0.00  0.00    +0.000 HD
ENDROOT
BRANCH  15  21
ATOM     21  C   UNL     1      -1.735  13.109  23.245  0.00  0.00    +0.000 A 
ATOM     22  C   UNL     1      -3.022  12.858  23.746  0.00  0.00    +0.000 A 
ATOM     23  C   UNL     1      -3.604  13.709  24.689  0.00  0.00    +0.000 A 
ATOM     24  C   UNL     1      -2.903  14.823  25.145  0.00  0.00    +0.000 A 
ATOM     25  C   UNL     1      -1.624  15.085  24.657  0.00  0.00    +0.000 A 
ATOM     26  C   UNL     1      -1.044  14.234  23.713  0.00  0.00    +0.000 A 
ENDBRANCH  15  21
BRANCH   2  27
ATOM     27  C   UNL     1       2.912   6.591  18.029  0.00  0.00    +0.000 A 
ATOM     28  C   UNL     1       4.202   6.278  17.583  0.00  0.00    +0.000 A 
ATOM     29  C   UNL     1       4.555   4.949  17.346  0.00  0.00    +0.000 A 
ATOM     30  C   UNL     1       3.619   3.934  17.542  0.00  0.00    +0.000 A 
ATOM     31  C   UNL     1       2.326   4.246  17.969  0.00  0.00    +0.000 A 
ATOM     32  C   UNL     1       1.970   5.572  18.213  0.00  0.00    +0.000 A 
ENDBRANCH   2  27
TORSDOF 2
ENDMDL
MODEL 5
REMARK VINA RESULT:      -7.9      4.104      8.038
REMARK  Name = 
REMARK  2 active torsions:
REMARK  status: ('A' for Active; 'I' for Inactive)
REMARK    1  A    between atoms: C_2  and  C_25
REMARK    2  A    between atoms: C_15  and  C_16
REMARK                            x       y       z     vdW  Elec       q    Type
REMARK                         _______ _______ _______ _____ _____    ______ ____
ROOT
ATOM      1  O   UNL     1       2.714   8.378  18.881  0.00  0.00    +0.000 OA
ATOM      2  C   UNL     1       1.945   7.701  19.551  0.00  0.00    +0.000 C 
ATOM      3  N   UNL     1       0.929   8.141  20.363  0.00  0.00    +0.000 N 
ATOM      4  C   UNL     1       0.559   9.470  20.543  0.00  0.00    +0.000 A 
ATOM      5  N   UNL     1       1.019  10.419  19.715  0.00  0.00    +0.000 NA
ATOM      6  C   UNL     1       0.706  11.711  19.921  0.00  0.00    +0.000 A 
ATOM      7  N   UNL     1       1.187  12.714  19.115  0.00  0.00    +0.000 N 
ATOM      8  C   UNL     1       2.370  12.485  18.295  0.00  0.00    +0.000 C 
ATOM      9  C   UNL     1       3.242  13.745  18.408  0.00  0.00    +0.000 C 
ATOM     10  C   UNL     1       2.455  15.037  18.130  0.00  0.00    +0.000 C 
ATOM     11  C   UNL     1       1.129  15.093  18.894  0.00  0.00    +0.000 C 
ATOM     12  C   UNL     1       0.336  13.807  18.673  0.00  0.00    +0.000 C 
ATOM     13  C   UNL     1      -0.027  11.972  21.070  0.00  0.00    +0.000 A 
ATOM     14  N   UNL     1      -0.358  13.146  21.691  0.00  0.00    +0.000 N 
ATOM     15  C   UNL     1      -1.099  12.923  22.827  0.00  0.00    +0.000 A 
ATOM     16  C   UNL     1      -1.201  11.542  22.947  0.00  0.00    +0.000 A 
ATOM     17  C   UNL     1      -0.499  10.950  21.866  0.00  0.00    +0.000 A 
ATOM     18  N   UNL     1      -0.253   9.653  21.598  0.00  0.00    +0.000 NA
ATOM     19  H   UNL     1       0.492   7.521  21.025  0.00  0.00    +0.000 HD
ATOM     20  H   UNL     1      -0.038  14.051  21.379  0.00  0.00    +0.000 HD
ENDROOT
BRANCH  15  21
ATOM     21  C   UNL     1      -1.553  14.017  23.685  0.00  0.00    +0.000 A 
ATOM     22  C   UNL     1      -2.821  13.994  24.286  0.00  0.00    +0.000 A 
ATOM     23  C   UNL     1      -3.258  15.060  25.077  0.00  0.00    +0.000 A 
ATOM     24  C   UNL     1      -2.431  16.161  25.279  0.00  0.00    +0.000 A 
ATOM     25  C   UNL     1      -1.169  16.197  24.688  0.00  0.00    +0.000 A 
ATOM     26  C   UNL     1      -0.732  15.133  23.896  0.00  0.00    +0.000 A 
ENDBRANCH  15  21
BRANCH   2  27
ATOM     27  C   UNL     1       2.154   6.229  19.575  0.00  0.00    +0.000 A 
ATOM     28  C   UNL     1       2.637   5.604  18.417  0.00  0.00    +0.000 A 
ATOM     29  C   UNL     1       2.844   4.225  18.403  0.00  0.00    +0.000 A 
ATOM     30  C   UNL     1       2.559   3.467  19.538  0.00  0.00    +0.000 A 
ATOM     31  C   UNL     1       2.060   4.084  20.687  0.00  0.00    +0.000 A 
ATOM     32  C   UNL     1       1.857   5.464  20.709  0.00  0.00    +0.000 A 
ENDBRANCH   2  27
TORSDOF 2
ENDMDL
MODEL 6
REMARK VINA RESULT:      -7.9      3.896      7.893
REMARK  Name = 
REMARK  2 active torsions:
REMARK  status: ('A' for Active; 'I' for Inactive)
REMARK    1  A    between atoms: C_2  and  C_25
REMARK    2  A    between atoms: C_15  and  C_16
REMARK                            x       y       z     vdW  Elec       q    Type
REMARK                         _______ _______ _______ _____ _____    ______ ____
ROOT
ATOM      1  O   UNL     1       2.852   8.496  18.592  0.00  0.00    +0.000 OA
ATOM      2  C   UNL     1       2.099   7.773  19.231  0.00  0.00    +0.000 C 
ATOM      3  N   UNL     1       1.069   8.154  20.055  0.00  0.00    +0.000 N 
ATOM      4  C   UNL     1       0.665   9.465  20.287  0.00  0.00    +0.000 A 
ATOM      5  N   UNL     1       1.103  10.458  19.499  0.00  0.00    +0.000 NA
ATOM      6  C   UNL     1       0.756  11.732  19.756  0.00  0.00    +0.000 A 
ATOM      7  N   UNL     1       1.214  12.779  18.992  0.00  0.00    +0.000 N 
ATOM      8  C   UNL     1       2.405  12.612  18.169  0.00  0.00    +0.000 C 
ATOM      9  C   UNL     1       3.244  13.889  18.337  0.00  0.00    +0.000 C 
ATOM     10  C   UNL     1       2.426  15.170  18.107  0.00  0.00    +0.000 C 
ATOM     11  C   UNL     1       1.096  15.162  18.867  0.00  0.00    +0.000 C 
ATOM     12  C   UNL     1       0.336  13.867  18.591  0.00  0.00    +0.000 C 
ATOM     13  C   UNL     1       0.012  11.928  20.911  0.00  0.00    +0.000 A 
ATOM     14  N   UNL     1      -0.350  13.068  21.577  0.00  0.00    +0.000 N 
ATOM     15  C   UNL     1      -1.089  12.780  22.701  0.00  0.00    +0.000 A 
ATOM     16  C   UNL     1      -1.156  11.394  22.764  0.00  0.00    +0.000 A 
ATOM     17  C   UNL     1      -0.436  10.864  21.663  0.00  0.00    +0.000 A 
ATOM     18  N   UNL     1      -0.156   9.585  21.345  0.00  0.00    +0.000 NA
ATOM     19  H   UNL     1       0.645   7.497  20.690  0.00  0.00    +0.000 HD
ATOM     20  H   UNL     1      -0.053  13.992  21.303  0.00  0.00    +0.000 HD
ENDROOT
BRANCH  15  21
ATOM     21  C   UNL     1      -1.573  13.828  23.599  0.00  0.00    +0.000 A 
ATOM     22  C   UNL     1      -0.773  14.933  23.928  0.00  0.00    +0.000 A 
ATOM     23  C   UNL     1      -1.232  15.912  24.813  0.00  0.00    +0.000 A 
ATOM     24  C   UNL     1      -2.500  15.799  25.378  0.00  0.00    +0.000 A 
ATOM     25  C   UNL     1      -3.306  14.707  25.059  0.00  0.00    +0.000 A 
ATOM     26  C   UNL     1      -2.846  13.728  24.176  0.00  0.00    +0.000 A 
ENDBRANCH  15  21
BRANCH   2  27
ATOM     27  C   UNL     1       2.345   6.307  19.197  0.00  0.00    +0.000 A 
ATOM     28  C   UNL     1       1.977   5.542  20.311  0.00  0.00    +0.000 A 
ATOM     29  C   UNL     1       2.193   4.163  20.314  0.00  0.00    +0.000 A 
ATOM     30  C   UNL     1       2.786   3.550  19.211  0.00  0.00    +0.000 A 
ATOM     31  C   UNL     1       3.170   4.313  18.106  0.00  0.00    +0.000 A 
ATOM     32  C   UNL     1       2.951   5.691  18.096  0.00  0.00    +0.000 A 
ENDBRANCH   2  27
TORSDOF 2
ENDMDL
MODEL 7
REMARK VINA RESULT:      -7.5      2.163      8.574
REMARK  Name = 
REMARK  2 active torsions:
REMARK  status: ('A' for Active; 'I' for Inactive)
REMARK    1  A    between atoms: C_2  and  C_25
REMARK    2  A    between atoms: C_15  and  C_16
REMARK                            x       y       z     vdW  Elec       q    Type
REMARK                         _______ _______ _______ _____ _____    ______ ____
ROOT
ATOM      1  O   UNL     1       0.521   8.414  21.947  0.00  0.00    +0.000 OA
ATOM      2  C   UNL     1       0.630   9.350  21.165  0.00  0.00    +0.000 C 
ATOM      3  N   UNL     1       1.197   9.336  19.915  0.00  0.00    +0.000 N 
ATOM      4  C   UNL     1       1.731   8.216  19.284  0.00  0.00    +0.000 A 
ATOM      5  N   UNL     1       1.489   6.988  19.765  0.00  0.00    +0.000 NA
ATOM      6  C   UNL     1       2.050   5.909  19.189  0.00  0.00    +0.000 A 
ATOM      7  N   UNL     1       1.853   4.640  19.675  0.00  0.00    +0.000 N 
ATOM      8  C   UNL     1       1.406   4.448  21.049  0.00  0.00    +0.000 C 
ATOM      9  C   UNL     1       2.231   3.288  21.627  0.00  0.00    +0.000 C 
ATOM     10  C   UNL     1       2.221   2.044  20.724  0.00  0.00    +0.000 C 
ATOM     11  C   UNL     1       2.513   2.381  19.258  0.00  0.00    +0.000 C 
ATOM     12  C   UNL     1       1.607   3.516  18.785  0.00  0.00    +0.000 C 
ATOM     13  C   UNL     1       2.934   6.177  18.153  0.00  0.00    +0.000 A 
ATOM     14  N   UNL     1       3.810   5.374  17.475  0.00  0.00    +0.000 N 
ATOM     15  C   UNL     1       4.504   6.080  16.520  0.00  0.00    +0.000 A 
ATOM     16  C   UNL     1       4.073   7.396  16.635  0.00  0.00    +0.000 A 
ATOM     17  C   UNL     1       3.117   7.460  17.681  0.00  0.00    +0.000 A 
ATOM     18  N   UNL     1       2.481   8.523  18.211  0.00  0.00    +0.000 NA
ATOM     19  H   UNL     1       1.420  10.195  19.439  0.00  0.00    +0.000 HD
ATOM     20  H   UNL     1       3.964   4.403  17.699  0.00  0.00    +0.000 HD
ENDROOT
BRANCH  15  21
ATOM     21  C   UNL     1       5.522   5.452  15.679  0.00  0.00    +0.000 A 
ATOM     22  C   UNL     1       6.888   5.716  15.867  0.00  0.00    +0.000 A 
ATOM     23  C   UNL     1       7.851   5.136  15.038  0.00  0.00    +0.000 A 
ATOM     24  C   UNL     1       7.460   4.283  14.009  0.00  0.00    +0.000 A 
ATOM     25  C   UNL     1       6.107   4.011  13.810  0.00  0.00    +0.000 A 
ATOM     26  C   UNL     1       5.144   4.592  14.640  0.00  0.00    +0.000 A 
ENDBRANCH  15  21
BRANCH   2  27
ATOM     27  C   UNL     1       0.174  10.691  21.616  0.00  0.00    +0.000 A 
ATOM     28  C   UNL     1      -0.795  10.763  22.624  0.00  0.00    +0.000 A 
ATOM     29  C   UNL     1      -1.247  12.005  23.071  0.00  0.00    +0.000 A 
ATOM     30  C   UNL     1      -0.740  13.174  22.505  0.00  0.00    +0.000 A 
ATOM     31  C   UNL     1       0.213  13.105  21.487  0.00  0.00    +0.000 A 
ATOM     32  C   UNL     1       0.672  11.866  21.040  0.00  0.00    +0.000 A 
ENDBRANCH   2  27
TORSDOF 2
ENDMDL
MODEL 8
REMARK VINA RESULT:      -7.4      4.222      8.415
REMARK  Name = 
REMARK  2 active torsions:
REMARK  status: ('A' for Active; 'I' for Inactive)
REMARK    1  A    between atoms: C_2  and  C_25
REMARK    2  A    between atoms: C_15  and  C_16
REMARK                            x       y       z     vdW  Elec       q    Type
REMARK                         _______ _______ _______ _____ _____    ______ ____
ROOT
ATOM      1  O   UNL     1       2.573   9.118  18.739  0.00  0.00    +0.000 OA
ATOM      2  C   UNL     1       1.848   8.378  19.392  0.00  0.00    +0.000 C 
ATOM      3  N   UNL     1       0.828   8.737  20.238  0.00  0.00    +0.000 N 
ATOM      4  C   UNL     1       0.402  10.038  20.481  0.00  0.00    +0.000 A 
ATOM      5  N   UNL     1       0.803  11.042  19.687  0.00  0.00    +0.000 NA
ATOM      6  C   UNL     1       0.436  12.309  19.953  0.00  0.00    +0.000 A 
ATOM      7  N   UNL     1       0.856  13.366  19.183  0.00  0.00    +0.000 N 
ATOM      8  C   UNL     1       2.033  13.225  18.335  0.00  0.00    +0.000 C 
ATOM      9  C   UNL     1       2.848  14.519  18.488  0.00  0.00    +0.000 C 
ATOM     10  C   UNL     1       1.999  15.783  18.278  0.00  0.00    +0.000 C 
ATOM     11  C   UNL     1       0.686  15.746  19.065  0.00  0.00    +0.000 C 
ATOM     12  C   UNL     1      -0.053  14.436  18.802  0.00  0.00    +0.000 C 
ATOM     13  C   UNL     1      -0.288  12.487  21.124  0.00  0.00    +0.000 A 
ATOM     14  N   UNL     1      -0.660  13.618  21.800  0.00  0.00    +0.000 N 
ATOM     15  C   UNL     1      -1.370  13.313  22.938  0.00  0.00    +0.000 A 
ATOM     16  C   UNL     1      -1.407  11.925  22.999  0.00  0.00    +0.000 A 
ATOM     17  C   UNL     1      -0.699  11.412  21.883  0.00  0.00    +0.000 A 
ATOM     18  N   UNL     1      -0.399  10.140  21.556  0.00  0.00    +0.000 NA
ATOM     19  H   UNL     1       0.431   8.070  20.880  0.00  0.00    +0.000 HD
ATOM     20  H   UNL     1      -0.388  14.548  21.522  0.00  0.00    +0.000 HD
ENDROOT
BRANCH  15  21
ATOM     21  C   UNL     1      -1.857  14.348  23.848  0.00  0.00    +0.000 A 
ATOM     22  C   UNL     1      -3.225  14.646  23.948  0.00  0.00    +0.000 A 
ATOM     23  C   UNL     1      -3.678  15.659  24.797  0.00  0.00    +0.000 A 
ATOM     24  C   UNL     1      -2.768  16.386  25.559  0.00  0.00    +0.000 A 
ATOM     25  C   UNL     1      -1.406  16.101  25.470  0.00  0.00    +0.000 A 
ATOM     26  C   UNL     1      -0.954  15.089  24.620  0.00  0.00    +0.000 A 
ENDBRANCH  15  21
BRANCH   2  27
ATOM     27  C   UNL     1       2.124   6.918  19.349  0.00  0.00    +0.000 A 
ATOM     28  C   UNL     1       1.839   6.151  20.486  0.00  0.00    +0.000 A 
ATOM     29  C   UNL     1       2.085   4.778  20.482  0.00  0.00    +0.000 A 
ATOM     30  C   UNL     1       2.625   4.172  19.348  0.00  0.00    +0.000 A 
ATOM     31  C   UNL     1       2.927   4.937  18.220  0.00  0.00    +0.000 A 
ATOM     32  C   UNL     1       2.678   6.309  18.217  0.00  0.00    +0.000 A 
ENDBRANCH   2  27
TORSDOF 2
ENDMDL
MODEL 9
REMARK VINA RESULT:      -7.4      5.510     11.963
REMARK  Name = 
REMARK  2 active torsions:
REMARK  status: ('A' for Active; 'I' for Inactive)
REMARK    1  A    between atoms: C_2  and  C_25
REMARK    2  A    between atoms: C_15  and  C_16
REMARK                            x       y       z     vdW  Elec       q    Type
REMARK                         _______ _______ _______ _____ _____    ______ ____
ROOT
ATOM      1  O   UNL     1      -4.400  14.269  21.378  0.00  0.00    +0.000 OA
ATOM      2  C   UNL     1      -3.479  14.512  22.147  0.00  0.00    +0.000 C 
ATOM      3  N   UNL     1      -2.220  13.963  22.146  0.00  0.00    +0.000 N 
ATOM      4  C   UNL     1      -1.745  13.036  21.224  0.00  0.00    +0.000 A 
ATOM      5  N   UNL     1      -2.421  12.801  20.091  0.00  0.00    +0.000 NA
ATOM      6  C   UNL     1      -1.992  11.865  19.224  0.00  0.00    +0.000 A 
ATOM      7  N   UNL     1      -2.678  11.572  18.071  0.00  0.00    +0.000 N 
ATOM      8  C   UNL     1      -4.085  11.932  17.949  0.00  0.00    +0.000 C 
ATOM      9  C   UNL     1      -4.795  10.737  17.295  0.00  0.00    +0.000 C 
ATOM     10  C   UNL     1      -4.097  10.261  16.011  0.00  0.00    +0.000 C 
ATOM     11  C   UNL     1      -2.584  10.099  16.191  0.00  0.00    +0.000 C 
ATOM     12  C   UNL     1      -1.985  11.360  16.809  0.00  0.00    +0.000 C 
ATOM     13  C   UNL     1      -0.886  11.133  19.635  0.00  0.00    +0.000 A 
ATOM     14  N   UNL     1      -0.299  10.008  19.123  0.00  0.00    +0.000 N 
ATOM     15  C   UNL     1       0.786   9.620  19.874  0.00  0.00    +0.000 A 
ATOM     16  C   UNL     1       0.855  10.520  20.930  0.00  0.00    +0.000 A 
ATOM     17  C   UNL     1      -0.213  11.444  20.797  0.00  0.00    +0.000 A 
ATOM     18  N   UNL     1      -0.603  12.443  21.613  0.00  0.00    +0.000 NA
ATOM     19  H   UNL     1      -1.607  14.076  22.937  0.00  0.00    +0.000 HD
ATOM     20  H   UNL     1      -0.663   9.500  18.331  0.00  0.00    +0.000 HD
ENDROOT
BRANCH  15  21
ATOM     21  C   UNL     1       1.568   8.428  19.549  0.00  0.00    +0.000 A 
ATOM     22  C   UNL     1       1.699   7.371  20.463  0.00  0.00    +0.000 A 
ATOM     23  C   UNL     1       2.475   6.250  20.155  0.00  0.00    +0.000 A 
ATOM     24  C   UNL     1       3.128   6.172  18.928  0.00  0.00    +0.000 A 
ATOM     25  C   UNL     1       3.006   7.215  18.010  0.00  0.00    +0.000 A 
ATOM     26  C   UNL     1       2.231   8.336  18.319  0.00  0.00    +0.000 A 
ENDBRANCH  15  21
BRANCH   2  27
ATOM     27  C   UNL     1      -3.738  15.449  23.272  0.00  0.00    +0.000 A 
ATOM     28  C   UNL     1      -5.055  15.865  23.504  0.00  0.00    +0.000 A 
ATOM     29  C   UNL     1      -5.335  16.744  24.551  0.00  0.00    +0.000 A 
ATOM     30  C   UNL     1      -4.301  17.217  25.358  0.00  0.00    +0.000 A 
ATOM     31  C   UNL     1      -2.984  16.817  25.117  0.00  0.00    +0.000 A 
ATOM     32  C   UNL     1      -2.699  15.934  24.076  0.00  0.00    +0.000 A 
ENDBRANCH   2  27
TORSDOF 2
ENDMDL
