MODEL 1
REMARK VINA RESULT:      -9.5      0.000      0.000
REMARK  Name = 
REMARK  8 active torsions:
REMARK  status: ('A' for Active; 'I' for Inactive)
REMARK    1  A    between atoms: C_1  and  C_2
REMARK    2  A    between atoms: C_2  and  C_4
REMARK    3  A    between atoms: C_8  and  N_9
REMARK    4  A    between atoms: C_10  and  C_12
REMARK    5  A    between atoms: C_12  and  C_14
REMARK    6  A    between atoms: C_14  and  C_15
REMARK    7  A    between atoms: C_14  and  C_19
REMARK    8  A    between atoms: N_17  and  N_18
REMARK                            x       y       z     vdW  Elec       q    Type
REMARK                         _______ _______ _______ _____ _____    ______ ____
ROOT
ATOM      1  C   UNL     1       6.058   4.852  18.254  0.00  0.00    +0.000 C 
ATOM      2  O   UNL     1       6.697   4.996  19.289  0.00  0.00    +0.000 OA
ENDROOT
BRANCH   1   4
ATOM      3  N   UNL     1       6.058   4.909  15.840  0.00  0.00    +0.000 N 
ATOM      4  C   UNL     1       6.825   4.673  16.964  0.00  0.00    +0.000 C 
ATOM      5  O   UNL     1       8.003   4.367  17.050  0.00  0.00    +0.000 OA
ATOM      6  H   UNL     1       5.142   5.326  15.977  0.00  0.00    +0.000 HD
BRANCH   3  11
ATOM      7  C   UNL     1       6.088   3.572  12.385  0.00  0.00    +0.000 A 
ATOM      8  C   UNL     1       7.193   4.231  11.841  0.00  0.00    +0.000 A 
ATOM      9  C   UNL     1       7.936   5.110  12.624  0.00  0.00    +0.000 A 
ATOM     10  C   UNL     1       7.573   5.346  13.949  0.00  0.00    +0.000 A 
ATOM     11  C   UNL     1       6.464   4.708  14.505  0.00  0.00    +0.000 A 
ATOM     12  C   UNL     1       5.729   3.807  13.725  0.00  0.00    +0.000 A 
BRANCH   7  14
ATOM     13  C   UNL     1       3.921   3.071  11.077  0.00  0.00    +0.000 C 
ATOM     14  C   UNL     1       5.269   2.620  11.579  0.00  0.00    +0.000 C 
ATOM     15  O   UNL     1       5.700   1.495  11.329  0.00  0.00    +0.000 OA
ENDBRANCH   7  14
ENDBRANCH   3  11
ENDBRANCH   1   4
BRANCH   1  16
ATOM     16  C   UNL     1       4.564   4.663  18.144  0.00  0.00    +0.000 C 
BRANCH  16  17
ATOM     17  C   UNL     1       3.713   5.871  18.527  0.00  0.00    +0.000 A 
ATOM     18  C   UNL     1       3.032   5.864  19.757  0.00  0.00    +0.000 A 
ATOM     19  C   UNL     1       2.167   6.906  20.105  0.00  0.00    +0.000 A 
ATOM     20  C   UNL     1       1.982   7.979  19.238  0.00  0.00    +0.000 A 
ATOM     21  C   UNL     1       2.691   8.030  18.044  0.00  0.00    +0.000 A 
ATOM     22  C   UNL     1       3.560   6.994  17.697  0.00  0.00    +0.000 A 
ENDBRANCH  16  17
BRANCH  16  23
ATOM     23  C   UNL     1       4.226   3.367  18.855  0.00  0.00    +0.000 C 
ATOM     24  O   UNL     1       3.174   2.769  18.611  0.00  0.00    +0.000 OA
ATOM     25  N   UNL     1       5.203   2.828  19.677  0.00  0.00    +0.000 N 
ATOM     26  H   UNL     1       6.143   3.222  19.695  0.00  0.00    +0.000 HD
BRANCH  25  27
ATOM     27  N   UNL     1       5.002   1.550  20.242  0.00  0.00    +0.000 NA
ATOM     28  H   UNL     1       5.816   0.969  19.999  0.00  0.00    +0.000 HD
ATOM     29  H   UNL     1       4.226   1.107  19.742  0.00  0.00    +0.000 HD
ENDBRANCH  25  27
ENDBRANCH  16  23
ENDBRANCH   1  16
TORSDOF 7
ENDMDL
MODEL 2
REMARK VINA RESULT:      -8.9      0.991      1.457
REMARK  Name = 
REMARK  8 active torsions:
REMARK  status: ('A' for Active; 'I' for Inactive)
REMARK    1  A    between atoms: C_1  and  C_2
REMARK    2  A    between atoms: C_2  and  C_4
REMARK    3  A    between atoms: C_8  and  N_9
REMARK    4  A    between atoms: C_10  and  C_12
REMARK    5  A    between atoms: C_12  and  C_14
REMARK    6  A    between atoms: C_14  and  C_15
REMARK    7  A    between atoms: C_14  and  C_19
REMARK    8  A    between atoms: N_17  and  N_18
REMARK                            x       y       z     vdW  Elec       q    Type
REMARK                         _______ _______ _______ _____ _____    ______ ____
ROOT
ATOM      1  C   UNL     1       6.106   4.799  18.280  0.00  0.00    +0.000 C 
ATOM      2  O   UNL     1       6.725   5.107  19.291  0.00  0.00    +0.000 OA
ENDROOT
BRANCH   1   4
ATOM      3  N   UNL     1       6.111   4.886  15.868  0.00  0.00    +0.000 N 
ATOM      4  C   UNL     1       6.879   4.650  16.990  0.00  0.00    +0.000 C 
ATOM      5  O   UNL     1       8.062   4.364  17.076  0.00  0.00    +0.000 OA
ATOM      6  H   UNL     1       5.187   5.285  16.007  0.00  0.00    +0.000 HD
BRANCH   3  11
ATOM      7  C   UNL     1       6.213   3.547  12.415  0.00  0.00    +0.000 A 
ATOM      8  C   UNL     1       7.270   4.275  11.865  0.00  0.00    +0.000 A 
ATOM      9  C   UNL     1       7.958   5.201  12.643  0.00  0.00    +0.000 A 
ATOM     10  C   UNL     1       7.586   5.417  13.969  0.00  0.00    +0.000 A 
ATOM     11  C   UNL     1       6.523   4.709  14.531  0.00  0.00    +0.000 A 
ATOM     12  C   UNL     1       5.845   3.761  13.755  0.00  0.00    +0.000 A 
BRANCH   7  14
ATOM     13  C   UNL     1       6.144   1.263  11.215  0.00  0.00    +0.000 C 
ATOM     14  C   UNL     1       5.453   2.542  11.614  0.00  0.00    +0.000 C 
ATOM     15  O   UNL     1       4.284   2.762  11.300  0.00  0.00    +0.000 OA
ENDBRANCH   7  14
ENDBRANCH   3  11
ENDBRANCH   1   4
BRANCH   1  16
ATOM     16  C   UNL     1       4.657   4.381  18.212  0.00  0.00    +0.000 C 
BRANCH  16  17
ATOM     17  C   UNL     1       3.650   5.388  18.765  0.00  0.00    +0.000 A 
ATOM     18  C   UNL     1       3.457   6.604  18.085  0.00  0.00    +0.000 A 
ATOM     19  C   UNL     1       2.618   7.593  18.607  0.00  0.00    +0.000 A 
ATOM     20  C   UNL     1       1.945   7.376  19.806  0.00  0.00    +0.000 A 
ATOM     21  C   UNL     1       2.080   6.158  20.461  0.00  0.00    +0.000 A 
ATOM     22  C   UNL     1       2.913   5.167  19.940  0.00  0.00    +0.000 A 
ENDBRANCH  16  17
BRANCH  16  23
ATOM     23  C   UNL     1       4.570   2.980  18.784  0.00  0.00    +0.000 C 
ATOM     24  O   UNL     1       4.841   2.764  19.969  0.00  0.00    +0.000 OA
ATOM     25  N   UNL     1       4.051   1.995  17.959  0.00  0.00    +0.000 N 
ATOM     26  H   UNL     1       3.632   2.238  17.060  0.00  0.00    +0.000 HD
BRANCH  25  27
ATOM     27  N   UNL     1       3.806   0.709  18.486  0.00  0.00    +0.000 NA
ATOM     28  H   UNL     1       3.813   0.786  19.513  0.00  0.00    +0.000 HD
ATOM     29  H   UNL     1       4.622   0.127  18.278  0.00  0.00    +0.000 HD
ENDBRANCH  25  27
ENDBRANCH  16  23
ENDBRANCH   1  16
TORSDOF 7
ENDMDL
MODEL 3
REMARK VINA RESULT:      -8.5      2.020      2.567
REMARK  Name = 
REMARK  8 active torsions:
REMARK  status: ('A' for Active; 'I' for Inactive)
REMARK    1  A    between atoms: C_1  and  C_2
REMARK    2  A    between atoms: C_2  and  C_4
REMARK    3  A    between atoms: C_8  and  N_9
REMARK    4  A    between atoms: C_10  and  C_12
REMARK    5  A    between atoms: C_12  and  C_14
REMARK    6  A    between atoms: C_14  and  C_15
REMARK    7  A    between atoms: C_14  and  C_19
REMARK    8  A    between atoms: N_17  and  N_18
REMARK                            x       y       z     vdW  Elec       q    Type
REMARK                         _______ _______ _______ _____ _____    ______ ____
ROOT
ATOM      1  C   UNL     1       4.514   6.072  17.589  0.00  0.00    +0.000 C 
ATOM      2  O   UNL     1       4.378   7.140  18.172  0.00  0.00    +0.000 OA
ENDROOT
BRANCH   1   4
ATOM      3  N   UNL     1       5.429   4.871  15.706  0.00  0.00    +0.000 N 
ATOM      4  C   UNL     1       4.984   6.099  16.154  0.00  0.00    +0.000 C 
ATOM      5  O   UNL     1       4.907   7.161  15.559  0.00  0.00    +0.000 OA
ATOM      6  H   UNL     1       5.251   4.063  16.296  0.00  0.00    +0.000 HD
BRANCH   3  11
ATOM      7  C   UNL     1       5.946   3.437  12.329  0.00  0.00    +0.000 A 
ATOM      8  C   UNL     1       7.152   4.033  11.955  0.00  0.00    +0.000 A 
ATOM      9  C   UNL     1       7.801   4.901  12.828  0.00  0.00    +0.000 A 
ATOM     10  C   UNL     1       7.243   5.190  14.073  0.00  0.00    +0.000 A 
ATOM     11  C   UNL     1       6.032   4.615  14.457  0.00  0.00    +0.000 A 
ATOM     12  C   UNL     1       5.390   3.725  13.589  0.00  0.00    +0.000 A 
BRANCH   7  14
ATOM     13  C   UNL     1       3.889   2.921  10.858  0.00  0.00    +0.000 C 
ATOM     14  C   UNL     1       5.222   2.498  11.423  0.00  0.00    +0.000 C 
ATOM     15  O   UNL     1       5.718   1.408  11.142  0.00  0.00    +0.000 OA
ENDBRANCH   7  14
ENDBRANCH   3  11
ENDBRANCH   1   4
BRANCH   1  16
ATOM     16  C   UNL     1       4.424   4.698  18.210  0.00  0.00    +0.000 C 
BRANCH  16  17
ATOM     17  C   UNL     1       3.043   4.288  18.715  0.00  0.00    +0.000 A 
ATOM     18  C   UNL     1       2.548   4.870  19.897  0.00  0.00    +0.000 A 
ATOM     19  C   UNL     1       1.332   4.455  20.446  0.00  0.00    +0.000 A 
ATOM     20  C   UNL     1       0.582   3.465  19.816  0.00  0.00    +0.000 A 
ATOM     21  C   UNL     1       1.029   2.921  18.618  0.00  0.00    +0.000 A 
ATOM     22  C   UNL     1       2.240   3.337  18.064  0.00  0.00    +0.000 A 
ENDBRANCH  16  17
BRANCH  16  23
ATOM     23  C   UNL     1       5.553   4.589  19.216  0.00  0.00    +0.000 C 
ATOM     24  O   UNL     1       5.683   3.577  19.911  0.00  0.00    +0.000 OA
ATOM     25  N   UNL     1       6.494   5.606  19.218  0.00  0.00    +0.000 N 
ATOM     26  H   UNL     1       6.488   6.321  18.490  0.00  0.00    +0.000 HD
BRANCH  25  27
ATOM     27  N   UNL     1       7.645   5.482  20.025  0.00  0.00    +0.000 NA
ATOM     28  H   UNL     1       8.153   6.377  19.986  0.00  0.00    +0.000 HD
ATOM     29  H   UNL     1       8.278   4.821  19.565  0.00  0.00    +0.000 HD
ENDBRANCH  25  27
ENDBRANCH  16  23
ENDBRANCH   1  16
TORSDOF 7
ENDMDL
MODEL 4
REMARK VINA RESULT:      -8.5      1.219      1.645
REMARK  Name = 
REMARK  8 active torsions:
REMARK  status: ('A' for Active; 'I' for Inactive)
REMARK    1  A    between atoms: C_1  and  C_2
REMARK    2  A    between atoms: C_2  and  C_4
REMARK    3  A    between atoms: C_8  and  N_9
REMARK    4  A    between atoms: C_10  and  C_12
REMARK    5  A    between atoms: C_12  and  C_14
REMARK    6  A    between atoms: C_14  and  C_15
REMARK    7  A    between atoms: C_14  and  C_19
REMARK    8  A    between atoms: N_17  and  N_18
REMARK                            x       y       z     vdW  Elec       q    Type
REMARK                         _______ _______ _______ _____ _____    ______ ____
ROOT
ATOM      1  C   UNL     1       4.949   4.865  18.138  0.00  0.00    +0.000 C 
ATOM      2  O   UNL     1       5.335   4.662  19.283  0.00  0.00    +0.000 OA
ENDROOT
BRANCH   1   4
ATOM      3  N   UNL     1       5.373   4.850  15.762  0.00  0.00    +0.000 N 
ATOM      4  C   UNL     1       5.937   4.679  17.010  0.00  0.00    +0.000 C 
ATOM      5  O   UNL     1       7.091   4.422  17.312  0.00  0.00    +0.000 OA
ATOM      6  H   UNL     1       4.433   5.234  15.720  0.00  0.00    +0.000 HD
BRANCH   3  11
ATOM      7  C   UNL     1       6.046   3.431  12.406  0.00  0.00    +0.000 A 
ATOM      8  C   UNL     1       7.217   4.103  12.050  0.00  0.00    +0.000 A 
ATOM      9  C   UNL     1       7.792   5.017  12.928  0.00  0.00    +0.000 A 
ATOM     10  C   UNL     1       7.193   5.277  14.160  0.00  0.00    +0.000 A 
ATOM     11  C   UNL     1       6.015   4.626  14.526  0.00  0.00    +0.000 A 
ATOM     12  C   UNL     1       5.449   3.690  13.653  0.00  0.00    +0.000 A 
BRANCH   7  14
ATOM     13  C   UNL     1       6.177   1.210  11.098  0.00  0.00    +0.000 C 
ATOM     14  C   UNL     1       5.402   2.441  11.494  0.00  0.00    +0.000 C 
ATOM     15  O   UNL     1       4.256   2.633  11.088  0.00  0.00    +0.000 OA
ENDBRANCH   7  14
ENDBRANCH   3  11
ENDBRANCH   1   4
BRANCH   1  16
ATOM     16  C   UNL     1       3.525   5.121  17.708  0.00  0.00    +0.000 C 
BRANCH  16  17
ATOM     17  C   UNL     1       2.839   6.317  18.366  0.00  0.00    +0.000 A 
ATOM     18  C   UNL     1       2.709   7.514  17.638  0.00  0.00    +0.000 A 
ATOM     19  C   UNL     1       2.174   8.661  18.233  0.00  0.00    +0.000 A 
ATOM     20  C   UNL     1       1.746   8.626  19.556  0.00  0.00    +0.000 A 
ATOM     21  C   UNL     1       1.815   7.436  20.272  0.00  0.00    +0.000 A 
ATOM     22  C   UNL     1       2.343   6.288  19.679  0.00  0.00    +0.000 A 
ENDBRANCH  16  17
BRANCH  16  23
ATOM     23  C   UNL     1       2.785   3.801  17.805  0.00  0.00    +0.000 C 
ATOM     24  O   UNL     1       1.717   3.631  17.210  0.00  0.00    +0.000 OA
ATOM     25  N   UNL     1       3.425   2.770  18.474  0.00  0.00    +0.000 N 
ATOM     26  H   UNL     1       4.397   2.866  18.769  0.00  0.00    +0.000 HD
BRANCH  25  27
ATOM     27  N   UNL     1       2.853   1.480  18.464  0.00  0.00    +0.000 NA
ATOM     28  H   UNL     1       2.923   1.100  19.419  0.00  0.00    +0.000 HD
ATOM     29  H   UNL     1       3.465   0.872  17.913  0.00  0.00    +0.000 HD
ENDBRANCH  25  27
ENDBRANCH  16  23
ENDBRANCH   1  16
TORSDOF 7
ENDMDL
MODEL 5
REMARK VINA RESULT:      -8.5      1.179      1.260
REMARK  Name = 
REMARK  8 active torsions:
REMARK  status: ('A' for Active; 'I' for Inactive)
REMARK    1  A    between atoms: C_1  and  C_2
REMARK    2  A    between atoms: C_2  and  C_4
REMARK    3  A    between atoms: C_8  and  N_9
REMARK    4  A    between atoms: C_10  and  C_12
REMARK    5  A    between atoms: C_12  and  C_14
REMARK    6  A    between atoms: C_14  and  C_15
REMARK    7  A    between atoms: C_14  and  C_19
REMARK    8  A    between atoms: N_17  and  N_18
REMARK                            x       y       z     vdW  Elec       q    Type
REMARK                         _______ _______ _______ _____ _____    ______ ____
ROOT
ATOM      1  C   UNL     1       4.857   5.101  18.211  0.00  0.00    +0.000 C 
ATOM      2  O   UNL     1       5.238   4.966  19.368  0.00  0.00    +0.000 OA
ENDROOT
BRANCH   1   4
ATOM      3  N   UNL     1       5.336   5.076  15.846  0.00  0.00    +0.000 N 
ATOM      4  C   UNL     1       5.828   4.777  17.100  0.00  0.00    +0.000 C 
ATOM      5  O   UNL     1       6.913   4.318  17.420  0.00  0.00    +0.000 OA
ATOM      6  H   UNL     1       4.477   5.618  15.795  0.00  0.00    +0.000 HD
BRANCH   3  11
ATOM      7  C   UNL     1       5.890   3.568  12.507  0.00  0.00    +0.000 A 
ATOM      8  C   UNL     1       7.127   4.113  12.158  0.00  0.00    +0.000 A 
ATOM      9  C   UNL     1       7.784   4.971  13.034  0.00  0.00    +0.000 A 
ATOM     10  C   UNL     1       7.205   5.301  14.258  0.00  0.00    +0.000 A 
ATOM     11  C   UNL     1       5.963   4.778  14.618  0.00  0.00    +0.000 A 
ATOM     12  C   UNL     1       5.311   3.897  13.746  0.00  0.00    +0.000 A 
BRANCH   7  14
ATOM     13  C   UNL     1       3.823   3.077  11.043  0.00  0.00    +0.000 C 
ATOM     14  C   UNL     1       5.156   2.642  11.596  0.00  0.00    +0.000 C 
ATOM     15  O   UNL     1       5.645   1.552  11.303  0.00  0.00    +0.000 OA
ENDBRANCH   7  14
ENDBRANCH   3  11
ENDBRANCH   1   4
BRANCH   1  16
ATOM     16  C   UNL     1       3.446   5.400  17.764  0.00  0.00    +0.000 C 
BRANCH  16  17
ATOM     17  C   UNL     1       2.833   6.684  18.318  0.00  0.00    +0.000 A 
ATOM     18  C   UNL     1       2.349   6.694  19.639  0.00  0.00    +0.000 A 
ATOM     19  C   UNL     1       1.695   7.817  20.155  0.00  0.00    +0.000 A 
ATOM     20  C   UNL     1       1.529   8.952  19.367  0.00  0.00    +0.000 A 
ATOM     21  C   UNL     1       2.052   8.979  18.079  0.00  0.00    +0.000 A 
ATOM     22  C   UNL     1       2.710   7.862  17.564  0.00  0.00    +0.000 A 
ENDBRANCH  16  17
BRANCH  16  23
ATOM     23  C   UNL     1       2.635   4.136  17.977  0.00  0.00    +0.000 C 
ATOM     24  O   UNL     1       1.702   3.851  17.220  0.00  0.00    +0.000 OA
ATOM     25  N   UNL     1       3.071   3.267  18.964  0.00  0.00    +0.000 N 
ATOM     26  H   UNL     1       3.967   3.417  19.429  0.00  0.00    +0.000 HD
BRANCH  25  27
ATOM     27  N   UNL     1       2.447   2.009  19.103  0.00  0.00    +0.000 NA
ATOM     28  H   UNL     1       1.849   2.048  19.940  0.00  0.00    +0.000 HD
ATOM     29  H   UNL     1       3.170   1.328  19.349  0.00  0.00    +0.000 HD
ENDBRANCH  25  27
ENDBRANCH  16  23
ENDBRANCH   1  16
TORSDOF 7
ENDMDL
MODEL 6
REMARK VINA RESULT:      -8.3      1.262      1.710
REMARK  Name = 
REMARK  8 active torsions:
REMARK  status: ('A' for Active; 'I' for Inactive)
REMARK    1  A    between atoms: C_1  and  C_2
REMARK    2  A    between atoms: C_2  and  C_4
REMARK    3  A    between atoms: C_8  and  N_9
REMARK    4  A    between atoms: C_10  and  C_12
REMARK    5  A    between atoms: C_12  and  C_14
REMARK    6  A    between atoms: C_14  and  C_15
REMARK    7  A    between atoms: C_14  and  C_19
REMARK    8  A    between atoms: N_17  and  N_18
REMARK                            x       y       z     vdW  Elec       q    Type
REMARK                         _______ _______ _______ _____ _____    ______ ____
ROOT
ATOM      1  C   UNL     1       5.023   5.765  17.737  0.00  0.00    +0.000 C 
ATOM      2  O   UNL     1       5.934   5.958  18.533  0.00  0.00    +0.000 OA
ENDROOT
BRANCH   1   4
ATOM      3  N   UNL     1       5.860   4.709  15.734  0.00  0.00    +0.000 N 
ATOM      4  C   UNL     1       5.331   5.870  16.262  0.00  0.00    +0.000 C 
ATOM      5  O   UNL     1       5.074   6.927  15.709  0.00  0.00    +0.000 OA
ATOM      6  H   UNL     1       5.837   3.876  16.316  0.00  0.00    +0.000 HD
BRANCH   3  11
ATOM      7  C   UNL     1       6.189   3.382  12.291  0.00  0.00    +0.000 A 
ATOM      8  C   UNL     1       7.258   4.136  11.803  0.00  0.00    +0.000 A 
ATOM      9  C   UNL     1       7.879   5.077  12.620  0.00  0.00    +0.000 A 
ATOM     10  C   UNL     1       7.427   5.279  13.923  0.00  0.00    +0.000 A 
ATOM     11  C   UNL     1       6.352   4.545  14.423  0.00  0.00    +0.000 A 
ATOM     12  C   UNL     1       5.741   3.584  13.609  0.00  0.00    +0.000 A 
BRANCH   7  14
ATOM     13  C   UNL     1       6.256   1.118  11.053  0.00  0.00    +0.000 C 
ATOM     14  C   UNL     1       5.500   2.362  11.447  0.00  0.00    +0.000 C 
ATOM     15  O   UNL     1       4.335   2.540  11.094  0.00  0.00    +0.000 OA
ENDBRANCH   7  14
ENDBRANCH   3  11
ENDBRANCH   1   4
BRANCH   1  16
ATOM     16  C   UNL     1       3.639   5.259  18.069  0.00  0.00    +0.000 C 
BRANCH  16  17
ATOM     17  C   UNL     1       2.784   6.184  18.931  0.00  0.00    +0.000 A 
ATOM     18  C   UNL     1       2.583   7.513  18.513  0.00  0.00    +0.000 A 
ATOM     19  C   UNL     1       1.887   8.420  19.317  0.00  0.00    +0.000 A 
ATOM     20  C   UNL     1       1.368   8.012  20.542  0.00  0.00    +0.000 A 
ATOM     21  C   UNL     1       1.508   6.689  20.944  0.00  0.00    +0.000 A 
ATOM     22  C   UNL     1       2.197   5.779  20.140  0.00  0.00    +0.000 A 
ENDBRANCH  16  17
BRANCH  16  23
ATOM     23  C   UNL     1       3.794   3.839  18.579  0.00  0.00    +0.000 C 
ATOM     24  O   UNL     1       3.092   2.928  18.131  0.00  0.00    +0.000 OA
ATOM     25  N   UNL     1       4.837   3.598  19.458  0.00  0.00    +0.000 N 
ATOM     26  H   UNL     1       5.536   4.317  19.645  0.00  0.00    +0.000 HD
BRANCH  25  27
ATOM     27  N   UNL     1       5.122   2.271  19.846  0.00  0.00    +0.000 NA
ATOM     28  H   UNL     1       4.274   1.709  19.683  0.00  0.00    +0.000 HD
ATOM     29  H   UNL     1       5.231   2.260  20.864  0.00  0.00    +0.000 HD
ENDBRANCH  25  27
ENDBRANCH  16  23
ENDBRANCH   1  16
TORSDOF 7
ENDMDL
MODEL 7
REMARK VINA RESULT:      -8.2      1.846      2.748
REMARK  Name = 
REMARK  8 active torsions:
REMARK  status: ('A' for Active; 'I' for Inactive)
REMARK    1  A    between atoms: C_1  and  C_2
REMARK    2  A    between atoms: C_2  and  C_4
REMARK    3  A    between atoms: C_8  and  N_9
REMARK    4  A    between atoms: C_10  and  C_12
REMARK    5  A    between atoms: C_12  and  C_14
REMARK    6  A    between atoms: C_14  and  C_15
REMARK    7  A    between atoms: C_14  and  C_19
REMARK    8  A    between atoms: N_17  and  N_18
REMARK                            x       y       z     vdW  Elec       q    Type
REMARK                         _______ _______ _______ _____ _____    ______ ____
ROOT
ATOM      1  C   UNL     1       4.722   5.987  17.586  0.00  0.00    +0.000 C 
ATOM      2  O   UNL     1       4.367   7.034  18.116  0.00  0.00    +0.000 OA
ENDROOT
BRANCH   1   4
ATOM      3  N   UNL     1       5.568   4.808  15.657  0.00  0.00    +0.000 N 
ATOM      4  C   UNL     1       5.119   6.026  16.129  0.00  0.00    +0.000 C 
ATOM      5  O   UNL     1       4.989   7.087  15.540  0.00  0.00    +0.000 OA
ATOM      6  H   UNL     1       5.437   3.997  16.254  0.00  0.00    +0.000 HD
BRANCH   3  11
ATOM      7  C   UNL     1       5.941   3.396  12.252  0.00  0.00    +0.000 A 
ATOM      8  C   UNL     1       7.119   4.012  11.823  0.00  0.00    +0.000 A 
ATOM      9  C   UNL     1       7.796   4.886  12.668  0.00  0.00    +0.000 A 
ATOM     10  C   UNL     1       7.296   5.161  13.940  0.00  0.00    +0.000 A 
ATOM     11  C   UNL     1       6.113   4.567  14.379  0.00  0.00    +0.000 A 
ATOM     12  C   UNL     1       5.443   3.671  13.539  0.00  0.00    +0.000 A 
BRANCH   7  14
ATOM     13  C   UNL     1       3.832   2.865  10.863  0.00  0.00    +0.000 C 
ATOM     14  C   UNL     1       5.187   2.451  11.377  0.00  0.00    +0.000 C 
ATOM     15  O   UNL     1       5.678   1.362  11.082  0.00  0.00    +0.000 OA
ENDBRANCH   7  14
ENDBRANCH   3  11
ENDBRANCH   1   4
BRANCH   1  16
ATOM     16  C   UNL     1       4.971   4.672  18.285  0.00  0.00    +0.000 C 
BRANCH  16  17
ATOM     17  C   UNL     1       3.938   4.275  19.338  0.00  0.00    +0.000 A 
ATOM     18  C   UNL     1       3.045   5.250  19.819  0.00  0.00    +0.000 A 
ATOM     19  C   UNL     1       2.148   4.955  20.849  0.00  0.00    +0.000 A 
ATOM     20  C   UNL     1       2.117   3.679  21.404  0.00  0.00    +0.000 A 
ATOM     21  C   UNL     1       2.953   2.688  20.902  0.00  0.00    +0.000 A 
ATOM     22  C   UNL     1       3.845   2.979  19.869  0.00  0.00    +0.000 A 
ENDBRANCH  16  17
BRANCH  16  23
ATOM     23  C   UNL     1       6.415   4.680  18.748  0.00  0.00    +0.000 C 
ATOM     24  O   UNL     1       7.303   4.184  18.049  0.00  0.00    +0.000 OA
ATOM     25  N   UNL     1       6.699   5.379  19.910  0.00  0.00    +0.000 N 
ATOM     26  H   UNL     1       5.988   5.962  20.353  0.00  0.00    +0.000 HD
BRANCH  25  27
ATOM     27  N   UNL     1       8.044   5.547  20.304  0.00  0.00    +0.000 NA
ATOM     28  H   UNL     1       8.344   4.679  20.770  0.00  0.00    +0.000 HD
ATOM     29  H   UNL     1       8.064   6.246  21.052  0.00  0.00    +0.000 HD
ENDBRANCH  25  27
ENDBRANCH  16  23
ENDBRANCH   1  16
TORSDOF 7
ENDMDL
MODEL 8
REMARK VINA RESULT:      -8.2      1.185      1.374
REMARK  Name = 
REMARK  8 active torsions:
REMARK  status: ('A' for Active; 'I' for Inactive)
REMARK    1  A    between atoms: C_1  and  C_2
REMARK    2  A    between atoms: C_2  and  C_4
REMARK    3  A    between atoms: C_8  and  N_9
REMARK    4  A    between atoms: C_10  and  C_12
REMARK    5  A    between atoms: C_12  and  C_14
REMARK    6  A    between atoms: C_14  and  C_15
REMARK    7  A    between atoms: C_14  and  C_19
REMARK    8  A    between atoms: N_17  and  N_18
REMARK                            x       y       z     vdW  Elec       q    Type
REMARK                         _______ _______ _______ _____ _____    ______ ____
ROOT
ATOM      1  C   UNL     1       5.188   5.552  17.902  0.00  0.00    +0.000 C 
ATOM      2  O   UNL     1       6.095   5.668  18.718  0.00  0.00    +0.000 OA
ENDROOT
BRANCH   1   4
ATOM      3  N   UNL     1       5.903   4.585  15.808  0.00  0.00    +0.000 N 
ATOM      4  C   UNL     1       5.516   5.751  16.440  0.00  0.00    +0.000 C 
ATOM      5  O   UNL     1       5.392   6.876  15.986  0.00  0.00    +0.000 OA
ATOM      6  H   UNL     1       5.775   3.713  16.313  0.00  0.00    +0.000 HD
BRANCH   3  11
ATOM      7  C   UNL     1       6.210   3.393  12.314  0.00  0.00    +0.000 A 
ATOM      8  C   UNL     1       7.254   4.189  11.839  0.00  0.00    +0.000 A 
ATOM      9  C   UNL     1       7.865   5.113  12.682  0.00  0.00    +0.000 A 
ATOM     10  C   UNL     1       7.429   5.258  13.998  0.00  0.00    +0.000 A 
ATOM     11  C   UNL     1       6.378   4.481  14.485  0.00  0.00    +0.000 A 
ATOM     12  C   UNL     1       5.777   3.536  13.645  0.00  0.00    +0.000 A 
BRANCH   7  14
ATOM     13  C   UNL     1       6.296   1.157  11.028  0.00  0.00    +0.000 C 
ATOM     14  C   UNL     1       5.532   2.389  11.443  0.00  0.00    +0.000 C 
ATOM     15  O   UNL     1       4.369   2.569  11.085  0.00  0.00    +0.000 OA
ENDBRANCH   7  14
ENDBRANCH   3  11
ENDBRANCH   1   4
BRANCH   1  16
ATOM     16  C   UNL     1       3.789   5.059  18.185  0.00  0.00    +0.000 C 
BRANCH  16  17
ATOM     17  C   UNL     1       2.949   5.941  19.104  0.00  0.00    +0.000 A 
ATOM     18  C   UNL     1       2.331   5.363  20.228  0.00  0.00    +0.000 A 
ATOM     19  C   UNL     1       1.476   6.112  21.043  0.00  0.00    +0.000 A 
ATOM     20  C   UNL     1       1.238   7.453  20.757  0.00  0.00    +0.000 A 
ATOM     21  C   UNL     1       1.885   8.055  19.684  0.00  0.00    +0.000 A 
ATOM     22  C   UNL     1       2.743   7.311  18.873  0.00  0.00    +0.000 A 
ENDBRANCH  16  17
BRANCH  16  23
ATOM     23  C   UNL     1       3.905   3.603  18.593  0.00  0.00    +0.000 C 
ATOM     24  O   UNL     1       3.224   2.736  18.037  0.00  0.00    +0.000 OA
ATOM     25  N   UNL     1       4.893   3.284  19.510  0.00  0.00    +0.000 N 
ATOM     26  H   UNL     1       5.585   3.978  19.792  0.00  0.00    +0.000 HD
BRANCH  25  27
ATOM     27  N   UNL     1       5.145   1.927  19.811  0.00  0.00    +0.000 NA
ATOM     28  H   UNL     1       5.863   1.899  20.547  0.00  0.00    +0.000 HD
ATOM     29  H   UNL     1       5.609   1.510  18.999  0.00  0.00    +0.000 HD
ENDBRANCH  25  27
ENDBRANCH  16  23
ENDBRANCH   1  16
TORSDOF 7
ENDMDL
MODEL 9
REMARK VINA RESULT:      -8.0      0.433      1.055
REMARK  Name = 
REMARK  8 active torsions:
REMARK  status: ('A' for Active; 'I' for Inactive)
REMARK    1  A    between atoms: C_1  and  C_2
REMARK    2  A    between atoms: C_2  and  C_4
REMARK    3  A    between atoms: C_8  and  N_9
REMARK    4  A    between atoms: C_10  and  C_12
REMARK    5  A    between atoms: C_12  and  C_14
REMARK    6  A    between atoms: C_14  and  C_15
REMARK    7  A    between atoms: C_14  and  C_19
REMARK    8  A    between atoms: N_17  and  N_18
REMARK                            x       y       z     vdW  Elec       q    Type
REMARK                         _______ _______ _______ _____ _____    ______ ____
ROOT
ATOM      1  C   UNL     1       5.770   4.953  18.268  0.00  0.00    +0.000 C 
ATOM      2  O   UNL     1       6.394   4.944  19.322  0.00  0.00    +0.000 OA
ENDROOT
BRANCH   1   4
ATOM      3  N   UNL     1       5.785   4.718  15.865  0.00  0.00    +0.000 N 
ATOM      4  C   UNL     1       6.553   5.001  16.977  0.00  0.00    +0.000 C 
ATOM      5  O   UNL     1       7.737   5.290  17.050  0.00  0.00    +0.000 OA
ATOM      6  H   UNL     1       4.777   4.674  15.991  0.00  0.00    +0.000 HD
BRANCH   3  11
ATOM      7  C   UNL     1       6.016   3.506  12.372  0.00  0.00    +0.000 A 
ATOM      8  C   UNL     1       7.131   4.206  11.908  0.00  0.00    +0.000 A 
ATOM      9  C   UNL     1       7.814   5.071  12.757  0.00  0.00    +0.000 A 
ATOM     10  C   UNL     1       7.381   5.253  14.069  0.00  0.00    +0.000 A 
ATOM     11  C   UNL     1       6.261   4.573  14.546  0.00  0.00    +0.000 A 
ATOM     12  C   UNL     1       5.586   3.686  13.699  0.00  0.00    +0.000 A 
BRANCH   7  14
ATOM     13  C   UNL     1       3.947   3.023  10.906  0.00  0.00    +0.000 C 
ATOM     14  C   UNL     1       5.259   2.566  11.494  0.00  0.00    +0.000 C 
ATOM     15  O   UNL     1       5.711   1.448  11.254  0.00  0.00    +0.000 OA
ENDBRANCH   7  14
ENDBRANCH   3  11
ENDBRANCH   1   4
BRANCH   1  16
ATOM     16  C   UNL     1       4.282   4.750  18.109  0.00  0.00    +0.000 C 
BRANCH  16  17
ATOM     17  C   UNL     1       3.406   5.942  18.486  0.00  0.00    +0.000 A 
ATOM     18  C   UNL     1       3.320   7.033  17.601  0.00  0.00    +0.000 A 
ATOM     19  C   UNL     1       2.606   8.184  17.948  0.00  0.00    +0.000 A 
ATOM     20  C   UNL     1       1.955   8.258  19.175  0.00  0.00    +0.000 A 
ATOM     21  C   UNL     1       1.982   7.168  20.037  0.00  0.00    +0.000 A 
ATOM     22  C   UNL     1       2.688   6.015  19.691  0.00  0.00    +0.000 A 
ENDBRANCH  16  17
BRANCH  16  23
ATOM     23  C   UNL     1       3.937   3.438  18.785  0.00  0.00    +0.000 C 
ATOM     24  O   UNL     1       3.373   2.535  18.160  0.00  0.00    +0.000 OA
ATOM     25  N   UNL     1       4.399   3.257  20.079  0.00  0.00    +0.000 N 
ATOM     26  H   UNL     1       5.046   3.925  20.498  0.00  0.00    +0.000 HD
BRANCH  25  27
ATOM     27  N   UNL     1       4.238   2.000  20.701  0.00  0.00    +0.000 NA
ATOM     28  H   UNL     1       4.773   2.016  21.581  0.00  0.00    +0.000 HD
ATOM     29  H   UNL     1       4.728   1.306  20.129  0.00  0.00    +0.000 HD
ENDBRANCH  25  27
ENDBRANCH  16  23
ENDBRANCH   1  16
TORSDOF 7
ENDMDL
