MODEL 1
REMARK VINA RESULT:      -7.0      0.000      0.000
REMARK  Name = 
REMARK  10 active torsions:
REMARK  status: ('A' for Active; 'I' for Inactive)
REMARK    1  A    between atoms: C_1  and  C_2
REMARK    2  A    between atoms: C_2  and  C_3
REMARK    3  A    between atoms: C_3  and  C_4
REMARK    4  A    between atoms: C_4  and  N_5
REMARK    5  A    between atoms: N_5  and  C_6
REMARK    6  A    between atoms: N_5  and  C_15
REMARK    7  A    between atoms: C_6  and  C_7
REMARK    8  A    between atoms: C_13  and  O_14
REMARK    9  A    between atoms: C_15  and  N_17
REMARK   10  A    between atoms: N_17  and  C_18
REMARK                            x       y       z     vdW  Elec       q    Type
REMARK                         _______ _______ _______ _____ _____    ______ ____
ROOT
ATOM      1  N   UNL     1       5.119   5.557  17.442  0.00  0.00    +0.000 N 
ENDROOT
BRANCH   1   2
ATOM      2  C   UNL     1       5.111   4.418  16.589  0.00  0.00    +0.000 C 
ATOM      3  S   UNL     1       5.530   4.445  14.955  0.00  0.00    +0.000 S 
BRANCH   2   4
ATOM      4  N   UNL     1       4.791   3.249  17.274  0.00  0.00    +0.000 N 
ATOM      5  H   UNL     1       5.308   2.439  16.942  0.00  0.00    +0.000 HD
BRANCH   4   6
ATOM      6  C   UNL     1       3.666   2.988  18.089  0.00  0.00    +0.000 A 
ATOM      7  C   UNL     1       3.870   2.725  19.446  0.00  0.00    +0.000 A 
ATOM      8  C   UNL     1       2.780   2.501  20.295  0.00  0.00    +0.000 A 
ATOM      9  C   UNL     1       1.482   2.588  19.799  0.00  0.00    +0.000 A 
ATOM     10  C   UNL     1       1.269   2.886  18.455  0.00  0.00    +0.000 A 
ATOM     11  C   UNL     1       2.359   3.080  17.600  0.00  0.00    +0.000 A 
ENDBRANCH   4   6
ENDBRANCH   2   4
ENDBRANCH   1   2
BRANCH   1  12
ATOM     12  C   UNL     1       6.325   5.936  18.211  0.00  0.00    +0.000 C 
BRANCH  12  13
ATOM     13  C   UNL     1       7.257   6.865  17.427  0.00  0.00    +0.000 C 
BRANCH  13  15
ATOM     14  C   UNL     1       8.243   9.120  18.001  0.00  0.00    +0.000 C 
ATOM     15  C   UNL     1       8.181   7.645  18.368  0.00  0.00    +0.000 C 
ENDBRANCH  13  15
ENDBRANCH  12  13
ENDBRANCH   1  12
BRANCH   1  16
ATOM     16  C   UNL     1       4.151   6.640  17.180  0.00  0.00    +0.000 C 
BRANCH  16  17
ATOM     17  C   UNL     1       3.135   6.950  18.257  0.00  0.00    +0.000 A 
ATOM     18  C   UNL     1       3.024   6.109  19.380  0.00  0.00    +0.000 A 
ATOM     19  C   UNL     1       2.235   6.467  20.479  0.00  0.00    +0.000 A 
ATOM     20  C   UNL     1       1.538   7.673  20.476  0.00  0.00    +0.000 A 
ATOM     21  C   UNL     1       1.614   8.505  19.363  0.00  0.00    +0.000 A 
ATOM     22 BR   UNL     1       0.684  10.158  19.398  0.00  0.00    +0.000 Br
ATOM     23  C   UNL     1       2.399   8.144  18.255  0.00  0.00    +0.000 A 
BRANCH  23  24
ATOM     24  O   UNL     1       2.505   8.978  17.171  0.00  0.00    +0.000 OA
ATOM     25  H   UNL     1       2.774   8.423  16.414  0.00  0.00    +0.000 HD
ENDBRANCH  23  24
ENDBRANCH  16  17
ENDBRANCH   1  16
TORSDOF 9
ENDMDL
MODEL 2
REMARK VINA RESULT:      -7.0      0.099      1.011
REMARK  Name = 
REMARK  10 active torsions:
REMARK  status: ('A' for Active; 'I' for Inactive)
REMARK    1  A    between atoms: C_1  and  C_2
REMARK    2  A    between atoms: C_2  and  C_3
REMARK    3  A    between atoms: C_3  and  C_4
REMARK    4  A    between atoms: C_4  and  N_5
REMARK    5  A    between atoms: N_5  and  C_6
REMARK    6  A    between atoms: N_5  and  C_15
REMARK    7  A    between atoms: C_6  and  C_7
REMARK    8  A    between atoms: C_13  and  O_14
REMARK    9  A    between atoms: C_15  and  N_17
REMARK   10  A    between atoms: N_17  and  C_18
REMARK                            x       y       z     vdW  Elec       q    Type
REMARK                         _______ _______ _______ _____ _____    ______ ____
ROOT
ATOM      1  N   UNL     1       5.188   5.584  17.368  0.00  0.00    +0.000 N 
ENDROOT
BRANCH   1   2
ATOM      2  C   UNL     1       5.162   4.461  16.494  0.00  0.00    +0.000 C 
ATOM      3  S   UNL     1       5.590   4.510  14.863  0.00  0.00    +0.000 S 
BRANCH   2   4
ATOM      4  N   UNL     1       4.818   3.286  17.156  0.00  0.00    +0.000 N 
ATOM      5  H   UNL     1       5.244   2.458  16.747  0.00  0.00    +0.000 HD
BRANCH   4   6
ATOM      6  C   UNL     1       3.749   3.065  18.055  0.00  0.00    +0.000 A 
ATOM      7  C   UNL     1       2.442   3.090  17.558  0.00  0.00    +0.000 A 
ATOM      8  C   UNL     1       1.358   2.837  18.406  0.00  0.00    +0.000 A 
ATOM      9  C   UNL     1       1.581   2.512  19.742  0.00  0.00    +0.000 A 
ATOM     10  C   UNL     1       2.882   2.449  20.236  0.00  0.00    +0.000 A 
ATOM     11  C   UNL     1       3.964   2.732  19.395  0.00  0.00    +0.000 A 
ENDBRANCH   4   6
ENDBRANCH   2   4
ENDBRANCH   1   2
BRANCH   1  12
ATOM     12  C   UNL     1       6.402   5.934  18.138  0.00  0.00    +0.000 C 
BRANCH  12  13
ATOM     13  C   UNL     1       7.294   6.942  17.406  0.00  0.00    +0.000 C 
BRANCH  13  15
ATOM     14  C   UNL     1       8.286   9.176  18.051  0.00  0.00    +0.000 C 
ATOM     15  C   UNL     1       8.200   7.695  18.386  0.00  0.00    +0.000 C 
ENDBRANCH  13  15
ENDBRANCH  12  13
ENDBRANCH   1  12
BRANCH   1  16
ATOM     16  C   UNL     1       4.231   6.682  17.132  0.00  0.00    +0.000 C 
BRANCH  16  17
ATOM     17  C   UNL     1       3.202   6.961  18.206  0.00  0.00    +0.000 A 
ATOM     18  C   UNL     1       3.103   6.109  19.321  0.00  0.00    +0.000 A 
ATOM     19  C   UNL     1       2.300   6.439  20.418  0.00  0.00    +0.000 A 
ATOM     20  C   UNL     1       1.576   7.630  20.421  0.00  0.00    +0.000 A 
ATOM     21  C   UNL     1       1.640   8.472  19.315  0.00  0.00    +0.000 A 
ATOM     22 BR   UNL     1       0.674  10.103  19.357  0.00  0.00    +0.000 Br
ATOM     23  C   UNL     1       2.440   8.138  18.208  0.00  0.00    +0.000 A 
BRANCH  23  24
ATOM     24  O   UNL     1       2.533   8.983  17.132  0.00  0.00    +0.000 OA
ATOM     25  H   UNL     1       2.505   9.893  17.486  0.00  0.00    +0.000 HD
ENDBRANCH  23  24
ENDBRANCH  16  17
ENDBRANCH   1  16
TORSDOF 9
ENDMDL
MODEL 3
REMARK VINA RESULT:      -6.7      0.927      1.168
REMARK  Name = 
REMARK  10 active torsions:
REMARK  status: ('A' for Active; 'I' for Inactive)
REMARK    1  A    between atoms: C_1  and  C_2
REMARK    2  A    between atoms: C_2  and  C_3
REMARK    3  A    between atoms: C_3  and  C_4
REMARK    4  A    between atoms: C_4  and  N_5
REMARK    5  A    between atoms: N_5  and  C_6
REMARK    6  A    between atoms: N_5  and  C_15
REMARK    7  A    between atoms: C_6  and  C_7
REMARK    8  A    between atoms: C_13  and  O_14
REMARK    9  A    between atoms: C_15  and  N_17
REMARK   10  A    between atoms: N_17  and  C_18
REMARK                            x       y       z     vdW  Elec       q    Type
REMARK                         _______ _______ _______ _____ _____    ______ ____
ROOT
ATOM      1  N   UNL     1       4.409   5.305  17.918  0.00  0.00    +0.000 N 
ENDROOT
BRANCH   1   2
ATOM      2  C   UNL     1       4.759   4.100  17.245  0.00  0.00    +0.000 C 
ATOM      3  S   UNL     1       5.678   4.027  15.833  0.00  0.00    +0.000 S 
BRANCH   2   4
ATOM      4  N   UNL     1       4.321   2.969  17.929  0.00  0.00    +0.000 N 
ATOM      5  H   UNL     1       4.632   2.100  17.503  0.00  0.00    +0.000 HD
BRANCH   4   6
ATOM      6  C   UNL     1       3.283   2.866  18.883  0.00  0.00    +0.000 A 
ATOM      7  C   UNL     1       3.617   2.892  20.240  0.00  0.00    +0.000 A 
ATOM      8  C   UNL     1       2.615   2.834  21.216  0.00  0.00    +0.000 A 
ATOM      9  C   UNL     1       1.275   2.796  20.837  0.00  0.00    +0.000 A 
ATOM     10  C   UNL     1       0.933   2.807  19.487  0.00  0.00    +0.000 A 
ATOM     11  C   UNL     1       1.936   2.835  18.511  0.00  0.00    +0.000 A 
ENDBRANCH   4   6
ENDBRANCH   2   4
ENDBRANCH   1   2
BRANCH   1  12
ATOM     12  C   UNL     1       5.427   6.120  18.617  0.00  0.00    +0.000 C 
BRANCH  12  13
ATOM     13  C   UNL     1       6.437   5.267  19.391  0.00  0.00    +0.000 C 
BRANCH  13  15
ATOM     14  C   UNL     1       7.924   7.008  18.319  0.00  0.00    +0.000 C 
ATOM     15  C   UNL     1       7.876   5.687  19.072  0.00  0.00    +0.000 C 
ENDBRANCH  13  15
ENDBRANCH  12  13
ENDBRANCH   1  12
BRANCH   1  16
ATOM     16  C   UNL     1       3.185   6.015  17.500  0.00  0.00    +0.000 C 
BRANCH  16  17
ATOM     17  C   UNL     1       2.428   6.792  18.555  0.00  0.00    +0.000 A 
ATOM     18  C   UNL     1       2.200   6.218  19.820  0.00  0.00    +0.000 A 
ATOM     19  C   UNL     1       1.676   6.973  20.875  0.00  0.00    +0.000 A 
ATOM     20  C   UNL     1       1.366   8.318  20.686  0.00  0.00    +0.000 A 
ATOM     21  C   UNL     1       1.559   8.895  19.434  0.00  0.00    +0.000 A 
ATOM     22 BR   UNL     1       1.163  10.736  19.211  0.00  0.00    +0.000 Br
ATOM     23  C   UNL     1       2.078   8.137  18.371  0.00  0.00    +0.000 A 
BRANCH  23  24
ATOM     24  O   UNL     1       2.304   8.712  17.146  0.00  0.00    +0.000 OA
ATOM     25  H   UNL     1       3.163   8.371  16.829  0.00  0.00    +0.000 HD
ENDBRANCH  23  24
ENDBRANCH  16  17
ENDBRANCH   1  16
TORSDOF 9
ENDMDL
MODEL 4
REMARK VINA RESULT:      -6.7      1.535      2.018
REMARK  Name = 
REMARK  10 active torsions:
REMARK  status: ('A' for Active; 'I' for Inactive)
REMARK    1  A    between atoms: C_1  and  C_2
REMARK    2  A    between atoms: C_2  and  C_3
REMARK    3  A    between atoms: C_3  and  C_4
REMARK    4  A    between atoms: C_4  and  N_5
REMARK    5  A    between atoms: N_5  and  C_6
REMARK    6  A    between atoms: N_5  and  C_15
REMARK    7  A    between atoms: C_6  and  C_7
REMARK    8  A    between atoms: C_13  and  O_14
REMARK    9  A    between atoms: C_15  and  N_17
REMARK   10  A    between atoms: N_17  and  C_18
REMARK                            x       y       z     vdW  Elec       q    Type
REMARK                         _______ _______ _______ _____ _____    ______ ____
ROOT
ATOM      1  N   UNL     1       4.206   5.156  18.041  0.00  0.00    +0.000 N 
ENDROOT
BRANCH   1   2
ATOM      2  C   UNL     1       4.594   3.949  17.394  0.00  0.00    +0.000 C 
ATOM      3  S   UNL     1       5.567   3.873  16.018  0.00  0.00    +0.000 S 
BRANCH   2   4
ATOM      4  N   UNL     1       4.145   2.820  18.073  0.00  0.00    +0.000 N 
ATOM      5  H   UNL     1       4.380   1.951  17.601  0.00  0.00    +0.000 HD
BRANCH   4   6
ATOM      6  C   UNL     1       3.169   2.739  19.093  0.00  0.00    +0.000 A 
ATOM      7  C   UNL     1       3.590   2.790  20.425  0.00  0.00    +0.000 A 
ATOM      8  C   UNL     1       2.653   2.753  21.464  0.00  0.00    +0.000 A 
ATOM      9  C   UNL     1       1.291   2.713  21.173  0.00  0.00    +0.000 A 
ATOM     10  C   UNL     1       0.863   2.699  19.848  0.00  0.00    +0.000 A 
ATOM     11  C   UNL     1       1.801   2.705  18.809  0.00  0.00    +0.000 A 
ENDBRANCH   4   6
ENDBRANCH   2   4
ENDBRANCH   1   2
BRANCH   1  12
ATOM     12  C   UNL     1       5.210   6.140  18.505  0.00  0.00    +0.000 C 
BRANCH  12  13
ATOM     13  C   UNL     1       6.356   5.489  19.285  0.00  0.00    +0.000 C 
BRANCH  13  15
ATOM     14  C   UNL     1       7.653   7.091  17.822  0.00  0.00    +0.000 C 
ATOM     15  C   UNL     1       7.713   5.819  18.655  0.00  0.00    +0.000 C 
ENDBRANCH  13  15
ENDBRANCH  12  13
ENDBRANCH   1  12
BRANCH   1  16
ATOM     16  C   UNL     1       2.849   5.683  17.795  0.00  0.00    +0.000 C 
BRANCH  16  17
ATOM     17  C   UNL     1       2.518   7.054  18.340  0.00  0.00    +0.000 A 
ATOM     18  C   UNL     1       2.447   8.157  17.470  0.00  0.00    +0.000 A 
ATOM     19  C   UNL     1       1.960   9.394  17.905  0.00  0.00    +0.000 A 
ATOM     20  C   UNL     1       1.537   9.555  19.222  0.00  0.00    +0.000 A 
ATOM     21  C   UNL     1       1.626   8.483  20.105  0.00  0.00    +0.000 A 
ATOM     22 BR   UNL     1       1.011   8.716  21.884  0.00  0.00    +0.000 Br
ATOM     23  C   UNL     1       2.122   7.241  19.672  0.00  0.00    +0.000 A 
BRANCH  23  24
ATOM     24  O   UNL     1       2.177   6.173  20.530  0.00  0.00    +0.000 OA
ATOM     25  H   UNL     1       1.311   6.128  20.980  0.00  0.00    +0.000 HD
ENDBRANCH  23  24
ENDBRANCH  16  17
ENDBRANCH   1  16
TORSDOF 9
ENDMDL
MODEL 5
REMARK VINA RESULT:      -6.6      1.980      5.046
REMARK  Name = 
REMARK  10 active torsions:
REMARK  status: ('A' for Active; 'I' for Inactive)
REMARK    1  A    between atoms: C_1  and  C_2
REMARK    2  A    between atoms: C_2  and  C_3
REMARK    3  A    between atoms: C_3  and  C_4
REMARK    4  A    between atoms: C_4  and  N_5
REMARK    5  A    between atoms: N_5  and  C_6
REMARK    6  A    between atoms: N_5  and  C_15
REMARK    7  A    between atoms: C_6  and  C_7
REMARK    8  A    between atoms: C_13  and  O_14
REMARK    9  A    between atoms: C_15  and  N_17
REMARK   10  A    between atoms: N_17  and  C_18
REMARK                            x       y       z     vdW  Elec       q    Type
REMARK                         _______ _______ _______ _____ _____    ______ ____
ROOT
ATOM      1  N   UNL     1       3.574   4.487  18.956  0.00  0.00    +0.000 N 
ENDROOT
BRANCH   1   2
ATOM      2  C   UNL     1       4.589   3.535  19.254  0.00  0.00    +0.000 C 
ATOM      3  S   UNL     1       4.420   2.272  20.360  0.00  0.00    +0.000 S 
BRANCH   2   4
ATOM      4  N   UNL     1       5.724   3.711  18.467  0.00  0.00    +0.000 N 
ATOM      5  H   UNL     1       6.235   2.848  18.305  0.00  0.00    +0.000 HD
BRANCH   4   6
ATOM      6  C   UNL     1       6.405   4.913  18.166  0.00  0.00    +0.000 A 
ATOM      7  C   UNL     1       6.066   5.598  16.995  0.00  0.00    +0.000 A 
ATOM      8  C   UNL     1       6.689   6.812  16.681  0.00  0.00    +0.000 A 
ATOM      9  C   UNL     1       7.616   7.366  17.559  0.00  0.00    +0.000 A 
ATOM     10  C   UNL     1       7.933   6.708  18.745  0.00  0.00    +0.000 A 
ATOM     11  C   UNL     1       7.332   5.480  19.045  0.00  0.00    +0.000 A 
ENDBRANCH   4   6
ENDBRANCH   2   4
ENDBRANCH   1   2
BRANCH   1  12
ATOM     12  C   UNL     1       2.475   4.173  18.015  0.00  0.00    +0.000 C 
BRANCH  12  13
ATOM     13  C   UNL     1       2.229   2.668  17.877  0.00  0.00    +0.000 C 
BRANCH  13  15
ATOM     14  C   UNL     1       0.702   3.141  19.835  0.00  0.00    +0.000 C 
ATOM     15  C   UNL     1       0.970   2.240  18.640  0.00  0.00    +0.000 C 
ENDBRANCH  13  15
ENDBRANCH  12  13
ENDBRANCH   1  12
BRANCH   1  16
ATOM     16  C   UNL     1       3.303   5.557  19.935  0.00  0.00    +0.000 C 
BRANCH  16  17
ATOM     17  C   UNL     1       2.825   6.891  19.404  0.00  0.00    +0.000 A 
ATOM     18  C   UNL     1       3.170   7.292  18.100  0.00  0.00    +0.000 A 
ATOM     19  C   UNL     1       2.593   8.421  17.512  0.00  0.00    +0.000 A 
ATOM     20  C   UNL     1       1.659   9.177  18.217  0.00  0.00    +0.000 A 
ATOM     21  C   UNL     1       1.326   8.812  19.518  0.00  0.00    +0.000 A 
ATOM     22 BR   UNL     1       0.025   9.835  20.445  0.00  0.00    +0.000 Br
ATOM     23  C   UNL     1       1.910   7.681  20.114  0.00  0.00    +0.000 A 
BRANCH  23  24
ATOM     24  O   UNL     1       1.557   7.298  21.382  0.00  0.00    +0.000 OA
ATOM     25  H   UNL     1       0.976   7.999  21.737  0.00  0.00    +0.000 HD
ENDBRANCH  23  24
ENDBRANCH  16  17
ENDBRANCH   1  16
TORSDOF 9
ENDMDL
MODEL 6
REMARK VINA RESULT:      -6.6      1.535      5.074
REMARK  Name = 
REMARK  10 active torsions:
REMARK  status: ('A' for Active; 'I' for Inactive)
REMARK    1  A    between atoms: C_1  and  C_2
REMARK    2  A    between atoms: C_2  and  C_3
REMARK    3  A    between atoms: C_3  and  C_4
REMARK    4  A    between atoms: C_4  and  N_5
REMARK    5  A    between atoms: N_5  and  C_6
REMARK    6  A    between atoms: N_5  and  C_15
REMARK    7  A    between atoms: C_6  and  C_7
REMARK    8  A    between atoms: C_13  and  O_14
REMARK    9  A    between atoms: C_15  and  N_17
REMARK   10  A    between atoms: N_17  and  C_18
REMARK                            x       y       z     vdW  Elec       q    Type
REMARK                         _______ _______ _______ _____ _____    ______ ____
ROOT
ATOM      1  N   UNL     1       3.886   4.194  17.363  0.00  0.00    +0.000 N 
ENDROOT
BRANCH   1   2
ATOM      2  C   UNL     1       5.132   4.087  16.683  0.00  0.00    +0.000 C 
ATOM      3  S   UNL     1       5.297   3.897  15.015  0.00  0.00    +0.000 S 
BRANCH   2   4
ATOM      4  N   UNL     1       6.216   4.236  17.543  0.00  0.00    +0.000 N 
ATOM      5  H   UNL     1       6.318   3.463  18.195  0.00  0.00    +0.000 HD
BRANCH   4   6
ATOM      6  C   UNL     1       6.946   5.411  17.840  0.00  0.00    +0.000 A 
ATOM      7  C   UNL     1       6.856   6.493  16.961  0.00  0.00    +0.000 A 
ATOM      8  C   UNL     1       7.531   7.688  17.239  0.00  0.00    +0.000 A 
ATOM      9  C   UNL     1       8.258   7.818  18.420  0.00  0.00    +0.000 A 
ATOM     10  C   UNL     1       8.322   6.756  19.319  0.00  0.00    +0.000 A 
ATOM     11  C   UNL     1       7.672   5.552  19.026  0.00  0.00    +0.000 A 
ENDBRANCH   4   6
ENDBRANCH   2   4
ENDBRANCH   1   2
BRANCH   1  12
ATOM     12  C   UNL     1       2.764   3.275  17.065  0.00  0.00    +0.000 C 
BRANCH  12  13
ATOM     13  C   UNL     1       2.432   2.350  18.240  0.00  0.00    +0.000 C 
BRANCH  13  15
ATOM     14  C   UNL     1       0.926   2.902  20.194  0.00  0.00    +0.000 C 
ATOM     15  C   UNL     1       0.989   2.554  18.715  0.00  0.00    +0.000 C 
ENDBRANCH  13  15
ENDBRANCH  12  13
ENDBRANCH   1  12
BRANCH   1  16
ATOM     16  C   UNL     1       3.861   4.838  18.690  0.00  0.00    +0.000 C 
BRANCH  16  17
ATOM     17  C   UNL     1       3.281   6.232  18.783  0.00  0.00    +0.000 A 
ATOM     18  C   UNL     1       3.340   7.093  17.672  0.00  0.00    +0.000 A 
ATOM     19  C   UNL     1       2.651   8.310  17.659  0.00  0.00    +0.000 A 
ATOM     20  C   UNL     1       1.890   8.694  18.761  0.00  0.00    +0.000 A 
ATOM     21  C   UNL     1       1.841   7.868  19.880  0.00  0.00    +0.000 A 
ATOM     22 BR   UNL     1       0.769   8.396  21.353  0.00  0.00    +0.000 Br
ATOM     23  C   UNL     1       2.539   6.649  19.898  0.00  0.00    +0.000 A 
BRANCH  23  24
ATOM     24  O   UNL     1       2.464   5.816  20.985  0.00  0.00    +0.000 OA
ATOM     25  H   UNL     1       3.221   6.038  21.562  0.00  0.00    +0.000 HD
ENDBRANCH  23  24
ENDBRANCH  16  17
ENDBRANCH   1  16
TORSDOF 9
ENDMDL
MODEL 7
REMARK VINA RESULT:      -6.6      1.917      5.044
REMARK  Name = 
REMARK  10 active torsions:
REMARK  status: ('A' for Active; 'I' for Inactive)
REMARK    1  A    between atoms: C_1  and  C_2
REMARK    2  A    between atoms: C_2  and  C_3
REMARK    3  A    between atoms: C_3  and  C_4
REMARK    4  A    between atoms: C_4  and  N_5
REMARK    5  A    between atoms: N_5  and  C_6
REMARK    6  A    between atoms: N_5  and  C_15
REMARK    7  A    between atoms: C_6  and  C_7
REMARK    8  A    between atoms: C_13  and  O_14
REMARK    9  A    between atoms: C_15  and  N_17
REMARK   10  A    between atoms: N_17  and  C_18
REMARK                            x       y       z     vdW  Elec       q    Type
REMARK                         _______ _______ _______ _____ _____    ______ ____
ROOT
ATOM      1  N   UNL     1       2.669   5.472  18.386  0.00  0.00    +0.000 N 
ENDROOT
BRANCH   1   2
ATOM      2  C   UNL     1       3.668   4.741  17.684  0.00  0.00    +0.000 C 
ATOM      3  S   UNL     1       3.669   3.065  17.493  0.00  0.00    +0.000 S 
BRANCH   2   4
ATOM      4  N   UNL     1       4.616   5.575  17.096  0.00  0.00    +0.000 N 
ATOM      5  H   UNL     1       4.535   5.620  16.084  0.00  0.00    +0.000 HD
BRANCH   4   6
ATOM      6  C   UNL     1       5.817   6.070  17.655  0.00  0.00    +0.000 A 
ATOM      7  C   UNL     1       6.401   5.368  18.713  0.00  0.00    +0.000 A 
ATOM      8  C   UNL     1       7.611   5.802  19.267  0.00  0.00    +0.000 A 
ATOM      9  C   UNL     1       8.263   6.912  18.734  0.00  0.00    +0.000 A 
ATOM     10  C   UNL     1       7.705   7.595  17.656  0.00  0.00    +0.000 A 
ATOM     11  C   UNL     1       6.481   7.179  17.121  0.00  0.00    +0.000 A 
ENDBRANCH   4   6
ENDBRANCH   2   4
ENDBRANCH   1   2
BRANCH   1  12
ATOM     12  C   UNL     1       1.368   4.860  18.734  0.00  0.00    +0.000 C 
BRANCH  12  13
ATOM     13  C   UNL     1       1.256   4.518  20.223  0.00  0.00    +0.000 C 
BRANCH  13  15
ATOM     14  C   UNL     1       1.662   2.546  21.751  0.00  0.00    +0.000 C 
ATOM     15  C   UNL     1       1.064   3.012  20.432  0.00  0.00    +0.000 C 
ENDBRANCH  13  15
ENDBRANCH  12  13
ENDBRANCH   1  12
BRANCH   1  16
ATOM     16  C   UNL     1       3.088   6.619  19.215  0.00  0.00    +0.000 C 
BRANCH  16  17
ATOM     17  C   UNL     1       2.240   7.871  19.162  0.00  0.00    +0.000 A 
ATOM     18  C   UNL     1       1.952   8.471  17.922  0.00  0.00    +0.000 A 
ATOM     19  C   UNL     1       1.022   9.510  17.818  0.00  0.00    +0.000 A 
ATOM     20  C   UNL     1       0.363   9.975  18.953  0.00  0.00    +0.000 A 
ATOM     21  C   UNL     1       0.656   9.413  20.193  0.00  0.00    +0.000 A 
ATOM     22 BR   UNL     1      -0.280  10.038  21.719  0.00  0.00    +0.000 Br
ATOM     23  C   UNL     1       1.595   8.374  20.300  0.00  0.00    +0.000 A 
BRANCH  23  24
ATOM     24  O   UNL     1       1.860   7.794  21.515  0.00  0.00    +0.000 OA
ATOM     25  H   UNL     1       2.313   6.948  21.330  0.00  0.00    +0.000 HD
ENDBRANCH  23  24
ENDBRANCH  16  17
ENDBRANCH   1  16
TORSDOF 9
ENDMDL
MODEL 8
REMARK VINA RESULT:      -6.6      2.952      5.006
REMARK  Name = 
REMARK  10 active torsions:
REMARK  status: ('A' for Active; 'I' for Inactive)
REMARK    1  A    between atoms: C_1  and  C_2
REMARK    2  A    between atoms: C_2  and  C_3
REMARK    3  A    between atoms: C_3  and  C_4
REMARK    4  A    between atoms: C_4  and  N_5
REMARK    5  A    between atoms: N_5  and  C_6
REMARK    6  A    between atoms: N_5  and  C_15
REMARK    7  A    between atoms: C_6  and  C_7
REMARK    8  A    between atoms: C_13  and  O_14
REMARK    9  A    between atoms: C_15  and  N_17
REMARK   10  A    between atoms: N_17  and  C_18
REMARK                            x       y       z     vdW  Elec       q    Type
REMARK                         _______ _______ _______ _____ _____    ______ ____
ROOT
ATOM      1  N   UNL     1       5.288   4.705  16.257  0.00  0.00    +0.000 N 
ENDROOT
BRANCH   1   2
ATOM      2  C   UNL     1       6.059   5.424  17.213  0.00  0.00    +0.000 C 
ATOM      3  S   UNL     1       7.494   4.863  17.900  0.00  0.00    +0.000 S 
BRANCH   2   4
ATOM      4  N   UNL     1       5.537   6.690  17.467  0.00  0.00    +0.000 N 
ATOM      5  H   UNL     1       6.252   7.408  17.541  0.00  0.00    +0.000 HD
BRANCH   4   6
ATOM      6  C   UNL     1       4.250   7.030  17.944  0.00  0.00    +0.000 A 
ATOM      7  C   UNL     1       3.827   6.494  19.164  0.00  0.00    +0.000 A 
ATOM      8  C   UNL     1       2.577   6.837  19.691  0.00  0.00    +0.000 A 
ATOM      9  C   UNL     1       1.767   7.753  19.023  0.00  0.00    +0.000 A 
ATOM     10  C   UNL     1       2.197   8.319  17.825  0.00  0.00    +0.000 A 
ATOM     11  C   UNL     1       3.435   7.953  17.283  0.00  0.00    +0.000 A 
ENDBRANCH   4   6
ENDBRANCH   2   4
ENDBRANCH   1   2
BRANCH   1  12
ATOM     12  C   UNL     1       5.514   4.870  14.804  0.00  0.00    +0.000 C 
BRANCH  12  13
ATOM     13  C   UNL     1       6.265   3.687  14.186  0.00  0.00    +0.000 C 
BRANCH  13  15
ATOM     14  C   UNL     1       5.512   2.932  11.895  0.00  0.00    +0.000 C 
ATOM     15  C   UNL     1       6.428   3.863  12.673  0.00  0.00    +0.000 C 
ENDBRANCH  13  15
ENDBRANCH  12  13
ENDBRANCH   1  12
BRANCH   1  16
ATOM     16  C   UNL     1       4.647   3.443  16.674  0.00  0.00    +0.000 C 
BRANCH  16  17
ATOM     17  C   UNL     1       3.492   3.529  17.647  0.00  0.00    +0.000 A 
ATOM     18  C   UNL     1       2.212   3.888  17.186  0.00  0.00    +0.000 A 
ATOM     19  C   UNL     1       1.089   3.793  18.015  0.00  0.00    +0.000 A 
ATOM     20  C   UNL     1       1.224   3.340  19.326  0.00  0.00    +0.000 A 
ATOM     21  C   UNL     1       2.487   3.007  19.807  0.00  0.00    +0.000 A 
ATOM     22 BR   UNL     1       2.640   2.359  21.583  0.00  0.00    +0.000 Br
ATOM     23  C   UNL     1       3.617   3.109  18.978  0.00  0.00    +0.000 A 
BRANCH  23  24
ATOM     24  O   UNL     1       4.857   2.747  19.439  0.00  0.00    +0.000 OA
ATOM     25  H   UNL     1       5.363   2.429  18.666  0.00  0.00    +0.000 HD
ENDBRANCH  23  24
ENDBRANCH  16  17
ENDBRANCH   1  16
TORSDOF 9
ENDMDL
MODEL 9
REMARK VINA RESULT:      -6.5      2.934      5.187
REMARK  Name = 
REMARK  10 active torsions:
REMARK  status: ('A' for Active; 'I' for Inactive)
REMARK    1  A    between atoms: C_1  and  C_2
REMARK    2  A    between atoms: C_2  and  C_3
REMARK    3  A    between atoms: C_3  and  C_4
REMARK    4  A    between atoms: C_4  and  N_5
REMARK    5  A    between atoms: N_5  and  C_6
REMARK    6  A    between atoms: N_5  and  C_15
REMARK    7  A    between atoms: C_6  and  C_7
REMARK    8  A    between atoms: C_13  and  O_14
REMARK    9  A    between atoms: C_15  and  N_17
REMARK   10  A    between atoms: N_17  and  C_18
REMARK                            x       y       z     vdW  Elec       q    Type
REMARK                         _______ _______ _______ _____ _____    ______ ____
ROOT
ATOM      1  N   UNL     1       5.240   5.138  16.104  0.00  0.00    +0.000 N 
ENDROOT
BRANCH   1   2
ATOM      2  C   UNL     1       5.269   6.226  17.020  0.00  0.00    +0.000 C 
ATOM      3  S   UNL     1       6.541   6.549  18.080  0.00  0.00    +0.000 S 
BRANCH   2   4
ATOM      4  N   UNL     1       4.155   7.052  16.893  0.00  0.00    +0.000 N 
ATOM      5  H   UNL     1       4.138   7.566  16.017  0.00  0.00    +0.000 HD
BRANCH   4   6
ATOM      6  C   UNL     1       3.274   7.500  17.904  0.00  0.00    +0.000 A 
ATOM      7  C   UNL     1       2.496   8.635  17.657  0.00  0.00    +0.000 A 
ATOM      8  C   UNL     1       1.583   9.088  18.617  0.00  0.00    +0.000 A 
ATOM      9  C   UNL     1       1.411   8.380  19.804  0.00  0.00    +0.000 A 
ATOM     10  C   UNL     1       2.157   7.228  20.042  0.00  0.00    +0.000 A 
ATOM     11  C   UNL     1       3.092   6.792  19.096  0.00  0.00    +0.000 A 
ENDBRANCH   4   6
ENDBRANCH   2   4
ENDBRANCH   1   2
BRANCH   1  12
ATOM     12  C   UNL     1       6.033   5.160  14.854  0.00  0.00    +0.000 C 
BRANCH  12  13
ATOM     13  C   UNL     1       6.241   3.763  14.263  0.00  0.00    +0.000 C 
BRANCH  13  15
ATOM     14  C   UNL     1       6.555   3.154  11.830  0.00  0.00    +0.000 C 
ATOM     15  C   UNL     1       5.576   3.639  12.888  0.00  0.00    +0.000 C 
ENDBRANCH  13  15
ENDBRANCH  12  13
ENDBRANCH   1  12
BRANCH   1  16
ATOM     16  C   UNL     1       4.862   3.802  16.607  0.00  0.00    +0.000 C 
BRANCH  16  17
ATOM     17  C   UNL     1       3.684   3.715  17.552  0.00  0.00    +0.000 A 
ATOM     18  C   UNL     1       2.376   3.885  17.060  0.00  0.00    +0.000 A 
ATOM     19  C   UNL     1       1.260   3.624  17.862  0.00  0.00    +0.000 A 
ATOM     20  C   UNL     1       1.429   3.190  19.175  0.00  0.00    +0.000 A 
ATOM     21  C   UNL     1       2.715   3.042  19.687  0.00  0.00    +0.000 A 
ATOM     22 BR   UNL     1       2.919   2.416  21.466  0.00  0.00    +0.000 Br
ATOM     23  C   UNL     1       3.837   3.312  18.886  0.00  0.00    +0.000 A 
BRANCH  23  24
ATOM     24  O   UNL     1       5.105   3.133  19.376  0.00  0.00    +0.000 OA
ATOM     25  H   UNL     1       5.693   3.712  18.854  0.00  0.00    +0.000 HD
ENDBRANCH  23  24
ENDBRANCH  16  17
ENDBRANCH   1  16
TORSDOF 9
ENDMDL
