MODEL 1
REMARK VINA RESULT:      -7.3      0.000      0.000
REMARK  Name = 
REMARK  7 active torsions:
REMARK  status: ('A' for Active; 'I' for Inactive)
REMARK    1  A    between atoms: C_2  and  O_3
REMARK    2  A    between atoms: C_2  and  C_4
REMARK    3  A    between atoms: C_4  and  S_5
REMARK    4  A    between atoms: S_5  and  C_6
REMARK    5  A    between atoms: C_9  and  C_10
REMARK    6  A    between atoms: N_15  and  C_16
REMARK    7  A    between atoms: C_21  and  C_22
REMARK                            x       y       z     vdW  Elec       q    Type
REMARK                         _______ _______ _______ _____ _____    ______ ____
ROOT
ATOM      1  C   UNL     1       3.366   6.423  18.505  0.00  0.00    +0.000 A 
ATOM      2  N   UNL     1       2.460   6.125  19.407  0.00  0.00    +0.000 NA
ATOM      3  N   UNL     1       2.555   4.785  19.670  0.00  0.00    +0.000 NA
ATOM      4  C   UNL     1       3.578   4.299  18.993  0.00  0.00    +0.000 A 
ATOM      5  N   UNL     1       4.141   5.308  18.211  0.00  0.00    +0.000 N 
ENDROOT
BRANCH   4   6
ATOM      6  C   UNL     1       4.003   2.876  19.097  0.00  0.00    +0.000 A 
ATOM      7  C   UNL     1       4.773   2.289  20.118  0.00  0.00    +0.000 A 
ATOM      8  N   UNL     1       4.911   0.969  19.952  0.00  0.00    +0.000 NA
ATOM      9  N   UNL     1       4.282   0.727  18.789  0.00  0.00    +0.000 N 
ATOM     10  C   UNL     1       3.712   1.840  18.240  0.00  0.00    +0.000 A 
ATOM     11  H   UNL     1       4.277  -0.224  18.434  0.00  0.00    +0.000 HD
ENDBRANCH   4   6
BRANCH   5  12
ATOM     12  C   UNL     1       5.104   5.130  17.175  0.00  0.00    +0.000 A 
ATOM     13  C   UNL     1       4.611   4.676  15.930  0.00  0.00    +0.000 A 
ATOM     14  C   UNL     1       5.472   4.365  14.879  0.00  0.00    +0.000 A 
ATOM     15  C   UNL     1       6.835   4.553  15.034  0.00  0.00    +0.000 A 
ATOM     16  C   UNL     1       7.334   5.043  16.242  0.00  0.00    +0.000 A 
ATOM     17  C   UNL     1       6.490   5.319  17.345  0.00  0.00    +0.000 A 
BRANCH  17  18
ATOM     18  C   UNL     1       7.194   5.720  18.622  0.00  0.00    +0.000 C 
ATOM     19  F   UNL     1       6.438   5.609  19.745  0.00  0.00    +0.000 F 
ATOM     20  F   UNL     1       8.299   4.959  18.860  0.00  0.00    +0.000 F 
ATOM     21  F   UNL     1       7.636   7.008  18.583  0.00  0.00    +0.000 F 
ENDBRANCH  17  18
ENDBRANCH   5  12
BRANCH   1  22
ATOM     22  S   UNL     1       3.381   7.918  17.618  0.00  0.00    +0.000 S 
BRANCH  22  23
ATOM     23  C   UNL     1       1.667   8.493  17.907  0.00  0.00    +0.000 C 
BRANCH  23  25
ATOM     24  O   UNL     1       1.038  10.388  19.261  0.00  0.00    +0.000 OA
ATOM     25  C   UNL     1       1.593   9.969  18.256  0.00  0.00    +0.000 C 
BRANCH  25  26
ATOM     26  O   UNL     1       2.215  10.811  17.390  0.00  0.00    +0.000 OA
ATOM     27  H   UNL     1       2.414  10.377  16.534  0.00  0.00    +0.000 HD
ENDBRANCH  25  26
ENDBRANCH  23  25
ENDBRANCH  22  23
ENDBRANCH   1  22
TORSDOF 7
ENDMDL
MODEL 2
REMARK VINA RESULT:      -7.1      3.576      5.502
REMARK  Name = 
REMARK  7 active torsions:
REMARK  status: ('A' for Active; 'I' for Inactive)
REMARK    1  A    between atoms: C_2  and  O_3
REMARK    2  A    between atoms: C_2  and  C_4
REMARK    3  A    between atoms: C_4  and  S_5
REMARK    4  A    between atoms: S_5  and  C_6
REMARK    5  A    between atoms: C_9  and  C_10
REMARK    6  A    between atoms: N_15  and  C_16
REMARK    7  A    between atoms: C_21  and  C_22
REMARK                            x       y       z     vdW  Elec       q    Type
REMARK                         _______ _______ _______ _____ _____    ______ ____
ROOT
ATOM      1  C   UNL     1       3.136   3.446  17.361  0.00  0.00    +0.000 A 
ATOM      2  N   UNL     1       1.825   3.462  17.427  0.00  0.00    +0.000 NA
ATOM      3  N   UNL     1       1.441   4.718  17.818  0.00  0.00    +0.000 NA
ATOM      4  C   UNL     1       2.518   5.476  17.897  0.00  0.00    +0.000 A 
ATOM      5  N   UNL     1       3.650   4.710  17.622  0.00  0.00    +0.000 N 
ENDROOT
BRANCH   4   6
ATOM      6  C   UNL     1       2.453   6.924  18.240  0.00  0.00    +0.000 A 
ATOM      7  C   UNL     1       2.715   8.014  17.390  0.00  0.00    +0.000 A 
ATOM      8  N   UNL     1       2.488   9.188  17.989  0.00  0.00    +0.000 NA
ATOM      9  N   UNL     1       2.143   8.846  19.241  0.00  0.00    +0.000 N 
ATOM     10  C   UNL     1       2.098   7.495  19.440  0.00  0.00    +0.000 A 
ATOM     11  H   UNL     1       1.945   9.587  19.906  0.00  0.00    +0.000 HD
ENDBRANCH   4   6
BRANCH   5  12
ATOM     12  C   UNL     1       5.004   5.104  17.833  0.00  0.00    +0.000 A 
ATOM     13  C   UNL     1       5.436   5.176  19.177  0.00  0.00    +0.000 A 
ATOM     14  C   UNL     1       6.703   5.651  19.508  0.00  0.00    +0.000 A 
ATOM     15  C   UNL     1       7.581   6.013  18.500  0.00  0.00    +0.000 A 
ATOM     16  C   UNL     1       7.186   5.906  17.165  0.00  0.00    +0.000 A 
ATOM     17  C   UNL     1       5.888   5.476  16.800  0.00  0.00    +0.000 A 
BRANCH  17  18
ATOM     18  C   UNL     1       5.571   5.536  15.323  0.00  0.00    +0.000 C 
ATOM     19  F   UNL     1       4.816   4.506  14.862  0.00  0.00    +0.000 F 
ATOM     20  F   UNL     1       4.878   6.662  14.991  0.00  0.00    +0.000 F 
ATOM     21  F   UNL     1       6.697   5.560  14.556  0.00  0.00    +0.000 F 
ENDBRANCH  17  18
ENDBRANCH   5  12
BRANCH   1  22
ATOM     22  S   UNL     1       4.071   1.985  17.250  0.00  0.00    +0.000 S 
BRANCH  22  23
ATOM     23  C   UNL     1       3.586   1.159  18.810  0.00  0.00    +0.000 C 
BRANCH  23  25
ATOM     24  O   UNL     1       3.230   2.657  20.667  0.00  0.00    +0.000 OA
ATOM     25  C   UNL     1       4.000   1.942  20.043  0.00  0.00    +0.000 C 
BRANCH  25  26
ATOM     26  O   UNL     1       5.290   1.779  20.439  0.00  0.00    +0.000 OA
ATOM     27  H   UNL     1       5.911   2.308  19.897  0.00  0.00    +0.000 HD
ENDBRANCH  25  26
ENDBRANCH  23  25
ENDBRANCH  22  23
ENDBRANCH   1  22
TORSDOF 7
ENDMDL
MODEL 3
REMARK VINA RESULT:      -7.0      0.128      1.053
REMARK  Name = 
REMARK  7 active torsions:
REMARK  status: ('A' for Active; 'I' for Inactive)
REMARK    1  A    between atoms: C_2  and  O_3
REMARK    2  A    between atoms: C_2  and  C_4
REMARK    3  A    between atoms: C_4  and  S_5
REMARK    4  A    between atoms: S_5  and  C_6
REMARK    5  A    between atoms: C_9  and  C_10
REMARK    6  A    between atoms: N_15  and  C_16
REMARK    7  A    between atoms: C_21  and  C_22
REMARK                            x       y       z     vdW  Elec       q    Type
REMARK                         _______ _______ _______ _____ _____    ______ ____
ROOT
ATOM      1  C   UNL     1       3.395   6.538  18.509  0.00  0.00    +0.000 A 
ATOM      2  N   UNL     1       2.493   6.290  19.430  0.00  0.00    +0.000 NA
ATOM      3  N   UNL     1       2.556   4.955  19.728  0.00  0.00    +0.000 NA
ATOM      4  C   UNL     1       3.555   4.424  19.051  0.00  0.00    +0.000 A 
ATOM      5  N   UNL     1       4.135   5.395  18.234  0.00  0.00    +0.000 N 
ENDROOT
BRANCH   4   6
ATOM      6  C   UNL     1       3.943   2.993  19.188  0.00  0.00    +0.000 A 
ATOM      7  C   UNL     1       3.519   1.914  18.390  0.00  0.00    +0.000 A 
ATOM      8  N   UNL     1       4.117   0.767  18.730  0.00  0.00    +0.000 NA
ATOM      9  N   UNL     1       4.874   1.104  19.788  0.00  0.00    +0.000 N 
ATOM     10  C   UNL     1       4.810   2.433  20.097  0.00  0.00    +0.000 A 
ATOM     11  H   UNL     1       5.413   0.376  20.246  0.00  0.00    +0.000 HD
ENDBRANCH   4   6
BRANCH   5  12
ATOM     12  C   UNL     1       5.078   5.163  17.191  0.00  0.00    +0.000 A 
ATOM     13  C   UNL     1       4.556   4.681  15.968  0.00  0.00    +0.000 A 
ATOM     14  C   UNL     1       5.393   4.318  14.915  0.00  0.00    +0.000 A 
ATOM     15  C   UNL     1       6.763   4.479  15.044  0.00  0.00    +0.000 A 
ATOM     16  C   UNL     1       7.291   4.995  16.229  0.00  0.00    +0.000 A 
ATOM     17  C   UNL     1       6.470   5.325  17.334  0.00  0.00    +0.000 A 
BRANCH  17  18
ATOM     18  C   UNL     1       7.202   5.749  18.587  0.00  0.00    +0.000 C 
ATOM     19  F   UNL     1       7.632   7.038  18.584  0.00  0.00    +0.000 F 
ATOM     20  F   UNL     1       6.424   5.637  19.701  0.00  0.00    +0.000 F 
ATOM     21  F   UNL     1       8.300   4.979  18.827  0.00  0.00    +0.000 F 
ENDBRANCH  17  18
ENDBRANCH   5  12
BRANCH   1  22
ATOM     22  S   UNL     1       3.438   8.008  17.581  0.00  0.00    +0.000 S 
BRANCH  22  23
ATOM     23  C   UNL     1       1.722   8.601  17.818  0.00  0.00    +0.000 C 
BRANCH  23  25
ATOM     24  O   UNL     1       1.130  10.420  19.288  0.00  0.00    +0.000 OA
ATOM     25  C   UNL     1       1.657  10.056  18.247  0.00  0.00    +0.000 C 
BRANCH  25  26
ATOM     26  O   UNL     1       2.255  10.945  17.411  0.00  0.00    +0.000 OA
ATOM     27  H   UNL     1       1.605  11.418  16.851  0.00  0.00    +0.000 HD
ENDBRANCH  25  26
ENDBRANCH  23  25
ENDBRANCH  22  23
ENDBRANCH   1  22
TORSDOF 7
ENDMDL
MODEL 4
REMARK VINA RESULT:      -6.9      3.580      5.468
REMARK  Name = 
REMARK  7 active torsions:
REMARK  status: ('A' for Active; 'I' for Inactive)
REMARK    1  A    between atoms: C_2  and  O_3
REMARK    2  A    between atoms: C_2  and  C_4
REMARK    3  A    between atoms: C_4  and  S_5
REMARK    4  A    between atoms: S_5  and  C_6
REMARK    5  A    between atoms: C_9  and  C_10
REMARK    6  A    between atoms: N_15  and  C_16
REMARK    7  A    between atoms: C_21  and  C_22
REMARK                            x       y       z     vdW  Elec       q    Type
REMARK                         _______ _______ _______ _____ _____    ______ ____
ROOT
ATOM      1  C   UNL     1       3.158   3.408  17.358  0.00  0.00    +0.000 A 
ATOM      2  N   UNL     1       1.847   3.414  17.415  0.00  0.00    +0.000 NA
ATOM      3  N   UNL     1       1.450   4.672  17.787  0.00  0.00    +0.000 NA
ATOM      4  C   UNL     1       2.519   5.440  17.863  0.00  0.00    +0.000 A 
ATOM      5  N   UNL     1       3.660   4.680  17.605  0.00  0.00    +0.000 N 
ENDROOT
BRANCH   4   6
ATOM      6  C   UNL     1       2.439   6.892  18.185  0.00  0.00    +0.000 A 
ATOM      7  C   UNL     1       2.023   7.475  19.396  0.00  0.00    +0.000 A 
ATOM      8  N   UNL     1       2.146   8.807  19.384  0.00  0.00    +0.000 NA
ATOM      9  N   UNL     1       2.578   9.076  18.141  0.00  0.00    +0.000 N 
ATOM     10  C   UNL     1       2.779   7.957  17.383  0.00  0.00    +0.000 A 
ATOM     11  H   UNL     1       2.722  10.047  17.880  0.00  0.00    +0.000 HD
ENDBRANCH   4   6
BRANCH   5  12
ATOM     12  C   UNL     1       5.009   5.089  17.819  0.00  0.00    +0.000 A 
ATOM     13  C   UNL     1       5.441   5.151  19.165  0.00  0.00    +0.000 A 
ATOM     14  C   UNL     1       6.702   5.638  19.499  0.00  0.00    +0.000 A 
ATOM     15  C   UNL     1       7.575   6.023  18.495  0.00  0.00    +0.000 A 
ATOM     16  C   UNL     1       7.180   5.926  17.159  0.00  0.00    +0.000 A 
ATOM     17  C   UNL     1       5.887   5.483  16.790  0.00  0.00    +0.000 A 
BRANCH  17  18
ATOM     18  C   UNL     1       5.568   5.557  15.314  0.00  0.00    +0.000 C 
ATOM     19  F   UNL     1       4.872   6.661  14.939  0.00  0.00    +0.000 F 
ATOM     20  F   UNL     1       6.693   5.566  14.545  0.00  0.00    +0.000 F 
ATOM     21  F   UNL     1       4.843   4.484  14.891  0.00  0.00    +0.000 F 
ENDBRANCH  17  18
ENDBRANCH   5  12
BRANCH   1  22
ATOM     22  S   UNL     1       4.107   1.954  17.274  0.00  0.00    +0.000 S 
BRANCH  22  23
ATOM     23  C   UNL     1       3.609   1.141  18.836  0.00  0.00    +0.000 C 
BRANCH  23  25
ATOM     24  O   UNL     1       3.281   2.700  20.648  0.00  0.00    +0.000 OA
ATOM     25  C   UNL     1       4.028   1.926  20.067  0.00  0.00    +0.000 C 
BRANCH  25  26
ATOM     26  O   UNL     1       5.291   1.695  20.512  0.00  0.00    +0.000 OA
ATOM     27  H   UNL     1       5.961   2.179  19.985  0.00  0.00    +0.000 HD
ENDBRANCH  25  26
ENDBRANCH  23  25
ENDBRANCH  22  23
ENDBRANCH   1  22
TORSDOF 7
ENDMDL
MODEL 5
REMARK VINA RESULT:      -6.8      0.402      1.263
REMARK  Name = 
REMARK  7 active torsions:
REMARK  status: ('A' for Active; 'I' for Inactive)
REMARK    1  A    between atoms: C_2  and  O_3
REMARK    2  A    between atoms: C_2  and  C_4
REMARK    3  A    between atoms: C_4  and  S_5
REMARK    4  A    between atoms: S_5  and  C_6
REMARK    5  A    between atoms: C_9  and  C_10
REMARK    6  A    between atoms: N_15  and  C_16
REMARK    7  A    between atoms: C_21  and  C_22
REMARK                            x       y       z     vdW  Elec       q    Type
REMARK                         _______ _______ _______ _____ _____    ______ ____
ROOT
ATOM      1  C   UNL     1       3.366   6.579  18.459  0.00  0.00    +0.000 A 
ATOM      2  N   UNL     1       2.446   6.327  19.360  0.00  0.00    +0.000 NA
ATOM      3  N   UNL     1       2.503   4.990  19.654  0.00  0.00    +0.000 NA
ATOM      4  C   UNL     1       3.517   4.462  18.997  0.00  0.00    +0.000 A 
ATOM      5  N   UNL     1       4.114   5.437  18.197  0.00  0.00    +0.000 N 
ENDROOT
BRANCH   4   6
ATOM      6  C   UNL     1       3.904   3.031  19.137  0.00  0.00    +0.000 A 
ATOM      7  C   UNL     1       3.476   1.951  18.343  0.00  0.00    +0.000 A 
ATOM      8  N   UNL     1       4.074   0.805  18.685  0.00  0.00    +0.000 NA
ATOM      9  N   UNL     1       4.834   1.143  19.740  0.00  0.00    +0.000 N 
ATOM     10  C   UNL     1       4.773   2.474  20.046  0.00  0.00    +0.000 A 
ATOM     11  H   UNL     1       5.374   0.416  20.199  0.00  0.00    +0.000 HD
ENDBRANCH   4   6
BRANCH   5  12
ATOM     12  C   UNL     1       5.079   5.210  17.173  0.00  0.00    +0.000 A 
ATOM     13  C   UNL     1       4.583   4.750  15.931  0.00  0.00    +0.000 A 
ATOM     14  C   UNL     1       5.442   4.393  14.894  0.00  0.00    +0.000 A 
ATOM     15  C   UNL     1       6.809   4.539  15.058  0.00  0.00    +0.000 A 
ATOM     16  C   UNL     1       7.314   5.034  16.263  0.00  0.00    +0.000 A 
ATOM     17  C   UNL     1       6.469   5.357  17.353  0.00  0.00    +0.000 A 
BRANCH  17  18
ATOM     18  C   UNL     1       7.175   5.757  18.629  0.00  0.00    +0.000 C 
ATOM     19  F   UNL     1       8.286   5.030  18.915  0.00  0.00    +0.000 F 
ATOM     20  F   UNL     1       7.595   7.053  18.599  0.00  0.00    +0.000 F 
ATOM     21  F   UNL     1       6.362   5.660  19.718  0.00  0.00    +0.000 F 
ENDBRANCH  17  18
ENDBRANCH   5  12
BRANCH   1  22
ATOM     22  S   UNL     1       3.428   8.052  17.538  0.00  0.00    +0.000 S 
BRANCH  22  23
ATOM     23  C   UNL     1       1.688   8.603  17.674  0.00  0.00    +0.000 C 
BRANCH  23  25
ATOM     24  O   UNL     1       1.557  10.842  18.562  0.00  0.00    +0.000 OA
ATOM     25  C   UNL     1       1.482   9.639  18.765  0.00  0.00    +0.000 C 
BRANCH  25  26
ATOM     26  O   UNL     1       1.176   9.148  19.994  0.00  0.00    +0.000 OA
ATOM     27  H   UNL     1       1.041   9.862  20.652  0.00  0.00    +0.000 HD
ENDBRANCH  25  26
ENDBRANCH  23  25
ENDBRANCH  22  23
ENDBRANCH   1  22
TORSDOF 7
ENDMDL
MODEL 6
REMARK VINA RESULT:      -6.8      1.790      2.444
REMARK  Name = 
REMARK  7 active torsions:
REMARK  status: ('A' for Active; 'I' for Inactive)
REMARK    1  A    between atoms: C_2  and  O_3
REMARK    2  A    between atoms: C_2  and  C_4
REMARK    3  A    between atoms: C_4  and  S_5
REMARK    4  A    between atoms: S_5  and  C_6
REMARK    5  A    between atoms: C_9  and  C_10
REMARK    6  A    between atoms: N_15  and  C_16
REMARK    7  A    between atoms: C_21  and  C_22
REMARK                            x       y       z     vdW  Elec       q    Type
REMARK                         _______ _______ _______ _____ _____    ______ ____
ROOT
ATOM      1  C   UNL     1       2.909   6.322  18.128  0.00  0.00    +0.000 A 
ATOM      2  N   UNL     1       1.709   5.792  18.106  0.00  0.00    +0.000 NA
ATOM      3  N   UNL     1       1.848   4.434  18.225  0.00  0.00    +0.000 NA
ATOM      4  C   UNL     1       3.126   4.162  18.410  0.00  0.00    +0.000 A 
ATOM      5  N   UNL     1       3.868   5.341  18.349  0.00  0.00    +0.000 N 
ENDROOT
BRANCH   4   6
ATOM      6  C   UNL     1       3.623   2.777  18.638  0.00  0.00    +0.000 A 
ATOM      7  C   UNL     1       4.298   2.290  19.772  0.00  0.00    +0.000 A 
ATOM      8  N   UNL     1       4.537   0.976  19.693  0.00  0.00    +0.000 NA
ATOM      9  N   UNL     1       4.071   0.640  18.479  0.00  0.00    +0.000 N 
ATOM     10  C   UNL     1       3.503   1.686  17.808  0.00  0.00    +0.000 A 
ATOM     11  H   UNL     1       4.167  -0.324  18.175  0.00  0.00    +0.000 HD
ENDBRANCH   4   6
BRANCH   5  12
ATOM     12  C   UNL     1       5.288   5.437  18.268  0.00  0.00    +0.000 A 
ATOM     13  C   UNL     1       5.981   5.563  19.494  0.00  0.00    +0.000 A 
ATOM     14  C   UNL     1       7.358   5.772  19.531  0.00  0.00    +0.000 A 
ATOM     15  C   UNL     1       8.076   5.805  18.347  0.00  0.00    +0.000 A 
ATOM     16  C   UNL     1       7.413   5.638  17.130  0.00  0.00    +0.000 A 
ATOM     17  C   UNL     1       6.009   5.476  17.057  0.00  0.00    +0.000 A 
BRANCH  17  18
ATOM     18  C   UNL     1       5.427   5.437  15.663  0.00  0.00    +0.000 C 
ATOM     19  F   UNL     1       4.820   6.587  15.269  0.00  0.00    +0.000 F 
ATOM     20  F   UNL     1       6.376   5.192  14.716  0.00  0.00    +0.000 F 
ATOM     21  F   UNL     1       4.502   4.447  15.519  0.00  0.00    +0.000 F 
ENDBRANCH  17  18
ENDBRANCH   5  12
BRANCH   1  22
ATOM     22  S   UNL     1       3.241   7.963  17.659  0.00  0.00    +0.000 S 
BRANCH  22  23
ATOM     23  C   UNL     1       1.574   8.700  17.825  0.00  0.00    +0.000 C 
BRANCH  23  25
ATOM     24  O   UNL     1       1.158  10.527  19.345  0.00  0.00    +0.000 OA
ATOM     25  C   UNL     1       1.615  10.149  18.276  0.00  0.00    +0.000 C 
BRANCH  25  26
ATOM     26  O   UNL     1       2.226  11.014  17.424  0.00  0.00    +0.000 OA
ATOM     27  H   UNL     1       2.746  11.695  17.901  0.00  0.00    +0.000 HD
ENDBRANCH  25  26
ENDBRANCH  23  25
ENDBRANCH  22  23
ENDBRANCH   1  22
TORSDOF 7
ENDMDL
MODEL 7
REMARK VINA RESULT:      -6.7      4.388      6.235
REMARK  Name = 
REMARK  7 active torsions:
REMARK  status: ('A' for Active; 'I' for Inactive)
REMARK    1  A    between atoms: C_2  and  O_3
REMARK    2  A    between atoms: C_2  and  C_4
REMARK    3  A    between atoms: C_4  and  S_5
REMARK    4  A    between atoms: S_5  and  C_6
REMARK    5  A    between atoms: C_9  and  C_10
REMARK    6  A    between atoms: N_15  and  C_16
REMARK    7  A    between atoms: C_21  and  C_22
REMARK                            x       y       z     vdW  Elec       q    Type
REMARK                         _______ _______ _______ _____ _____    ______ ____
ROOT
ATOM      1  C   UNL     1       6.175   4.588  14.743  0.00  0.00    +0.000 A 
ATOM      2  N   UNL     1       7.371   5.049  14.465  0.00  0.00    +0.000 NA
ATOM      3  N   UNL     1       7.917   5.526  15.627  0.00  0.00    +0.000 NA
ATOM      4  C   UNL     1       7.083   5.265  16.616  0.00  0.00    +0.000 A 
ATOM      5  N   UNL     1       5.930   4.666  16.108  0.00  0.00    +0.000 N 
ENDROOT
BRANCH   4   6
ATOM      6  C   UNL     1       7.395   5.596  18.033  0.00  0.00    +0.000 A 
ATOM      7  C   UNL     1       7.069   4.843  19.176  0.00  0.00    +0.000 A 
ATOM      8  N   UNL     1       7.566   5.382  20.295  0.00  0.00    +0.000 NA
ATOM      9  N   UNL     1       8.152   6.514  19.871  0.00  0.00    +0.000 N 
ATOM     10  C   UNL     1       8.084   6.684  18.517  0.00  0.00    +0.000 A 
ATOM     11  H   UNL     1       8.586   7.120  20.561  0.00  0.00    +0.000 HD
ENDBRANCH   4   6
BRANCH   5  12
ATOM     12  C   UNL     1       4.712   4.450  16.818  0.00  0.00    +0.000 A 
ATOM     13  C   UNL     1       4.342   3.103  17.036  0.00  0.00    +0.000 A 
ATOM     14  C   UNL     1       3.122   2.772  17.622  0.00  0.00    +0.000 A 
ATOM     15  C   UNL     1       2.273   3.780  18.049  0.00  0.00    +0.000 A 
ATOM     16  C   UNL     1       2.644   5.116  17.881  0.00  0.00    +0.000 A 
ATOM     17  C   UNL     1       3.853   5.483  17.243  0.00  0.00    +0.000 A 
BRANCH  17  18
ATOM     18  C   UNL     1       4.051   6.966  17.022  0.00  0.00    +0.000 C 
ATOM     19  F   UNL     1       5.013   7.531  17.796  0.00  0.00    +0.000 F 
ATOM     20  F   UNL     1       4.412   7.251  15.739  0.00  0.00    +0.000 F 
ATOM     21  F   UNL     1       2.910   7.676  17.248  0.00  0.00    +0.000 F 
ENDBRANCH  17  18
ENDBRANCH   5  12
BRANCH   1  22
ATOM     22  S   UNL     1       4.987   4.212  13.530  0.00  0.00    +0.000 S 
BRANCH  22  23
ATOM     23  C   UNL     1       6.038   3.389  12.278  0.00  0.00    +0.000 C 
BRANCH  23  25
ATOM     24  O   UNL     1       4.208   2.525  10.965  0.00  0.00    +0.000 OA
ATOM     25  C   UNL     1       5.293   2.325  11.492  0.00  0.00    +0.000 C 
BRANCH  25  26
ATOM     26  O   UNL     1       5.922   1.126  11.378  0.00  0.00    +0.000 OA
ATOM     27  H   UNL     1       6.551   0.970  12.113  0.00  0.00    +0.000 HD
ENDBRANCH  25  26
ENDBRANCH  23  25
ENDBRANCH  22  23
ENDBRANCH   1  22
TORSDOF 7
ENDMDL
MODEL 8
REMARK VINA RESULT:      -6.7      3.979      6.538
REMARK  Name = 
REMARK  7 active torsions:
REMARK  status: ('A' for Active; 'I' for Inactive)
REMARK    1  A    between atoms: C_2  and  O_3
REMARK    2  A    between atoms: C_2  and  C_4
REMARK    3  A    between atoms: C_4  and  S_5
REMARK    4  A    between atoms: S_5  and  C_6
REMARK    5  A    between atoms: C_9  and  C_10
REMARK    6  A    between atoms: N_15  and  C_16
REMARK    7  A    between atoms: C_21  and  C_22
REMARK                            x       y       z     vdW  Elec       q    Type
REMARK                         _______ _______ _______ _____ _____    ______ ____
ROOT
ATOM      1  C   UNL     1       4.448   5.504  18.123  0.00  0.00    +0.000 A 
ATOM      2  N   UNL     1       4.758   6.615  17.497  0.00  0.00    +0.000 NA
ATOM      3  N   UNL     1       3.859   7.575  17.878  0.00  0.00    +0.000 NA
ATOM      4  C   UNL     1       3.068   7.062  18.801  0.00  0.00    +0.000 A 
ATOM      5  N   UNL     1       3.392   5.720  19.000  0.00  0.00    +0.000 N 
ENDROOT
BRANCH   4   6
ATOM      6  C   UNL     1       2.009   7.859  19.480  0.00  0.00    +0.000 A 
ATOM      7  C   UNL     1       1.481   7.652  20.768  0.00  0.00    +0.000 A 
ATOM      8  N   UNL     1       0.597   8.596  21.108  0.00  0.00    +0.000 NA
ATOM      9  N   UNL     1       0.514   9.367  20.011  0.00  0.00    +0.000 N 
ATOM     10  C   UNL     1       1.351   8.970  19.007  0.00  0.00    +0.000 A 
ATOM     11  H   UNL     1      -0.130  10.152  20.021  0.00  0.00    +0.000 HD
ENDBRANCH   4   6
BRANCH   5  12
ATOM     12  C   UNL     1       2.624   4.769  19.734  0.00  0.00    +0.000 A 
ATOM     13  C   UNL     1       2.958   4.612  21.100  0.00  0.00    +0.000 A 
ATOM     14  C   UNL     1       2.348   3.638  21.887  0.00  0.00    +0.000 A 
ATOM     15  C   UNL     1       1.358   2.839  21.341  0.00  0.00    +0.000 A 
ATOM     16  C   UNL     1       0.986   3.011  20.006  0.00  0.00    +0.000 A 
ATOM     17  C   UNL     1       1.622   3.957  19.167  0.00  0.00    +0.000 A 
BRANCH  17  18
ATOM     18  C   UNL     1       1.196   3.934  17.717  0.00  0.00    +0.000 C 
ATOM     19  F   UNL     1       0.965   5.158  17.174  0.00  0.00    +0.000 F 
ATOM     20  F   UNL     1       2.135   3.360  16.914  0.00  0.00    +0.000 F 
ATOM     21  F   UNL     1       0.058   3.210  17.526  0.00  0.00    +0.000 F 
ENDBRANCH  17  18
ENDBRANCH   5  12
BRANCH   1  22
ATOM     22  S   UNL     1       5.088   3.947  17.687  0.00  0.00    +0.000 S 
BRANCH  22  23
ATOM     23  C   UNL     1       5.682   4.295  15.991  0.00  0.00    +0.000 C 
BRANCH  23  25
ATOM     24  O   UNL     1       7.657   5.328  15.066  0.00  0.00    +0.000 OA
ATOM     25  C   UNL     1       7.161   4.638  15.944  0.00  0.00    +0.000 C 
BRANCH  25  26
ATOM     26  O   UNL     1       7.911   4.152  16.968  0.00  0.00    +0.000 OA
ATOM     27  H   UNL     1       8.837   3.981  16.696  0.00  0.00    +0.000 HD
ENDBRANCH  25  26
ENDBRANCH  23  25
ENDBRANCH  22  23
ENDBRANCH   1  22
TORSDOF 7
ENDMDL
MODEL 9
REMARK VINA RESULT:      -6.5      4.150      5.941
REMARK  Name = 
REMARK  7 active torsions:
REMARK  status: ('A' for Active; 'I' for Inactive)
REMARK    1  A    between atoms: C_2  and  O_3
REMARK    2  A    between atoms: C_2  and  C_4
REMARK    3  A    between atoms: C_4  and  S_5
REMARK    4  A    between atoms: S_5  and  C_6
REMARK    5  A    between atoms: C_9  and  C_10
REMARK    6  A    between atoms: N_15  and  C_16
REMARK    7  A    between atoms: C_21  and  C_22
REMARK                            x       y       z     vdW  Elec       q    Type
REMARK                         _______ _______ _______ _____ _____    ______ ____
ROOT
ATOM      1  C   UNL     1       3.106   3.073  18.550  0.00  0.00    +0.000 A 
ATOM      2  N   UNL     1       1.814   3.176  18.756  0.00  0.00    +0.000 NA
ATOM      3  N   UNL     1       1.496   4.508  18.765  0.00  0.00    +0.000 NA
ATOM      4  C   UNL     1       2.583   5.197  18.474  0.00  0.00    +0.000 A 
ATOM      5  N   UNL     1       3.664   4.327  18.332  0.00  0.00    +0.000 N 
ENDROOT
BRANCH   4   6
ATOM      6  C   UNL     1       2.578   6.680  18.340  0.00  0.00    +0.000 A 
ATOM      7  C   UNL     1       3.042   7.439  17.250  0.00  0.00    +0.000 A 
ATOM      8  N   UNL     1       2.819   8.748  17.414  0.00  0.00    +0.000 NA
ATOM      9  N   UNL     1       2.271   8.827  18.638  0.00  0.00    +0.000 N 
ATOM     10  C   UNL     1       2.097   7.610  19.233  0.00  0.00    +0.000 A 
ATOM     11  H   UNL     1       2.035   9.745  19.001  0.00  0.00    +0.000 HD
ENDBRANCH   4   6
BRANCH   5  12
ATOM     12  C   UNL     1       5.038   4.698  18.251  0.00  0.00    +0.000 A 
ATOM     13  C   UNL     1       5.642   5.137  19.452  0.00  0.00    +0.000 A 
ATOM     14  C   UNL     1       6.947   5.625  19.470  0.00  0.00    +0.000 A 
ATOM     15  C   UNL     1       7.690   5.634  18.301  0.00  0.00    +0.000 A 
ATOM     16  C   UNL     1       7.123   5.163  17.116  0.00  0.00    +0.000 A 
ATOM     17  C   UNL     1       5.783   4.709  17.055  0.00  0.00    +0.000 A 
BRANCH  17  18
ATOM     18  C   UNL     1       5.276   4.352  15.676  0.00  0.00    +0.000 C 
ATOM     19  F   UNL     1       5.245   5.388  14.798  0.00  0.00    +0.000 F 
ATOM     20  F   UNL     1       6.045   3.400  15.076  0.00  0.00    +0.000 F 
ATOM     21  F   UNL     1       4.015   3.838  15.708  0.00  0.00    +0.000 F 
ENDBRANCH  17  18
ENDBRANCH   5  12
BRANCH   1  22
ATOM     22  S   UNL     1       4.003   1.606  18.808  0.00  0.00    +0.000 S 
BRANCH  22  23
ATOM     23  C   UNL     1       4.500   1.823  20.557  0.00  0.00    +0.000 C 
BRANCH  23  25
ATOM     24  O   UNL     1       6.021   0.794  22.121  0.00  0.00    +0.000 OA
ATOM     25  C   UNL     1       5.482   0.764  21.024  0.00  0.00    +0.000 C 
BRANCH  25  26
ATOM     26  O   UNL     1       5.712  -0.253  20.153  0.00  0.00    +0.000 OA
ATOM     27  H   UNL     1       5.548  -1.130  20.560  0.00  0.00    +0.000 HD
ENDBRANCH  25  26
ENDBRANCH  23  25
ENDBRANCH  22  23
ENDBRANCH   1  22
TORSDOF 7
ENDMDL
