MODEL 1
REMARK VINA RESULT:      -7.0      0.000      0.000
REMARK  Name = 
REMARK  6 active torsions:
REMARK  status: ('A' for Active; 'I' for Inactive)
REMARK    1  A    between atoms: C_1  and  O_2
REMARK    2  A    between atoms: O_2  and  C_3
REMARK    3  A    between atoms: C_8  and  O_9
REMARK    4  A    between atoms: O_9  and  C_10
REMARK    5  A    between atoms: C_14  and  C_15
REMARK    6  A    between atoms: C_15  and  O_17
REMARK                            x       y       z     vdW  Elec       q    Type
REMARK                         _______ _______ _______ _____ _____    ______ ____
ROOT
ATOM      1  C   UNL     1      -4.773  15.957  24.378  0.00  0.00    +0.000 A 
ATOM      2  C   UNL     1      -6.064  15.845  23.895  0.00  0.00    +0.000 A 
ATOM      3  C   UNL     1      -6.353  14.928  22.800  0.00  0.00    +0.000 A 
ATOM      4  C   UNL     1      -5.438  13.919  22.428  0.00  0.00    +0.000 A 
ATOM      5  C   UNL     1      -4.563  13.850  23.501  0.00  0.00    +0.000 A 
ATOM      6  C   UNL     1      -3.932  15.068  23.816  0.00  0.00    +0.000 A 
ATOM      7  C   UNL     1      -3.738  12.745  23.207  0.00  0.00    +0.000 C 
ATOM      8  O   UNL     1      -3.481  11.802  23.920  0.00  0.00    +0.000 OA
ATOM      9  N   UNL     1      -3.320  13.058  21.982  0.00  0.00    +0.000 N 
ATOM     10  C   UNL     1      -1.938  12.998  21.611  0.00  0.00    +0.000 C 
ATOM     11  C   UNL     1      -1.814  11.907  20.604  0.00  0.00    +0.000 C 
ATOM     12  C   UNL     1      -3.023  11.926  19.727  0.00  0.00    +0.000 A 
ATOM     13  C   UNL     1      -4.221  12.662  19.935  0.00  0.00    +0.000 A 
ATOM     14  N   UNL     1      -4.860  12.546  18.691  0.00  0.00    +0.000 N 
ATOM     15  C   UNL     1      -4.115  11.718  17.806  0.00  0.00    +0.000 A 
ATOM     16  C   UNL     1      -4.258  11.335  16.451  0.00  0.00    +0.000 A 
ATOM     17  C   UNL     1      -3.253  10.510  15.872  0.00  0.00    +0.000 A 
ATOM     18  C   UNL     1      -2.143  10.079  16.585  0.00  0.00    +0.000 A 
ATOM     19  C   UNL     1      -2.008  10.465  17.903  0.00  0.00    +0.000 A 
ATOM     20  C   UNL     1      -2.998  11.280  18.493  0.00  0.00    +0.000 A 
ATOM     21  C   UNL     1      -4.393  13.688  21.152  0.00  0.00    +0.000 C 
ATOM     22  H   UNL     1      -5.692  13.042  18.396  0.00  0.00    +0.000 HD
ENDROOT
BRANCH   1  24
ATOM     23  C   UNL     1      -5.263  18.047  25.230  0.00  0.00    +0.000 C 
ATOM     24  O   UNL     1      -4.317  16.968  25.162  0.00  0.00    +0.000 OA
ENDBRANCH   1  24
BRANCH   6  25
ATOM     25  O   UNL     1      -2.819  15.488  23.084  0.00  0.00    +0.000 OA
ATOM     26  C   UNL     1      -2.962  16.713  22.325  0.00  0.00    +0.000 C 
ENDBRANCH   6  25
BRANCH  10  27
ATOM     27  C   UNL     1      -0.967  12.755  22.746  0.00  0.00    +0.000 C 
ATOM     28  O   UNL     1      -0.434  11.650  22.939  0.00  0.00    +0.000 OA
BRANCH  27  29
ATOM     29  O   UNL     1      -0.831  13.747  23.679  0.00  0.00    +0.000 OA
ATOM     30  H   UNL     1      -1.053  13.471  24.601  0.00  0.00    +0.000 HD
ENDBRANCH  27  29
ENDBRANCH  10  27
TORSDOF 4
ENDMDL
MODEL 2
REMARK VINA RESULT:      -6.9      1.568      2.052
REMARK  Name = 
REMARK  6 active torsions:
REMARK  status: ('A' for Active; 'I' for Inactive)
REMARK    1  A    between atoms: C_1  and  O_2
REMARK    2  A    between atoms: O_2  and  C_3
REMARK    3  A    between atoms: C_8  and  O_9
REMARK    4  A    between atoms: O_9  and  C_10
REMARK    5  A    between atoms: C_14  and  C_15
REMARK    6  A    between atoms: C_15  and  O_17
REMARK                            x       y       z     vdW  Elec       q    Type
REMARK                         _______ _______ _______ _____ _____    ______ ____
ROOT
ATOM      1  C   UNL     1      -2.416  15.343  24.501  0.00  0.00    +0.000 A 
ATOM      2  C   UNL     1      -3.788  15.173  24.504  0.00  0.00    +0.000 A 
ATOM      3  C   UNL     1      -4.416  14.313  23.508  0.00  0.00    +0.000 A 
ATOM      4  C   UNL     1      -3.658  13.397  22.748  0.00  0.00    +0.000 A 
ATOM      5  C   UNL     1      -2.451  13.319  23.426  0.00  0.00    +0.000 A 
ATOM      6  C   UNL     1      -1.799  14.554  23.599  0.00  0.00    +0.000 A 
ATOM      7  C   UNL     1      -1.744  12.296  22.761  0.00  0.00    +0.000 C 
ATOM      8  O   UNL     1      -1.207  11.329  23.249  0.00  0.00    +0.000 OA
ATOM      9  N   UNL     1      -1.811  12.718  21.500  0.00  0.00    +0.000 N 
ATOM     10  C   UNL     1      -0.656  12.780  20.655  0.00  0.00    +0.000 C 
ATOM     11  C   UNL     1      -0.861  11.770  19.579  0.00  0.00    +0.000 C 
ATOM     12  C   UNL     1      -2.305  11.763  19.198  0.00  0.00    +0.000 A 
ATOM     13  C   UNL     1      -3.375  12.398  19.885  0.00  0.00    +0.000 A 
ATOM     14  N   UNL     1      -4.416  12.320  18.946  0.00  0.00    +0.000 N 
ATOM     15  C   UNL     1      -4.009  11.607  17.785  0.00  0.00    +0.000 A 
ATOM     16  C   UNL     1      -4.617  11.306  16.543  0.00  0.00    +0.000 A 
ATOM     17  C   UNL     1      -3.857  10.594  15.573  0.00  0.00    +0.000 A 
ATOM     18  C   UNL     1      -2.548  10.195  15.801  0.00  0.00    +0.000 A 
ATOM     19  C   UNL     1      -1.960  10.501  17.012  0.00  0.00    +0.000 A 
ATOM     20  C   UNL     1      -2.702  11.203  17.986  0.00  0.00    +0.000 A 
ATOM     21  C   UNL     1      -3.137  13.326  21.167  0.00  0.00    +0.000 C 
ATOM     22  H   UNL     1      -5.319  12.775  19.013  0.00  0.00    +0.000 HD
ENDROOT
BRANCH   1  24
ATOM     23  C   UNL     1      -1.099  15.829  26.334  0.00  0.00    +0.000 C 
ATOM     24  O   UNL     1      -1.749  16.329  25.154  0.00  0.00    +0.000 OA
ENDBRANCH   1  24
BRANCH   6  25
ATOM     25  O   UNL     1      -1.046  15.099  22.557  0.00  0.00    +0.000 OA
ATOM     26  C   UNL     1      -1.493  16.369  22.023  0.00  0.00    +0.000 C 
ENDBRANCH   6  25
BRANCH  10  27
ATOM     27  C   UNL     1       0.669  12.531  21.342  0.00  0.00    +0.000 C 
ATOM     28  O   UNL     1       1.440  13.453  21.653  0.00  0.00    +0.000 OA
BRANCH  27  29
ATOM     29  O   UNL     1       1.086  11.232  21.447  0.00  0.00    +0.000 OA
ATOM     30  H   UNL     1       0.666  10.730  22.187  0.00  0.00    +0.000 HD
ENDBRANCH  27  29
ENDBRANCH  10  27
TORSDOF 4
ENDMDL
MODEL 3
REMARK VINA RESULT:      -6.7      4.454      6.297
REMARK  Name = 
REMARK  6 active torsions:
REMARK  status: ('A' for Active; 'I' for Inactive)
REMARK    1  A    between atoms: C_1  and  O_2
REMARK    2  A    between atoms: O_2  and  C_3
REMARK    3  A    between atoms: C_8  and  O_9
REMARK    4  A    between atoms: O_9  and  C_10
REMARK    5  A    between atoms: C_14  and  C_15
REMARK    6  A    between atoms: C_15  and  O_17
REMARK                            x       y       z     vdW  Elec       q    Type
REMARK                         _______ _______ _______ _____ _____    ______ ____
ROOT
ATOM      1  C   UNL     1      -2.332  12.317  22.330  0.00  0.00    +0.000 A 
ATOM      2  C   UNL     1      -2.116  11.491  23.417  0.00  0.00    +0.000 A 
ATOM      3  C   UNL     1      -1.108  10.441  23.345  0.00  0.00    +0.000 A 
ATOM      4  C   UNL     1      -0.123  10.440  22.333  0.00  0.00    +0.000 A 
ATOM      5  C   UNL     1      -0.180  11.722  21.810  0.00  0.00    +0.000 A 
ATOM      6  C   UNL     1      -1.449  12.102  21.335  0.00  0.00    +0.000 A 
ATOM      7  C   UNL     1       0.899  11.777  20.904  0.00  0.00    +0.000 C 
ATOM      8  O   UNL     1       1.772  12.612  20.840  0.00  0.00    +0.000 OA
ATOM      9  N   UNL     1       0.655  10.704  20.153  0.00  0.00    +0.000 N 
ATOM     10  C   UNL     1       0.669  10.758  18.722  0.00  0.00    +0.000 C 
ATOM     11  C   UNL     1       1.823   9.927  18.277  0.00  0.00    +0.000 C 
ATOM     12  C   UNL     1       1.932   8.738  19.173  0.00  0.00    +0.000 A 
ATOM     13  C   UNL     1       1.247   8.525  20.401  0.00  0.00    +0.000 A 
ATOM     14  N   UNL     1       1.488   7.164  20.642  0.00  0.00    +0.000 N 
ATOM     15  C   UNL     1       2.338   6.608  19.647  0.00  0.00    +0.000 A 
ATOM     16  C   UNL     1       2.826   5.308  19.373  0.00  0.00    +0.000 A 
ATOM     17  C   UNL     1       3.638   5.119  18.220  0.00  0.00    +0.000 A 
ATOM     18  C   UNL     1       3.956   6.158  17.357  0.00  0.00    +0.000 A 
ATOM     19  C   UNL     1       3.468   7.420  17.626  0.00  0.00    +0.000 A 
ATOM     20  C   UNL     1       2.665   7.625  18.769  0.00  0.00    +0.000 A 
ATOM     21  C   UNL     1       0.145   9.548  20.952  0.00  0.00    +0.000 C 
ATOM     22  H   UNL     1       1.059   6.598  21.365  0.00  0.00    +0.000 HD
ENDROOT
BRANCH   1  24
ATOM     23  C   UNL     1      -4.337  12.994  23.253  0.00  0.00    +0.000 C 
ATOM     24  O   UNL     1      -3.420  13.110  22.154  0.00  0.00    +0.000 OA
ENDBRANCH   1  24
BRANCH   6  25
ATOM     25  O   UNL     1      -1.872  11.691  20.068  0.00  0.00    +0.000 OA
ATOM     26  C   UNL     1      -3.072  12.314  19.548  0.00  0.00    +0.000 C 
ENDBRANCH   6  25
BRANCH  10  27
ATOM     27  C   UNL     1       0.777  12.142  18.122  0.00  0.00    +0.000 C 
ATOM     28  O   UNL     1      -0.222  12.816  17.823  0.00  0.00    +0.000 OA
BRANCH  27  29
ATOM     29  O   UNL     1       2.021  12.565  17.739  0.00  0.00    +0.000 OA
ATOM     30  H   UNL     1       2.020  13.391  17.197  0.00  0.00    +0.000 HD
ENDBRANCH  27  29
ENDBRANCH  10  27
TORSDOF 4
ENDMDL
MODEL 4
REMARK VINA RESULT:      -6.6      7.788     12.032
REMARK  Name = 
REMARK  6 active torsions:
REMARK  status: ('A' for Active; 'I' for Inactive)
REMARK    1  A    between atoms: C_1  and  O_2
REMARK    2  A    between atoms: O_2  and  C_3
REMARK    3  A    between atoms: C_8  and  O_9
REMARK    4  A    between atoms: O_9  and  C_10
REMARK    5  A    between atoms: C_14  and  C_15
REMARK    6  A    between atoms: C_15  and  O_17
REMARK                            x       y       z     vdW  Elec       q    Type
REMARK                         _______ _______ _______ _____ _____    ______ ____
ROOT
ATOM      1  C   UNL     1       5.204   4.525  15.743  0.00  0.00    +0.000 A 
ATOM      2  C   UNL     1       5.628   5.778  15.339  0.00  0.00    +0.000 A 
ATOM      3  C   UNL     1       5.208   6.961  16.079  0.00  0.00    +0.000 A 
ATOM      4  C   UNL     1       4.656   6.858  17.374  0.00  0.00    +0.000 A 
ATOM      5  C   UNL     1       4.974   5.568  17.771  0.00  0.00    +0.000 A 
ATOM      6  C   UNL     1       4.517   4.561  16.901  0.00  0.00    +0.000 A 
ATOM      7  C   UNL     1       4.559   5.505  19.117  0.00  0.00    +0.000 C 
ATOM      8  O   UNL     1       5.202   5.142  20.075  0.00  0.00    +0.000 OA
ATOM      9  N   UNL     1       3.296   5.913  19.013  0.00  0.00    +0.000 N 
ATOM     10  C   UNL     1       2.214   5.200  19.623  0.00  0.00    +0.000 C 
ATOM     11  C   UNL     1       1.665   6.088  20.686  0.00  0.00    +0.000 C 
ATOM     12  C   UNL     1       1.704   7.499  20.199  0.00  0.00    +0.000 A 
ATOM     13  C   UNL     1       2.374   7.988  19.045  0.00  0.00    +0.000 A 
ATOM     14  N   UNL     1       1.834   9.277  18.913  0.00  0.00    +0.000 N 
ATOM     15  C   UNL     1       0.941   9.572  19.981  0.00  0.00    +0.000 A 
ATOM     16  C   UNL     1       0.096  10.662  20.293  0.00  0.00    +0.000 A 
ATOM     17  C   UNL     1      -0.718  10.576  21.458  0.00  0.00    +0.000 A 
ATOM     18  C   UNL     1      -0.714   9.462  22.285  0.00  0.00    +0.000 A 
ATOM     19  C   UNL     1       0.107   8.399  21.968  0.00  0.00    +0.000 A 
ATOM     20  C   UNL     1       0.923   8.472  20.819  0.00  0.00    +0.000 A 
ATOM     21  C   UNL     1       3.128   7.017  18.019  0.00  0.00    +0.000 C 
ATOM     22  H   UNL     1       1.968   9.907  18.131  0.00  0.00    +0.000 HD
ENDROOT
BRANCH   1  24
ATOM     23  C   UNL     1       5.958   3.631  13.752  0.00  0.00    +0.000 C 
ATOM     24  O   UNL     1       5.262   3.399  14.987  0.00  0.00    +0.000 OA
ENDBRANCH   1  24
BRANCH   6  25
ATOM     25  O   UNL     1       3.190   4.130  16.969  0.00  0.00    +0.000 OA
ATOM     26  C   UNL     1       2.957   2.709  16.815  0.00  0.00    +0.000 C 
ENDBRANCH   6  25
BRANCH  10  27
ATOM     27  C   UNL     1       2.570   3.855  20.217  0.00  0.00    +0.000 C 
ATOM     28  O   UNL     1       2.410   2.791  19.597  0.00  0.00    +0.000 OA
BRANCH  27  29
ATOM     29  O   UNL     1       2.907   3.824  21.543  0.00  0.00    +0.000 OA
ATOM     30  H   UNL     1       3.838   3.543  21.719  0.00  0.00    +0.000 HD
ENDBRANCH  27  29
ENDBRANCH  10  27
TORSDOF 4
ENDMDL
MODEL 5
REMARK VINA RESULT:      -6.3      3.970      5.577
REMARK  Name = 
REMARK  6 active torsions:
REMARK  status: ('A' for Active; 'I' for Inactive)
REMARK    1  A    between atoms: C_1  and  O_2
REMARK    2  A    between atoms: O_2  and  C_3
REMARK    3  A    between atoms: C_8  and  O_9
REMARK    4  A    between atoms: O_9  and  C_10
REMARK    5  A    between atoms: C_14  and  C_15
REMARK    6  A    between atoms: C_15  and  O_17
REMARK                            x       y       z     vdW  Elec       q    Type
REMARK                         _______ _______ _______ _____ _____    ______ ____
ROOT
ATOM      1  C   UNL     1      -2.875  13.394  22.212  0.00  0.00    +0.000 A 
ATOM      2  C   UNL     1      -2.811  12.640  23.369  0.00  0.00    +0.000 A 
ATOM      3  C   UNL     1      -1.895  11.509  23.450  0.00  0.00    +0.000 A 
ATOM      4  C   UNL     1      -0.845  11.349  22.520  0.00  0.00    +0.000 A 
ATOM      5  C   UNL     1      -0.752  12.587  21.905  0.00  0.00    +0.000 A 
ATOM      6  C   UNL     1      -1.946  13.031  21.307  0.00  0.00    +0.000 A 
ATOM      7  C   UNL     1       0.389  12.483  21.083  0.00  0.00    +0.000 C 
ATOM      8  O   UNL     1       1.334  13.236  21.028  0.00  0.00    +0.000 OA
ATOM      9  N   UNL     1       0.107  11.379  20.394  0.00  0.00    +0.000 N 
ATOM     10  C   UNL     1       0.228  11.320  18.968  0.00  0.00    +0.000 C 
ATOM     11  C   UNL     1       1.334  10.366  18.674  0.00  0.00    +0.000 C 
ATOM     12  C   UNL     1       1.274   9.245  19.659  0.00  0.00    +0.000 A 
ATOM     13  C   UNL     1       0.488   9.185  20.841  0.00  0.00    +0.000 A 
ATOM     14  N   UNL     1       0.591   7.831  21.197  0.00  0.00    +0.000 N 
ATOM     15  C   UNL     1       1.458   7.132  20.313  0.00  0.00    +0.000 A 
ATOM     16  C   UNL     1       1.850   5.780  20.171  0.00  0.00    +0.000 A 
ATOM     17  C   UNL     1       2.722   5.436  19.101  0.00  0.00    +0.000 A 
ATOM     18  C   UNL     1       3.190   6.375  18.193  0.00  0.00    +0.000 A 
ATOM     19  C   UNL     1       2.796   7.690  18.333  0.00  0.00    +0.000 A 
ATOM     20  C   UNL     1       1.935   8.048  19.392  0.00  0.00    +0.000 A 
ATOM     21  C   UNL     1      -0.558  10.333  21.231  0.00  0.00    +0.000 C 
ATOM     22  H   UNL     1       0.065   7.360  21.923  0.00  0.00    +0.000 HD
ENDROOT
BRANCH   1  24
ATOM     23  C   UNL     1      -4.603  14.667  23.065  0.00  0.00    +0.000 C 
ATOM     24  O   UNL     1      -3.875  14.257  21.896  0.00  0.00    +0.000 OA
ENDBRANCH   1  24
BRANCH   6  25
ATOM     25  O   UNL     1      -2.312  12.559  20.043  0.00  0.00    +0.000 OA
ATOM     26  C   UNL     1      -3.711  12.242  19.846  0.00  0.00    +0.000 C 
ENDBRANCH   6  25
BRANCH  10  27
ATOM     27  C   UNL     1       0.498  12.640  18.281  0.00  0.00    +0.000 C 
ATOM     28  O   UNL     1      -0.416  13.381  17.882  0.00  0.00    +0.000 OA
BRANCH  27  29
ATOM     29  O   UNL     1       1.794  12.916  17.939  0.00  0.00    +0.000 OA
ATOM     30  H   UNL     1       2.099  13.819  18.200  0.00  0.00    +0.000 HD
ENDBRANCH  27  29
ENDBRANCH  10  27
TORSDOF 4
ENDMDL
MODEL 6
REMARK VINA RESULT:      -6.2      7.665     11.334
REMARK  Name = 
REMARK  6 active torsions:
REMARK  status: ('A' for Active; 'I' for Inactive)
REMARK    1  A    between atoms: C_1  and  O_2
REMARK    2  A    between atoms: O_2  and  C_3
REMARK    3  A    between atoms: C_8  and  O_9
REMARK    4  A    between atoms: O_9  and  C_10
REMARK    5  A    between atoms: C_14  and  C_15
REMARK    6  A    between atoms: C_15  and  O_17
REMARK                            x       y       z     vdW  Elec       q    Type
REMARK                         _______ _______ _______ _____ _____    ______ ____
ROOT
ATOM      1  C   UNL     1       3.929   2.608  20.347  0.00  0.00    +0.000 A 
ATOM      2  C   UNL     1       2.950   2.445  21.309  0.00  0.00    +0.000 A 
ATOM      3  C   UNL     1       1.966   3.497  21.530  0.00  0.00    +0.000 A 
ATOM      4  C   UNL     1       1.775   4.531  20.588  0.00  0.00    +0.000 A 
ATOM      5  C   UNL     1       2.405   4.063  19.446  0.00  0.00    +0.000 A 
ATOM      6  C   UNL     1       3.761   3.732  19.623  0.00  0.00    +0.000 A 
ATOM      7  C   UNL     1       2.092   5.020  18.458  0.00  0.00    +0.000 C 
ATOM      8  O   UNL     1       1.626   4.824  17.359  0.00  0.00    +0.000 OA
ATOM      9  N   UNL     1       2.478   6.143  19.060  0.00  0.00    +0.000 N 
ATOM     10  C   UNL     1       3.304   7.112  18.404  0.00  0.00    +0.000 C 
ATOM     11  C   UNL     1       2.469   8.334  18.229  0.00  0.00    +0.000 C 
ATOM     12  C   UNL     1       1.603   8.499  19.434  0.00  0.00    +0.000 A 
ATOM     13  C   UNL     1       1.387   7.550  20.470  0.00  0.00    +0.000 A 
ATOM     14  N   UNL     1       0.757   8.326  21.455  0.00  0.00    +0.000 N 
ATOM     15  C   UNL     1       0.539   9.656  21.001  0.00  0.00    +0.000 A 
ATOM     16  C   UNL     1       0.025  10.834  21.592  0.00  0.00    +0.000 A 
ATOM     17  C   UNL     1       0.010  12.028  20.819  0.00  0.00    +0.000 A 
ATOM     18  C   UNL     1       0.487  12.077  19.517  0.00  0.00    +0.000 A 
ATOM     19  C   UNL     1       0.996  10.926  18.951  0.00  0.00    +0.000 A 
ATOM     20  C   UNL     1       1.013   9.732  19.704  0.00  0.00    +0.000 A 
ATOM     21  C   UNL     1       2.163   6.150  20.522  0.00  0.00    +0.000 C 
ATOM     22  H   UNL     1       0.552   8.039  22.404  0.00  0.00    +0.000 HD
ENDROOT
BRANCH   1  24
ATOM     23  C   UNL     1       5.276   1.080  21.435  0.00  0.00    +0.000 C 
ATOM     24  O   UNL     1       5.062   1.865  20.251  0.00  0.00    +0.000 OA
ENDBRANCH   1  24
BRANCH   6  25
ATOM     25  O   UNL     1       4.733   4.735  19.609  0.00  0.00    +0.000 OA
ATOM     26  C   UNL     1       5.988   4.418  18.959  0.00  0.00    +0.000 C 
ENDBRANCH   6  25
BRANCH  10  27
ATOM     27  C   UNL     1       3.872   6.688  17.067  0.00  0.00    +0.000 C 
ATOM     28  O   UNL     1       3.871   7.437  16.077  0.00  0.00    +0.000 OA
BRANCH  27  29
ATOM     29  O   UNL     1       4.227   5.374  16.925  0.00  0.00    +0.000 OA
ATOM     30  H   UNL     1       3.810   4.767  17.583  0.00  0.00    +0.000 HD
ENDBRANCH  27  29
ENDBRANCH  10  27
TORSDOF 4
ENDMDL
MODEL 7
REMARK VINA RESULT:      -6.2      4.141      5.577
REMARK  Name = 
REMARK  6 active torsions:
REMARK  status: ('A' for Active; 'I' for Inactive)
REMARK    1  A    between atoms: C_1  and  O_2
REMARK    2  A    between atoms: O_2  and  C_3
REMARK    3  A    between atoms: C_8  and  O_9
REMARK    4  A    between atoms: O_9  and  C_10
REMARK    5  A    between atoms: C_14  and  C_15
REMARK    6  A    between atoms: C_15  and  O_17
REMARK                            x       y       z     vdW  Elec       q    Type
REMARK                         _______ _______ _______ _____ _____    ______ ____
ROOT
ATOM      1  C   UNL     1      -0.491  15.695  20.341  0.00  0.00    +0.000 A 
ATOM      2  C   UNL     1      -0.356  15.791  18.968  0.00  0.00    +0.000 A 
ATOM      3  C   UNL     1      -0.060  14.601  18.181  0.00  0.00    +0.000 A 
ATOM      4  C   UNL     1      -0.224  13.307  18.720  0.00  0.00    +0.000 A 
ATOM      5  C   UNL     1      -0.994  13.512  19.854  0.00  0.00    +0.000 A 
ATOM      6  C   UNL     1      -0.442  14.421  20.776  0.00  0.00    +0.000 A 
ATOM      7  C   UNL     1      -1.288  12.213  20.316  0.00  0.00    +0.000 C 
ATOM      8  O   UNL     1      -2.372  11.753  20.593  0.00  0.00    +0.000 OA
ATOM      9  N   UNL     1      -0.068  11.685  20.386  0.00  0.00    +0.000 N 
ATOM     10  C   UNL     1       0.392  10.981  21.545  0.00  0.00    +0.000 C 
ATOM     11  C   UNL     1       0.575   9.560  21.136  0.00  0.00    +0.000 C 
ATOM     12  C   UNL     1       1.113   9.528  19.743  0.00  0.00    +0.000 A 
ATOM     13  C   UNL     1       1.205  10.619  18.835  0.00  0.00    +0.000 A 
ATOM     14  N   UNL     1       2.038  10.100  17.832  0.00  0.00    +0.000 N 
ATOM     15  C   UNL     1       2.366   8.740  18.089  0.00  0.00    +0.000 A 
ATOM     16  C   UNL     1       3.202   7.787  17.463  0.00  0.00    +0.000 A 
ATOM     17  C   UNL     1       3.326   6.500  18.057  0.00  0.00    +0.000 A 
ATOM     18  C   UNL     1       2.664   6.155  19.227  0.00  0.00    +0.000 A 
ATOM     19  C   UNL     1       1.858   7.094  19.837  0.00  0.00    +0.000 A 
ATOM     20  C   UNL     1       1.722   8.374  19.257  0.00  0.00    +0.000 A 
ATOM     21  C   UNL     1       0.810  12.114  19.253  0.00  0.00    +0.000 C 
ATOM     22  H   UNL     1       2.444  10.618  17.063  0.00  0.00    +0.000 HD
ENDROOT
BRANCH   1  24
ATOM     23  C   UNL     1      -0.294  17.990  20.512  0.00  0.00    +0.000 C 
ATOM     24  O   UNL     1      -0.459  16.742  21.205  0.00  0.00    +0.000 OA
ENDBRANCH   1  24
BRANCH   6  25
ATOM     25  O   UNL     1       0.548  13.998  21.667  0.00  0.00    +0.000 OA
ATOM     26  C   UNL     1       1.850  14.620  21.538  0.00  0.00    +0.000 C 
ENDBRANCH   6  25
BRANCH  10  27
ATOM     27  C   UNL     1      -0.517  11.049  22.753  0.00  0.00    +0.000 C 
ATOM     28  O   UNL     1      -1.124  10.055  23.185  0.00  0.00    +0.000 OA
BRANCH  27  29
ATOM     29  O   UNL     1      -0.801  12.290  23.255  0.00  0.00    +0.000 OA
ATOM     30  H   UNL     1      -0.651  13.030  22.618  0.00  0.00    +0.000 HD
ENDBRANCH  27  29
ENDBRANCH  10  27
TORSDOF 4
ENDMDL
MODEL 8
REMARK VINA RESULT:      -6.1      3.640      5.075
REMARK  Name = 
REMARK  6 active torsions:
REMARK  status: ('A' for Active; 'I' for Inactive)
REMARK    1  A    between atoms: C_1  and  O_2
REMARK    2  A    between atoms: O_2  and  C_3
REMARK    3  A    between atoms: C_8  and  O_9
REMARK    4  A    between atoms: O_9  and  C_10
REMARK    5  A    between atoms: C_14  and  C_15
REMARK    6  A    between atoms: C_15  and  O_17
REMARK                            x       y       z     vdW  Elec       q    Type
REMARK                         _______ _______ _______ _____ _____    ______ ____
ROOT
ATOM      1  C   UNL     1      -3.104  14.201  22.425  0.00  0.00    +0.000 A 
ATOM      2  C   UNL     1      -3.028  13.482  23.603  0.00  0.00    +0.000 A 
ATOM      3  C   UNL     1      -2.126  12.342  23.703  0.00  0.00    +0.000 A 
ATOM      4  C   UNL     1      -1.095  12.139  22.759  0.00  0.00    +0.000 A 
ATOM      5  C   UNL     1      -0.998  13.357  22.104  0.00  0.00    +0.000 A 
ATOM      6  C   UNL     1      -2.196  13.798  21.514  0.00  0.00    +0.000 A 
ATOM      7  C   UNL     1       0.127  13.212  21.266  0.00  0.00    +0.000 C 
ATOM      8  O   UNL     1       1.080  13.951  21.171  0.00  0.00    +0.000 OA
ATOM      9  N   UNL     1      -0.182  12.092  20.617  0.00  0.00    +0.000 N 
ATOM     10  C   UNL     1      -0.088  11.987  19.192  0.00  0.00    +0.000 C 
ATOM     11  C   UNL     1       1.000  11.010  18.907  0.00  0.00    +0.000 C 
ATOM     12  C   UNL     1       0.944   9.921  19.927  0.00  0.00    +0.000 A 
ATOM     13  C   UNL     1       0.179   9.907  21.125  0.00  0.00    +0.000 A 
ATOM     14  N   UNL     1       0.271   8.564  21.520  0.00  0.00    +0.000 N 
ATOM     15  C   UNL     1       1.113   7.826  20.642  0.00  0.00    +0.000 A 
ATOM     16  C   UNL     1       1.484   6.465  20.536  0.00  0.00    +0.000 A 
ATOM     17  C   UNL     1       2.332   6.077  19.461  0.00  0.00    +0.000 A 
ATOM     18  C   UNL     1       2.796   6.982  18.516  0.00  0.00    +0.000 A 
ATOM     19  C   UNL     1       2.421   8.306  18.622  0.00  0.00    +0.000 A 
ATOM     20  C   UNL     1       1.584   8.707  19.686  0.00  0.00    +0.000 A 
ATOM     21  C   UNL     1      -0.845  11.081  21.498  0.00  0.00    +0.000 C 
ATOM     22  H   UNL     1      -0.248   8.122  22.269  0.00  0.00    +0.000 HD
ENDROOT
BRANCH   1  24
ATOM     23  C   UNL     1      -5.209  14.955  23.005  0.00  0.00    +0.000 C 
ATOM     24  O   UNL     1      -4.098  15.067  22.100  0.00  0.00    +0.000 OA
ENDBRANCH   1  24
BRANCH   6  25
ATOM     25  O   UNL     1      -2.592  13.293  20.273  0.00  0.00    +0.000 OA
ATOM     26  C   UNL     1      -3.871  12.617  20.222  0.00  0.00    +0.000 C 
ENDBRANCH   6  25
BRANCH  10  27
ATOM     27  C   UNL     1       0.186  13.282  18.459  0.00  0.00    +0.000 C 
ATOM     28  O   UNL     1       1.310  13.568  18.013  0.00  0.00    +0.000 OA
BRANCH  27  29
ATOM     29  O   UNL     1      -0.804  14.226  18.460  0.00  0.00    +0.000 OA
ATOM     30  H   UNL     1      -0.591  15.038  17.938  0.00  0.00    +0.000 HD
ENDBRANCH  27  29
ENDBRANCH  10  27
TORSDOF 4
ENDMDL
MODEL 9
REMARK VINA RESULT:      -6.0      4.549      6.439
REMARK  Name = 
REMARK  6 active torsions:
REMARK  status: ('A' for Active; 'I' for Inactive)
REMARK    1  A    between atoms: C_1  and  O_2
REMARK    2  A    between atoms: O_2  and  C_3
REMARK    3  A    between atoms: C_8  and  O_9
REMARK    4  A    between atoms: O_9  and  C_10
REMARK    5  A    between atoms: C_14  and  C_15
REMARK    6  A    between atoms: C_15  and  O_17
REMARK                            x       y       z     vdW  Elec       q    Type
REMARK                         _______ _______ _______ _____ _____    ______ ____
ROOT
ATOM      1  C   UNL     1      -0.329  14.260  20.240  0.00  0.00    +0.000 A 
ATOM      2  C   UNL     1      -0.196  14.394  18.870  0.00  0.00    +0.000 A 
ATOM      3  C   UNL     1       0.201  13.247  18.063  0.00  0.00    +0.000 A 
ATOM      4  C   UNL     1       0.141  11.934  18.576  0.00  0.00    +0.000 A 
ATOM      5  C   UNL     1      -0.650  12.054  19.708  0.00  0.00    +0.000 A 
ATOM      6  C   UNL     1      -0.179  12.986  20.651  0.00  0.00    +0.000 A 
ATOM      7  C   UNL     1      -0.840  10.726  20.143  0.00  0.00    +0.000 C 
ATOM      8  O   UNL     1      -1.884  10.174  20.404  0.00  0.00    +0.000 OA
ATOM      9  N   UNL     1       0.419  10.298  20.212  0.00  0.00    +0.000 N 
ATOM     10  C   UNL     1       0.928   9.611  21.360  0.00  0.00    +0.000 C 
ATOM     11  C   UNL     1       1.228   8.218  20.925  0.00  0.00    +0.000 C 
ATOM     12  C   UNL     1       1.775   8.258  19.536  0.00  0.00    +0.000 A 
ATOM     13  C   UNL     1       1.783   9.370  18.650  0.00  0.00    +0.000 A 
ATOM     14  N   UNL     1       2.661   8.940  17.643  0.00  0.00    +0.000 N 
ATOM     15  C   UNL     1       3.098   7.606  17.877  0.00  0.00    +0.000 A 
ATOM     16  C   UNL     1       4.012   6.737  17.238  0.00  0.00    +0.000 A 
ATOM     17  C   UNL     1       4.237   5.453  17.808  0.00  0.00    +0.000 A 
ATOM     18  C   UNL     1       3.599   5.032  18.967  0.00  0.00    +0.000 A 
ATOM     19  C   UNL     1       2.715   5.891  19.589  0.00  0.00    +0.000 A 
ATOM     20  C   UNL     1       2.479   7.166  19.033  0.00  0.00    +0.000 A 
ATOM     21  C   UNL     1       1.265  10.819  19.093  0.00  0.00    +0.000 C 
ATOM     22  H   UNL     1       3.028   9.504  16.887  0.00  0.00    +0.000 HD
ENDROOT
BRANCH   1  24
ATOM     23  C   UNL     1      -1.578  15.225  21.926  0.00  0.00    +0.000 C 
ATOM     24  O   UNL     1      -0.388  15.289  21.124  0.00  0.00    +0.000 OA
ENDBRANCH   1  24
BRANCH   6  25
ATOM     25  O   UNL     1       0.837  12.628  21.541  0.00  0.00    +0.000 OA
ATOM     26  C   UNL     1       2.107  13.306  21.386  0.00  0.00    +0.000 C 
ENDBRANCH   6  25
BRANCH  10  27
ATOM     27  C   UNL     1       0.010   9.581  22.563  0.00  0.00    +0.000 C 
ATOM     28  O   UNL     1       0.126  10.381  23.507  0.00  0.00    +0.000 OA
BRANCH  27  29
ATOM     29  O   UNL     1      -0.846   8.520  22.673  0.00  0.00    +0.000 OA
ATOM     30  H   UNL     1      -1.752   8.690  22.316  0.00  0.00    +0.000 HD
ENDBRANCH  27  29
ENDBRANCH  10  27
TORSDOF 4
ENDMDL
