MODEL 1
REMARK VINA RESULT:      -8.0      0.000      0.000
REMARK  Name = 
REMARK  8 active torsions:
REMARK  status: ('A' for Active; 'I' for Inactive)
REMARK    1  A    between atoms: C_1  and  C_2
REMARK    2  A    between atoms: C_4  and  C_5
REMARK    3  A    between atoms: C_7  and  S_8
REMARK    4  A    between atoms: S_8  and  C_11
REMARK    5  A    between atoms: C_12  and  C_13
REMARK    6  A    between atoms: N_15  and  C_16
REMARK    7  A    between atoms: C_16  and  C_17
REMARK    8  A    between atoms: C_22  and  O_23
REMARK                            x       y       z     vdW  Elec       q    Type
REMARK                         _______ _______ _______ _____ _____    ______ ____
ROOT
ATOM      1  C   UNL     1      -0.748  11.678  20.870  0.00  0.00    +0.000 A 
ATOM      2  C   UNL     1      -1.101  11.632  22.221  0.00  0.00    +0.000 A 
ATOM      3  N   UNL     1      -0.457  10.520  22.742  0.00  0.00    +0.000 N 
ATOM      4  C   UNL     1       0.226   9.824  21.777  0.00  0.00    +0.000 A 
ATOM      5  C   UNL     1       0.953   8.628  21.866  0.00  0.00    +0.000 A 
ATOM      6  C   UNL     1       1.537   8.131  20.696  0.00  0.00    +0.000 A 
ATOM      7  C   UNL     1       1.409   8.817  19.495  0.00  0.00    +0.000 A 
ATOM      8 CL   UNL     1       2.105   8.176  18.057  0.00  0.00    +0.000 Cl
ATOM      9  C   UNL     1       0.705  10.020  19.432  0.00  0.00    +0.000 A 
ATOM     10  C   UNL     1       0.079  10.534  20.588  0.00  0.00    +0.000 A 
ATOM     11  H   UNL     1      -0.536  10.239  23.713  0.00  0.00    +0.000 HD
ENDROOT
BRANCH   2  12
ATOM     12  C   UNL     1      -1.915  12.432  23.130  0.00  0.00    +0.000 C 
ATOM     13  O   UNL     1      -1.462  13.447  23.648  0.00  0.00    +0.000 OA
ATOM     14  N   UNL     1      -3.152  11.948  23.434  0.00  0.00    +0.000 N 
ATOM     15  H   UNL     1      -3.488  11.097  22.988  0.00  0.00    +0.000 HD
BRANCH  14  16
ATOM     16  C   UNL     1      -4.090  12.590  24.337  0.00  0.00    +0.000 C 
BRANCH  16  17
ATOM     17  C   UNL     1      -5.342  13.030  23.619  0.00  0.00    +0.000 A 
ATOM     18  C   UNL     1      -6.594  12.565  24.051  0.00  0.00    +0.000 A 
ATOM     19  C   UNL     1      -7.769  12.958  23.402  0.00  0.00    +0.000 A 
ATOM     20  C   UNL     1      -7.709  13.817  22.307  0.00  0.00    +0.000 A 
ATOM     21  C   UNL     1      -6.473  14.284  21.858  0.00  0.00    +0.000 A 
ATOM     22  C   UNL     1      -5.304  13.890  22.513  0.00  0.00    +0.000 A 
BRANCH  22  23
ATOM     23  O   UNL     1      -4.096  14.360  22.080  0.00  0.00    +0.000 OA
ATOM     24  H   UNL     1      -4.238  15.197  21.608  0.00  0.00    +0.000 HD
ENDBRANCH  22  23
ENDBRANCH  16  17
ENDBRANCH  14  16
ENDBRANCH   2  12
BRANCH   1  25
ATOM     25  S   UNL     1      -1.159  12.849  19.644  0.00  0.00    +0.000 S 
ATOM     26  O   UNL     1       0.027  12.964  18.817  0.00  0.00    +0.000 OA
ATOM     27  O   UNL     1      -1.675  14.003  20.344  0.00  0.00    +0.000 OA
BRANCH  25  34
ATOM     28  C   UNL     1      -3.047  10.466  15.317  0.00  0.00    +0.000 C 
ATOM     29  C   UNL     1      -3.291  11.016  16.695  0.00  0.00    +0.000 A 
ATOM     30  C   UNL     1      -4.584  11.035  17.240  0.00  0.00    +0.000 A 
ATOM     31  C   UNL     1      -4.820  11.572  18.514  0.00  0.00    +0.000 A 
ATOM     32  C   UNL     1      -6.192  11.578  19.119  0.00  0.00    +0.000 C 
ATOM     33  C   UNL     1      -3.754  12.115  19.236  0.00  0.00    +0.000 A 
ATOM     34  C   UNL     1      -2.471  12.135  18.689  0.00  0.00    +0.000 A 
ATOM     35  C   UNL     1      -2.225  11.547  17.441  0.00  0.00    +0.000 A 
ENDBRANCH  25  34
ENDBRANCH   1  25
TORSDOF 6
ENDMDL
MODEL 2
REMARK VINA RESULT:      -8.0      0.098      1.532
REMARK  Name = 
REMARK  8 active torsions:
REMARK  status: ('A' for Active; 'I' for Inactive)
REMARK    1  A    between atoms: C_1  and  C_2
REMARK    2  A    between atoms: C_4  and  C_5
REMARK    3  A    between atoms: C_7  and  S_8
REMARK    4  A    between atoms: S_8  and  C_11
REMARK    5  A    between atoms: C_12  and  C_13
REMARK    6  A    between atoms: N_15  and  C_16
REMARK    7  A    between atoms: C_16  and  C_17
REMARK    8  A    between atoms: C_22  and  O_23
REMARK                            x       y       z     vdW  Elec       q    Type
REMARK                         _______ _______ _______ _____ _____    ______ ____
ROOT
ATOM      1  C   UNL     1      -0.717  11.634  20.811  0.00  0.00    +0.000 A 
ATOM      2  C   UNL     1      -1.048  11.602  22.168  0.00  0.00    +0.000 A 
ATOM      3  N   UNL     1      -0.389  10.500  22.690  0.00  0.00    +0.000 N 
ATOM      4  C   UNL     1       0.282   9.796  21.722  0.00  0.00    +0.000 A 
ATOM      5  C   UNL     1       1.018   8.606  21.812  0.00  0.00    +0.000 A 
ATOM      6  C   UNL     1       1.586   8.099  20.639  0.00  0.00    +0.000 A 
ATOM      7  C   UNL     1       1.434   8.771  19.433  0.00  0.00    +0.000 A 
ATOM      8 CL   UNL     1       2.109   8.117  17.990  0.00  0.00    +0.000 Cl
ATOM      9  C   UNL     1       0.721   9.969  19.367  0.00  0.00    +0.000 A 
ATOM     10  C   UNL     1       0.112  10.492  20.528  0.00  0.00    +0.000 A 
ATOM     11  H   UNL     1      -0.450  10.229  23.666  0.00  0.00    +0.000 HD
ENDROOT
BRANCH   2  12
ATOM     12  C   UNL     1      -1.851  12.407  23.081  0.00  0.00    +0.000 C 
ATOM     13  O   UNL     1      -1.389  13.420  23.596  0.00  0.00    +0.000 OA
ATOM     14  N   UNL     1      -3.089  11.931  23.393  0.00  0.00    +0.000 N 
ATOM     15  H   UNL     1      -3.433  11.082  22.950  0.00  0.00    +0.000 HD
BRANCH  14  16
ATOM     16  C   UNL     1      -4.018  12.579  24.302  0.00  0.00    +0.000 C 
BRANCH  16  17
ATOM     17  C   UNL     1      -5.279  13.011  23.594  0.00  0.00    +0.000 A 
ATOM     18  C   UNL     1      -6.527  12.559  24.054  0.00  0.00    +0.000 A 
ATOM     19  C   UNL     1      -7.709  12.944  23.415  0.00  0.00    +0.000 A 
ATOM     20  C   UNL     1      -7.662  13.783  22.303  0.00  0.00    +0.000 A 
ATOM     21  C   UNL     1      -6.432  14.237  21.828  0.00  0.00    +0.000 A 
ATOM     22  C   UNL     1      -5.254  13.850  22.472  0.00  0.00    +0.000 A 
BRANCH  22  23
ATOM     23  O   UNL     1      -4.051  14.307  22.013  0.00  0.00    +0.000 OA
ATOM     24  H   UNL     1      -4.210  14.914  21.271  0.00  0.00    +0.000 HD
ENDBRANCH  22  23
ENDBRANCH  16  17
ENDBRANCH  14  16
ENDBRANCH   2  12
BRANCH   1  25
ATOM     25  S   UNL     1      -1.156  12.789  19.579  0.00  0.00    +0.000 S 
ATOM     26  O   UNL     1       0.008  12.887  18.719  0.00  0.00    +0.000 OA
ATOM     27  O   UNL     1      -1.649  13.955  20.275  0.00  0.00    +0.000 OA
BRANCH  25  34
ATOM     28  C   UNL     1      -6.238  11.452  18.987  0.00  0.00    +0.000 C 
ATOM     29  C   UNL     1      -4.843  11.495  18.426  0.00  0.00    +0.000 A 
ATOM     30  C   UNL     1      -4.551  10.905  17.188  0.00  0.00    +0.000 A 
ATOM     31  C   UNL     1      -3.246  10.919  16.674  0.00  0.00    +0.000 A 
ATOM     32  C   UNL     1      -2.923  10.312  15.341  0.00  0.00    +0.000 C 
ATOM     33  C   UNL     1      -2.223  11.508  17.420  0.00  0.00    +0.000 A 
ATOM     34  C   UNL     1      -2.495  12.067  18.669  0.00  0.00    +0.000 A 
ATOM     35  C   UNL     1      -3.808  12.104  19.157  0.00  0.00    +0.000 A 
ENDBRANCH  25  34
ENDBRANCH   1  25
TORSDOF 6
ENDMDL
MODEL 3
REMARK VINA RESULT:      -7.9      2.568      3.938
REMARK  Name = 
REMARK  8 active torsions:
REMARK  status: ('A' for Active; 'I' for Inactive)
REMARK    1  A    between atoms: C_1  and  C_2
REMARK    2  A    between atoms: C_4  and  C_5
REMARK    3  A    between atoms: C_7  and  S_8
REMARK    4  A    between atoms: S_8  and  C_11
REMARK    5  A    between atoms: C_12  and  C_13
REMARK    6  A    between atoms: N_15  and  C_16
REMARK    7  A    between atoms: C_16  and  C_17
REMARK    8  A    between atoms: C_22  and  O_23
REMARK                            x       y       z     vdW  Elec       q    Type
REMARK                         _______ _______ _______ _____ _____    ______ ____
ROOT
ATOM      1  C   UNL     1       1.449   9.000  19.506  0.00  0.00    +0.000 A 
ATOM      2  C   UNL     1       0.885   8.442  20.656  0.00  0.00    +0.000 A 
ATOM      3  N   UNL     1       1.469   7.192  20.794  0.00  0.00    +0.000 N 
ATOM      4  C   UNL     1       2.319   6.905  19.756  0.00  0.00    +0.000 A 
ATOM      5  C   UNL     1       3.058   5.744  19.483  0.00  0.00    +0.000 A 
ATOM      6  C   UNL     1       3.836   5.724  18.321  0.00  0.00    +0.000 A 
ATOM      7  C   UNL     1       3.882   6.830  17.482  0.00  0.00    +0.000 A 
ATOM      8 CL   UNL     1       4.818   6.778  16.038  0.00  0.00    +0.000 Cl
ATOM      9  C   UNL     1       3.162   7.986  17.784  0.00  0.00    +0.000 A 
ATOM     10  C   UNL     1       2.344   8.029  18.934  0.00  0.00    +0.000 A 
ATOM     11  H   UNL     1       1.244   6.556  21.551  0.00  0.00    +0.000 HD
ENDROOT
BRANCH   2  12
ATOM     12  C   UNL     1      -0.087   8.851  21.663  0.00  0.00    +0.000 C 
ATOM     13  O   UNL     1      -1.036   8.128  21.949  0.00  0.00    +0.000 OA
ATOM     14  N   UNL     1       0.065  10.096  22.194  0.00  0.00    +0.000 N 
ATOM     15  H   UNL     1       0.862  10.669  21.926  0.00  0.00    +0.000 HD
BRANCH  14  16
ATOM     16  C   UNL     1      -0.817  10.684  23.187  0.00  0.00    +0.000 C 
BRANCH  16  17
ATOM     17  C   UNL     1      -1.203  12.097  22.823  0.00  0.00    +0.000 A 
ATOM     18  C   UNL     1      -0.290  12.914  22.137  0.00  0.00    +0.000 A 
ATOM     19  C   UNL     1      -0.622  14.227  21.789  0.00  0.00    +0.000 A 
ATOM     20  C   UNL     1      -1.871  14.744  22.126  0.00  0.00    +0.000 A 
ATOM     21  C   UNL     1      -2.789  13.950  22.812  0.00  0.00    +0.000 A 
ATOM     22  C   UNL     1      -2.451  12.638  23.155  0.00  0.00    +0.000 A 
BRANCH  22  23
ATOM     23  O   UNL     1      -3.358  11.858  23.815  0.00  0.00    +0.000 OA
ATOM     24  H   UNL     1      -3.056  11.735  24.730  0.00  0.00    +0.000 HD
ENDBRANCH  22  23
ENDBRANCH  16  17
ENDBRANCH  14  16
ENDBRANCH   2  12
BRANCH   1  25
ATOM     25  S   UNL     1       1.206  10.572  18.789  0.00  0.00    +0.000 S 
ATOM     26  O   UNL     1       2.000  10.562  17.576  0.00  0.00    +0.000 OA
ATOM     27  O   UNL     1       1.474  11.537  19.830  0.00  0.00    +0.000 OA
BRANCH  25  34
ATOM     28  C   UNL     1      -2.935   9.376  15.724  0.00  0.00    +0.000 C 
ATOM     29  C   UNL     1      -2.392  10.070  16.943  0.00  0.00    +0.000 A 
ATOM     30  C   UNL     1      -3.224  10.866  17.744  0.00  0.00    +0.000 A 
ATOM     31  C   UNL     1      -2.716  11.536  18.866  0.00  0.00    +0.000 A 
ATOM     32  C   UNL     1      -3.597  12.372  19.745  0.00  0.00    +0.000 C 
ATOM     33  C   UNL     1      -1.357  11.426  19.172  0.00  0.00    +0.000 A 
ATOM     34  C   UNL     1      -0.513  10.666  18.362  0.00  0.00    +0.000 A 
ATOM     35  C   UNL     1      -1.031   9.950  17.274  0.00  0.00    +0.000 A 
ENDBRANCH  25  34
ENDBRANCH   1  25
TORSDOF 6
ENDMDL
MODEL 4
REMARK VINA RESULT:      -7.9      2.552      4.143
REMARK  Name = 
REMARK  8 active torsions:
REMARK  status: ('A' for Active; 'I' for Inactive)
REMARK    1  A    between atoms: C_1  and  C_2
REMARK    2  A    between atoms: C_4  and  C_5
REMARK    3  A    between atoms: C_7  and  S_8
REMARK    4  A    between atoms: S_8  and  C_11
REMARK    5  A    between atoms: C_12  and  C_13
REMARK    6  A    between atoms: N_15  and  C_16
REMARK    7  A    between atoms: C_16  and  C_17
REMARK    8  A    between atoms: C_22  and  O_23
REMARK                            x       y       z     vdW  Elec       q    Type
REMARK                         _______ _______ _______ _____ _____    ______ ____
ROOT
ATOM      1  C   UNL     1       1.432   9.030  19.536  0.00  0.00    +0.000 A 
ATOM      2  C   UNL     1       0.869   8.471  20.687  0.00  0.00    +0.000 A 
ATOM      3  N   UNL     1       1.451   7.220  20.821  0.00  0.00    +0.000 N 
ATOM      4  C   UNL     1       2.297   6.932  19.780  0.00  0.00    +0.000 A 
ATOM      5  C   UNL     1       3.033   5.771  19.504  0.00  0.00    +0.000 A 
ATOM      6  C   UNL     1       3.809   5.751  18.340  0.00  0.00    +0.000 A 
ATOM      7  C   UNL     1       3.856   6.858  17.503  0.00  0.00    +0.000 A 
ATOM      8 CL   UNL     1       4.788   6.807  16.057  0.00  0.00    +0.000 Cl
ATOM      9  C   UNL     1       3.139   8.016  17.809  0.00  0.00    +0.000 A 
ATOM     10  C   UNL     1       2.323   8.058  18.961  0.00  0.00    +0.000 A 
ATOM     11  H   UNL     1       1.226   6.583  21.578  0.00  0.00    +0.000 HD
ENDROOT
BRANCH   2  12
ATOM     12  C   UNL     1      -0.100   8.881  21.697  0.00  0.00    +0.000 C 
ATOM     13  O   UNL     1      -1.033   8.147  22.003  0.00  0.00    +0.000 OA
ATOM     14  N   UNL     1       0.036  10.137  22.206  0.00  0.00    +0.000 N 
ATOM     15  H   UNL     1       0.822  10.718  21.921  0.00  0.00    +0.000 HD
BRANCH  14  16
ATOM     16  C   UNL     1      -0.846  10.726  23.198  0.00  0.00    +0.000 C 
BRANCH  16  17
ATOM     17  C   UNL     1      -1.227  12.140  22.834  0.00  0.00    +0.000 A 
ATOM     18  C   UNL     1      -0.307  12.960  22.161  0.00  0.00    +0.000 A 
ATOM     19  C   UNL     1      -0.635  14.273  21.813  0.00  0.00    +0.000 A 
ATOM     20  C   UNL     1      -1.888  14.790  22.138  0.00  0.00    +0.000 A 
ATOM     21  C   UNL     1      -2.813  13.994  22.812  0.00  0.00    +0.000 A 
ATOM     22  C   UNL     1      -2.479  12.681  23.154  0.00  0.00    +0.000 A 
BRANCH  22  23
ATOM     23  O   UNL     1      -3.393  11.898  23.802  0.00  0.00    +0.000 OA
ATOM     24  H   UNL     1      -2.921  11.313  24.419  0.00  0.00    +0.000 HD
ENDBRANCH  22  23
ENDBRANCH  16  17
ENDBRANCH  14  16
ENDBRANCH   2  12
BRANCH   1  25
ATOM     25  S   UNL     1       1.191  10.604  18.823  0.00  0.00    +0.000 S 
ATOM     26  O   UNL     1       1.949  10.580  17.587  0.00  0.00    +0.000 OA
ATOM     27  O   UNL     1       1.503  11.567  19.853  0.00  0.00    +0.000 OA
BRANCH  25  34
ATOM     28  C   UNL     1      -3.702  12.378  19.763  0.00  0.00    +0.000 C 
ATOM     29  C   UNL     1      -2.764  11.582  18.898  0.00  0.00    +0.000 A 
ATOM     30  C   UNL     1      -3.247  10.856  17.798  0.00  0.00    +0.000 A 
ATOM     31  C   UNL     1      -2.379  10.091  17.005  0.00  0.00    +0.000 A 
ATOM     32  C   UNL     1      -2.876   9.328  15.814  0.00  0.00    +0.000 C 
ATOM     33  C   UNL     1      -1.022  10.034  17.333  0.00  0.00    +0.000 A 
ATOM     34  C   UNL     1      -0.538  10.722  18.446  0.00  0.00    +0.000 A 
ATOM     35  C   UNL     1      -1.393  11.533  19.204  0.00  0.00    +0.000 A 
ENDBRANCH  25  34
ENDBRANCH   1  25
TORSDOF 6
ENDMDL
MODEL 5
REMARK VINA RESULT:      -7.8      1.000      2.044
REMARK  Name = 
REMARK  8 active torsions:
REMARK  status: ('A' for Active; 'I' for Inactive)
REMARK    1  A    between atoms: C_1  and  C_2
REMARK    2  A    between atoms: C_4  and  C_5
REMARK    3  A    between atoms: C_7  and  S_8
REMARK    4  A    between atoms: S_8  and  C_11
REMARK    5  A    between atoms: C_12  and  C_13
REMARK    6  A    between atoms: N_15  and  C_16
REMARK    7  A    between atoms: C_16  and  C_17
REMARK    8  A    between atoms: C_22  and  O_23
REMARK                            x       y       z     vdW  Elec       q    Type
REMARK                         _______ _______ _______ _____ _____    ______ ____
ROOT
ATOM      1  C   UNL     1      -0.712  11.495  20.517  0.00  0.00    +0.000 A 
ATOM      2  C   UNL     1      -1.084  11.465  21.863  0.00  0.00    +0.000 A 
ATOM      3  N   UNL     1      -0.410  10.388  22.417  0.00  0.00    +0.000 N 
ATOM      4  C   UNL     1       0.312   9.696  21.478  0.00  0.00    +0.000 A 
ATOM      5  C   UNL     1       1.080   8.529  21.603  0.00  0.00    +0.000 A 
ATOM      6  C   UNL     1       1.699   8.029  20.452  0.00  0.00    +0.000 A 
ATOM      7  C   UNL     1       1.565   8.685  19.236  0.00  0.00    +0.000 A 
ATOM      8 CL   UNL     1       2.305   8.039  17.821  0.00  0.00    +0.000 Cl
ATOM      9  C   UNL     1       0.820   9.861  19.136  0.00  0.00    +0.000 A 
ATOM     10  C   UNL     1       0.159  10.376  20.272  0.00  0.00    +0.000 A 
ATOM     11  H   UNL     1      -0.493  10.124  23.393  0.00  0.00    +0.000 HD
ENDROOT
BRANCH   2  12
ATOM     12  C   UNL     1      -1.940  12.254  22.743  0.00  0.00    +0.000 C 
ATOM     13  O   UNL     1      -1.504  12.714  23.793  0.00  0.00    +0.000 OA
ATOM     14  N   UNL     1      -3.249  12.373  22.383  0.00  0.00    +0.000 N 
ATOM     15  H   UNL     1      -3.572  11.970  21.506  0.00  0.00    +0.000 HD
BRANCH  14  16
ATOM     16  C   UNL     1      -4.252  13.095  23.144  0.00  0.00    +0.000 C 
BRANCH  16  17
ATOM     17  C   UNL     1      -5.501  13.335  22.332  0.00  0.00    +0.000 A 
ATOM     18  C   UNL     1      -5.450  14.168  21.203  0.00  0.00    +0.000 A 
ATOM     19  C   UNL     1      -6.593  14.406  20.434  0.00  0.00    +0.000 A 
ATOM     20  C   UNL     1      -7.807  13.820  20.786  0.00  0.00    +0.000 A 
ATOM     21  C   UNL     1      -7.879  12.995  21.908  0.00  0.00    +0.000 A 
ATOM     22  C   UNL     1      -6.733  12.759  22.670  0.00  0.00    +0.000 A 
BRANCH  22  23
ATOM     23  O   UNL     1      -6.803  11.939  23.761  0.00  0.00    +0.000 OA
ATOM     24  H   UNL     1      -5.905  11.655  23.997  0.00  0.00    +0.000 HD
ENDBRANCH  22  23
ENDBRANCH  16  17
ENDBRANCH  14  16
ENDBRANCH   2  12
BRANCH   1  25
ATOM     25  S   UNL     1      -1.146  12.625  19.261  0.00  0.00    +0.000 S 
ATOM     26  O   UNL     1       0.027  12.717  18.412  0.00  0.00    +0.000 OA
ATOM     27  O   UNL     1      -1.655  13.799  19.930  0.00  0.00    +0.000 OA
BRANCH  25  34
ATOM     28  C   UNL     1      -6.192  11.153  18.680  0.00  0.00    +0.000 C 
ATOM     29  C   UNL     1      -4.803  11.242  18.112  0.00  0.00    +0.000 A 
ATOM     30  C   UNL     1      -4.502  10.676  16.864  0.00  0.00    +0.000 A 
ATOM     31  C   UNL     1      -3.201  10.733  16.343  0.00  0.00    +0.000 A 
ATOM     32  C   UNL     1      -2.869  10.152  15.001  0.00  0.00    +0.000 C 
ATOM     33  C   UNL     1      -2.189  11.342  17.092  0.00  0.00    +0.000 A 
ATOM     34  C   UNL     1      -2.470  11.877  18.349  0.00  0.00    +0.000 A 
ATOM     35  C   UNL     1      -3.781  11.871  18.845  0.00  0.00    +0.000 A 
ENDBRANCH  25  34
ENDBRANCH   1  25
TORSDOF 6
ENDMDL
MODEL 6
REMARK VINA RESULT:      -7.7      3.927      8.109
REMARK  Name = 
REMARK  8 active torsions:
REMARK  status: ('A' for Active; 'I' for Inactive)
REMARK    1  A    between atoms: C_1  and  C_2
REMARK    2  A    between atoms: C_4  and  C_5
REMARK    3  A    between atoms: C_7  and  S_8
REMARK    4  A    between atoms: S_8  and  C_11
REMARK    5  A    between atoms: C_12  and  C_13
REMARK    6  A    between atoms: N_15  and  C_16
REMARK    7  A    between atoms: C_16  and  C_17
REMARK    8  A    between atoms: C_22  and  O_23
REMARK                            x       y       z     vdW  Elec       q    Type
REMARK                         _______ _______ _______ _____ _____    ______ ____
ROOT
ATOM      1  C   UNL     1      -0.575  11.434  19.160  0.00  0.00    +0.000 A 
ATOM      2  C   UNL     1       0.072  10.512  18.333  0.00  0.00    +0.000 A 
ATOM      3  N   UNL     1      -0.904  10.022  17.479  0.00  0.00    +0.000 N 
ATOM      4  C   UNL     1      -2.144  10.534  17.768  0.00  0.00    +0.000 A 
ATOM      5  C   UNL     1      -3.394  10.264  17.193  0.00  0.00    +0.000 A 
ATOM      6  C   UNL     1      -4.510  10.930  17.712  0.00  0.00    +0.000 A 
ATOM      7  C   UNL     1      -4.368  11.840  18.751  0.00  0.00    +0.000 A 
ATOM      8 CL   UNL     1      -5.755  12.627  19.403  0.00  0.00    +0.000 Cl
ATOM      9  C   UNL     1      -3.112  12.118  19.293  0.00  0.00    +0.000 A 
ATOM     10  C   UNL     1      -1.971  11.441  18.811  0.00  0.00    +0.000 A 
ATOM     11  H   UNL     1      -0.718   9.327  16.764  0.00  0.00    +0.000 HD
ENDROOT
BRANCH   2  12
ATOM     12  C   UNL     1       1.429  10.002  18.173  0.00  0.00    +0.000 C 
ATOM     13  O   UNL     1       2.369  10.769  17.994  0.00  0.00    +0.000 OA
ATOM     14  N   UNL     1       1.578   8.648  18.145  0.00  0.00    +0.000 N 
ATOM     15  H   UNL     1       0.771   8.045  18.291  0.00  0.00    +0.000 HD
BRANCH  14  16
ATOM     16  C   UNL     1       2.845   7.961  17.969  0.00  0.00    +0.000 C 
BRANCH  16  17
ATOM     17  C   UNL     1       2.804   6.563  18.538  0.00  0.00    +0.000 A 
ATOM     18  C   UNL     1       3.158   5.471  17.731  0.00  0.00    +0.000 A 
ATOM     19  C   UNL     1       3.127   4.167  18.234  0.00  0.00    +0.000 A 
ATOM     20  C   UNL     1       2.737   3.935  19.551  0.00  0.00    +0.000 A 
ATOM     21  C   UNL     1       2.376   5.006  20.367  0.00  0.00    +0.000 A 
ATOM     22  C   UNL     1       2.411   6.307  19.858  0.00  0.00    +0.000 A 
BRANCH  22  23
ATOM     23  O   UNL     1       2.070   7.357  20.664  0.00  0.00    +0.000 OA
ATOM     24  H   UNL     1       2.299   8.186  20.211  0.00  0.00    +0.000 HD
ENDBRANCH  22  23
ENDBRANCH  16  17
ENDBRANCH  14  16
ENDBRANCH   2  12
BRANCH   1  25
ATOM     25  S   UNL     1       0.073  12.456  20.416  0.00  0.00    +0.000 S 
ATOM     26  O   UNL     1       1.207  11.728  20.952  0.00  0.00    +0.000 OA
ATOM     27  O   UNL     1      -1.040  12.803  21.269  0.00  0.00    +0.000 OA
BRANCH  25  34
ATOM     28  C   UNL     1       3.866  15.431  18.242  0.00  0.00    +0.000 C 
ATOM     29  C   UNL     1       2.417  15.251  18.601  0.00  0.00    +0.000 A 
ATOM     30  C   UNL     1       1.489  16.276  18.365  0.00  0.00    +0.000 A 
ATOM     31  C   UNL     1       0.141  16.122  18.722  0.00  0.00    +0.000 A 
ATOM     32  C   UNL     1      -0.867  17.200  18.457  0.00  0.00    +0.000 C 
ATOM     33  C   UNL     1      -0.272  14.940  19.343  0.00  0.00    +0.000 A 
ATOM     34  C   UNL     1       0.650  13.929  19.615  0.00  0.00    +0.000 A 
ATOM     35  C   UNL     1       1.984  14.059  19.206  0.00  0.00    +0.000 A 
ENDBRANCH  25  34
ENDBRANCH   1  25
TORSDOF 6
ENDMDL
MODEL 7
REMARK VINA RESULT:      -7.7      0.924      1.255
REMARK  Name = 
REMARK  8 active torsions:
REMARK  status: ('A' for Active; 'I' for Inactive)
REMARK    1  A    between atoms: C_1  and  C_2
REMARK    2  A    between atoms: C_4  and  C_5
REMARK    3  A    between atoms: C_7  and  S_8
REMARK    4  A    between atoms: S_8  and  C_11
REMARK    5  A    between atoms: C_12  and  C_13
REMARK    6  A    between atoms: N_15  and  C_16
REMARK    7  A    between atoms: C_16  and  C_17
REMARK    8  A    between atoms: C_22  and  O_23
REMARK                            x       y       z     vdW  Elec       q    Type
REMARK                         _______ _______ _______ _____ _____    ______ ____
ROOT
ATOM      1  C   UNL     1      -0.568  11.658  20.464  0.00  0.00    +0.000 A 
ATOM      2  C   UNL     1      -0.909  11.760  21.815  0.00  0.00    +0.000 A 
ATOM      3  N   UNL     1      -0.296  10.686  22.441  0.00  0.00    +0.000 N 
ATOM      4  C   UNL     1       0.355   9.874  21.547  0.00  0.00    +0.000 A 
ATOM      5  C   UNL     1       1.045   8.670  21.751  0.00  0.00    +0.000 A 
ATOM      6  C   UNL     1       1.602   8.039  20.633  0.00  0.00    +0.000 A 
ATOM      7  C   UNL     1       1.483   8.605  19.371  0.00  0.00    +0.000 A 
ATOM      8 CL   UNL     1       2.144   7.800  17.999  0.00  0.00    +0.000 Cl
ATOM      9  C   UNL     1       0.817   9.818  19.190  0.00  0.00    +0.000 A 
ATOM     10  C   UNL     1       0.219  10.465  20.293  0.00  0.00    +0.000 A 
ATOM     11  H   UNL     1      -0.374  10.506  23.436  0.00  0.00    +0.000 HD
ENDROOT
BRANCH   2  12
ATOM     12  C   UNL     1      -1.688  12.673  22.644  0.00  0.00    +0.000 C 
ATOM     13  O   UNL     1      -1.319  12.961  23.777  0.00  0.00    +0.000 OA
ATOM     14  N   UNL     1      -2.873  13.110  22.131  0.00  0.00    +0.000 N 
ATOM     15  H   UNL     1      -3.148  12.842  21.188  0.00  0.00    +0.000 HD
BRANCH  14  16
ATOM     16  C   UNL     1      -3.793  13.998  22.819  0.00  0.00    +0.000 C 
BRANCH  16  17
ATOM     17  C   UNL     1      -5.200  13.453  22.816  0.00  0.00    +0.000 A 
ATOM     18  C   UNL     1      -5.997  13.585  21.668  0.00  0.00    +0.000 A 
ATOM     19  C   UNL     1      -7.304  13.090  21.641  0.00  0.00    +0.000 A 
ATOM     20  C   UNL     1      -7.836  12.459  22.763  0.00  0.00    +0.000 A 
ATOM     21  C   UNL     1      -7.062  12.324  23.915  0.00  0.00    +0.000 A 
ATOM     22  C   UNL     1      -5.756  12.819  23.935  0.00  0.00    +0.000 A 
BRANCH  22  23
ATOM     23  O   UNL     1      -4.995  12.673  25.060  0.00  0.00    +0.000 OA
ATOM     24  H   UNL     1      -4.109  12.369  24.801  0.00  0.00    +0.000 HD
ENDBRANCH  22  23
ENDBRANCH  16  17
ENDBRANCH  14  16
ENDBRANCH   2  12
BRANCH   1  25
ATOM     25  S   UNL     1      -0.954  12.713  19.129  0.00  0.00    +0.000 S 
ATOM     26  O   UNL     1       0.242  12.740  18.309  0.00  0.00    +0.000 OA
ATOM     27  O   UNL     1      -1.468  13.931  19.711  0.00  0.00    +0.000 OA
BRANCH  25  34
ATOM     28  C   UNL     1      -2.868  10.173  14.903  0.00  0.00    +0.000 C 
ATOM     29  C   UNL     1      -3.093  10.734  16.280  0.00  0.00    +0.000 A 
ATOM     30  C   UNL     1      -4.367  10.702  16.867  0.00  0.00    +0.000 A 
ATOM     31  C   UNL     1      -4.586  11.249  18.140  0.00  0.00    +0.000 A 
ATOM     32  C   UNL     1      -5.937  11.202  18.789  0.00  0.00    +0.000 C 
ATOM     33  C   UNL     1      -3.524  11.853  18.818  0.00  0.00    +0.000 A 
ATOM     34  C   UNL     1      -2.262  11.923  18.229  0.00  0.00    +0.000 A 
ATOM     35  C   UNL     1      -2.029  11.326  16.982  0.00  0.00    +0.000 A 
ENDBRANCH  25  34
ENDBRANCH   1  25
TORSDOF 6
ENDMDL
MODEL 8
REMARK VINA RESULT:      -7.6      4.001      8.248
REMARK  Name = 
REMARK  8 active torsions:
REMARK  status: ('A' for Active; 'I' for Inactive)
REMARK    1  A    between atoms: C_1  and  C_2
REMARK    2  A    between atoms: C_4  and  C_5
REMARK    3  A    between atoms: C_7  and  S_8
REMARK    4  A    between atoms: S_8  and  C_11
REMARK    5  A    between atoms: C_12  and  C_13
REMARK    6  A    between atoms: N_15  and  C_16
REMARK    7  A    between atoms: C_16  and  C_17
REMARK    8  A    between atoms: C_22  and  O_23
REMARK                            x       y       z     vdW  Elec       q    Type
REMARK                         _______ _______ _______ _____ _____    ______ ____
ROOT
ATOM      1  C   UNL     1      -0.489  11.084  19.146  0.00  0.00    +0.000 A 
ATOM      2  C   UNL     1       0.088  10.127  18.307  0.00  0.00    +0.000 A 
ATOM      3  N   UNL     1      -0.902   9.773  17.403  0.00  0.00    +0.000 N 
ATOM      4  C   UNL     1      -2.091  10.403  17.670  0.00  0.00    +0.000 A 
ATOM      5  C   UNL     1      -3.340  10.287  17.042  0.00  0.00    +0.000 A 
ATOM      6  C   UNL     1      -4.398  11.050  17.548  0.00  0.00    +0.000 A 
ATOM      7  C   UNL     1      -4.201  11.904  18.625  0.00  0.00    +0.000 A 
ATOM      8 CL   UNL     1      -5.521  12.811  19.258  0.00  0.00    +0.000 Cl
ATOM      9  C   UNL     1      -2.944  12.028  19.219  0.00  0.00    +0.000 A 
ATOM     10  C   UNL     1      -1.863  11.251  18.751  0.00  0.00    +0.000 A 
ATOM     11  H   UNL     1      -0.762   9.086  16.669  0.00  0.00    +0.000 HD
ENDROOT
BRANCH   2  12
ATOM     12  C   UNL     1       1.389   9.482  18.175  0.00  0.00    +0.000 C 
ATOM     13  O   UNL     1       2.275   9.992  17.497  0.00  0.00    +0.000 OA
ATOM     14  N   UNL     1       1.532   8.260  18.761  0.00  0.00    +0.000 N 
ATOM     15  H   UNL     1       0.770   7.868  19.310  0.00  0.00    +0.000 HD
BRANCH  14  16
ATOM     16  C   UNL     1       2.742   7.459  18.714  0.00  0.00    +0.000 C 
BRANCH  16  17
ATOM     17  C   UNL     1       2.445   5.990  18.899  0.00  0.00    +0.000 A 
ATOM     18  C   UNL     1       2.561   5.112  17.809  0.00  0.00    +0.000 A 
ATOM     19  C   UNL     1       2.291   3.748  17.955  0.00  0.00    +0.000 A 
ATOM     20  C   UNL     1       1.894   3.242  19.191  0.00  0.00    +0.000 A 
ATOM     21  C   UNL     1       1.767   4.100  20.283  0.00  0.00    +0.000 A 
ATOM     22  C   UNL     1       2.041   5.461  20.132  0.00  0.00    +0.000 A 
BRANCH  22  23
ATOM     23  O   UNL     1       1.929   6.297  21.207  0.00  0.00    +0.000 OA
ATOM     24  H   UNL     1       2.570   6.023  21.884  0.00  0.00    +0.000 HD
ENDBRANCH  22  23
ENDBRANCH  16  17
ENDBRANCH  14  16
ENDBRANCH   2  12
BRANCH   1  25
ATOM     25  S   UNL     1       0.214  11.989  20.461  0.00  0.00    +0.000 S 
ATOM     26  O   UNL     1       1.319  11.176  20.933  0.00  0.00    +0.000 OA
ATOM     27  O   UNL     1      -0.874  12.326  21.349  0.00  0.00    +0.000 OA
BRANCH  25  34
ATOM     28  C   UNL     1      -0.386  16.793  18.334  0.00  0.00    +0.000 C 
ATOM     29  C   UNL     1       0.530  15.699  18.807  0.00  0.00    +0.000 A 
ATOM     30  C   UNL     1       1.919  15.808  18.643  0.00  0.00    +0.000 A 
ATOM     31  C   UNL     1       2.776  14.778  19.058  0.00  0.00    +0.000 A 
ATOM     32  C   UNL     1       4.264  14.890  18.910  0.00  0.00    +0.000 C 
ATOM     33  C   UNL     1       2.232  13.620  19.620  0.00  0.00    +0.000 A 
ATOM     34  C   UNL     1       0.850  13.485  19.755  0.00  0.00    +0.000 A 
ATOM     35  C   UNL     1      -0.002  14.538  19.393  0.00  0.00    +0.000 A 
ENDBRANCH  25  34
ENDBRANCH   1  25
TORSDOF 6
ENDMDL
MODEL 9
REMARK VINA RESULT:      -7.4      3.934      8.259
REMARK  Name = 
REMARK  8 active torsions:
REMARK  status: ('A' for Active; 'I' for Inactive)
REMARK    1  A    between atoms: C_1  and  C_2
REMARK    2  A    between atoms: C_4  and  C_5
REMARK    3  A    between atoms: C_7  and  S_8
REMARK    4  A    between atoms: S_8  and  C_11
REMARK    5  A    between atoms: C_12  and  C_13
REMARK    6  A    between atoms: N_15  and  C_16
REMARK    7  A    between atoms: C_16  and  C_17
REMARK    8  A    between atoms: C_22  and  O_23
REMARK                            x       y       z     vdW  Elec       q    Type
REMARK                         _______ _______ _______ _____ _____    ______ ____
ROOT
ATOM      1  C   UNL     1      -0.442  10.804  19.403  0.00  0.00    +0.000 A 
ATOM      2  C   UNL     1       0.119  10.041  18.377  0.00  0.00    +0.000 A 
ATOM      3  N   UNL     1      -0.822  10.026  17.359  0.00  0.00    +0.000 N 
ATOM      4  C   UNL     1      -1.974  10.681  17.716  0.00  0.00    +0.000 A 
ATOM      5  C   UNL     1      -3.176  10.849  17.014  0.00  0.00    +0.000 A 
ATOM      6  C   UNL     1      -4.206  11.557  17.642  0.00  0.00    +0.000 A 
ATOM      7  C   UNL     1      -4.025  12.087  18.913  0.00  0.00    +0.000 A 
ATOM      8 CL   UNL     1      -5.313  12.927  19.688  0.00  0.00    +0.000 Cl
ATOM      9  C   UNL     1      -2.812  11.933  19.586  0.00  0.00    +0.000 A 
ATOM     10  C   UNL     1      -1.763  11.199  18.991  0.00  0.00    +0.000 A 
ATOM     11  H   UNL     1      -0.681   9.538  16.481  0.00  0.00    +0.000 HD
ENDROOT
BRANCH   2  12
ATOM     12  C   UNL     1       1.372   9.327  18.152  0.00  0.00    +0.000 C 
ATOM     13  O   UNL     1       2.212   9.766  17.373  0.00  0.00    +0.000 OA
ATOM     14  N   UNL     1       1.514   8.124  18.775  0.00  0.00    +0.000 N 
ATOM     15  H   UNL     1       0.791   7.791  19.408  0.00  0.00    +0.000 HD
BRANCH  14  16
ATOM     16  C   UNL     1       2.676   7.262  18.649  0.00  0.00    +0.000 C 
BRANCH  16  17
ATOM     17  C   UNL     1       2.322   5.813  18.883  0.00  0.00    +0.000 A 
ATOM     18  C   UNL     1       2.307   4.916  17.803  0.00  0.00    +0.000 A 
ATOM     19  C   UNL     1       1.982   3.570  17.994  0.00  0.00    +0.000 A 
ATOM     20  C   UNL     1       1.662   3.101  19.266  0.00  0.00    +0.000 A 
ATOM     21  C   UNL     1       1.665   3.978  20.350  0.00  0.00    +0.000 A 
ATOM     22  C   UNL     1       1.993   5.322  20.153  0.00  0.00    +0.000 A 
BRANCH  22  23
ATOM     23  O   UNL     1       2.010   6.176  21.219  0.00  0.00    +0.000 OA
ATOM     24  H   UNL     1       2.857   6.080  21.684  0.00  0.00    +0.000 HD
ENDBRANCH  22  23
ENDBRANCH  16  17
ENDBRANCH  14  16
ENDBRANCH   2  12
BRANCH   1  25
ATOM     25  S   UNL     1       0.228  11.273  20.944  0.00  0.00    +0.000 S 
ATOM     26  O   UNL     1       1.190  10.238  21.270  0.00  0.00    +0.000 OA
ATOM     27  O   UNL     1      -0.897  11.525  21.815  0.00  0.00    +0.000 OA
BRANCH  25  34
ATOM     28  C   UNL     1       3.661  14.322  18.320  0.00  0.00    +0.000 C 
ATOM     29  C   UNL     1       2.650  14.175  19.423  0.00  0.00    +0.000 A 
ATOM     30  C   UNL     1       2.402  15.233  20.311  0.00  0.00    +0.000 A 
ATOM     31  C   UNL     1       1.479  15.091  21.358  0.00  0.00    +0.000 A 
ATOM     32  C   UNL     1       1.186  16.219  22.302  0.00  0.00    +0.000 C 
ATOM     33  C   UNL     1       0.818  13.871  21.529  0.00  0.00    +0.000 A 
ATOM     34  C   UNL     1       1.084  12.802  20.673  0.00  0.00    +0.000 A 
ATOM     35  C   UNL     1       1.963  12.961  19.593  0.00  0.00    +0.000 A 
ENDBRANCH  25  34
ENDBRANCH   1  25
TORSDOF 6
ENDMDL
