MODEL 1
REMARK VINA RESULT:      -6.5      0.000      0.000
REMARK  Name = 
REMARK  1 active torsions:
REMARK  status: ('A' for Active; 'I' for Inactive)
REMARK    1  A    between atoms: N_3  and  C_4
REMARK                            x       y       z     vdW  Elec       q    Type
REMARK                         _______ _______ _______ _____ _____    ______ ____
ROOT
ATOM      1  C   UNL     1       5.025   4.797  16.894  0.00  0.00    +0.000 C 
ATOM      2  C   UNL     1       4.806   6.278  16.543  0.00  0.00    +0.000 C 
ATOM      3  C   UNL     1       4.015   7.001  17.628  0.00  0.00    +0.000 C 
ATOM      4  C   UNL     1       2.635   6.370  17.804  0.00  0.00    +0.000 C 
ATOM      5  C   UNL     1       2.676   4.865  17.901  0.00  0.00    +0.000 A 
ATOM      6  C   UNL     1       1.567   4.187  18.428  0.00  0.00    +0.000 A 
ATOM      7  C   UNL     1       1.552   2.793  18.500  0.00  0.00    +0.000 A 
ATOM      8  C   UNL     1       2.634   2.060  18.027  0.00  0.00    +0.000 A 
ATOM      9  C   UNL     1       3.737   2.721  17.486  0.00  0.00    +0.000 A 
ATOM     10  C   UNL     1       3.770   4.125  17.417  0.00  0.00    +0.000 A 
ENDROOT
BRANCH   1  13
ATOM     11  O   UNL     1       7.852   4.560  16.427  0.00  0.00    +0.000 OA
ATOM     12  C   UNL     1       7.393   4.527  17.558  0.00  0.00    +0.000 C 
ATOM     13  N   UNL     1       6.073   4.641  17.891  0.00  0.00    +0.000 N 
ATOM     14  H   UNL     1       5.801   4.586  18.864  0.00  0.00    +0.000 HD
ENDBRANCH   1  13
TORSDOF 1
ENDMDL
MODEL 2
REMARK VINA RESULT:      -6.2      1.450      1.467
REMARK  Name = 
REMARK  1 active torsions:
REMARK  status: ('A' for Active; 'I' for Inactive)
REMARK    1  A    between atoms: N_3  and  C_4
REMARK                            x       y       z     vdW  Elec       q    Type
REMARK                         _______ _______ _______ _____ _____    ______ ____
ROOT
ATOM      1  C   UNL     1       5.197   4.384  17.787  0.00  0.00    +0.000 C 
ATOM      2  C   UNL     1       4.850   5.487  16.773  0.00  0.00    +0.000 C 
ATOM      3  C   UNL     1       4.239   6.706  17.458  0.00  0.00    +0.000 C 
ATOM      4  C   UNL     1       2.946   6.332  18.179  0.00  0.00    +0.000 C 
ATOM      5  C   UNL     1       3.073   5.088  19.023  0.00  0.00    +0.000 A 
ATOM      6  C   UNL     1       2.112   4.838  20.015  0.00  0.00    +0.000 A 
ATOM      7  C   UNL     1       2.174   3.681  20.792  0.00  0.00    +0.000 A 
ATOM      8  C   UNL     1       3.184   2.750  20.574  0.00  0.00    +0.000 A 
ATOM      9  C   UNL     1       4.136   2.978  19.581  0.00  0.00    +0.000 A 
ATOM     10  C   UNL     1       4.092   4.145  18.798  0.00  0.00    +0.000 A 
ENDROOT
BRANCH   1  13
ATOM     11  O   UNL     1       7.885   4.379  16.765  0.00  0.00    +0.000 OA
ATOM     12  C   UNL     1       7.652   4.659  17.931  0.00  0.00    +0.000 C 
ATOM     13  N   UNL     1       6.417   4.701  18.514  0.00  0.00    +0.000 N 
ATOM     14  H   UNL     1       6.340   4.932  19.496  0.00  0.00    +0.000 HD
ENDBRANCH   1  13
TORSDOF 1
ENDMDL
MODEL 3
REMARK VINA RESULT:      -6.1      2.632      4.492
REMARK  Name = 
REMARK  1 active torsions:
REMARK  status: ('A' for Active; 'I' for Inactive)
REMARK    1  A    between atoms: N_3  and  C_4
REMARK                            x       y       z     vdW  Elec       q    Type
REMARK                         _______ _______ _______ _____ _____    ______ ____
ROOT
ATOM      1  C   UNL     1       4.584   4.530  19.643  0.00  0.00    +0.000 C 
ATOM      2  C   UNL     1       3.123   4.854  19.289  0.00  0.00    +0.000 C 
ATOM      3  C   UNL     1       2.944   5.073  17.789  0.00  0.00    +0.000 C 
ATOM      4  C   UNL     1       3.796   6.245  17.308  0.00  0.00    +0.000 C 
ATOM      5  C   UNL     1       5.218   6.194  17.809  0.00  0.00    +0.000 A 
ATOM      6  C   UNL     1       6.195   6.970  17.166  0.00  0.00    +0.000 A 
ATOM      7  C   UNL     1       7.514   6.978  17.622  0.00  0.00    +0.000 A 
ATOM      8  C   UNL     1       7.869   6.227  18.737  0.00  0.00    +0.000 A 
ATOM      9  C   UNL     1       6.905   5.464  19.395  0.00  0.00    +0.000 A 
ATOM     10  C   UNL     1       5.574   5.439  18.941  0.00  0.00    +0.000 A 
ENDROOT
BRANCH   1  13
ATOM     11  O   UNL     1       4.001   2.175  21.186  0.00  0.00    +0.000 OA
ATOM     12  C   UNL     1       4.598   2.103  20.123  0.00  0.00    +0.000 C 
ATOM     13  N   UNL     1       4.915   3.153  19.308  0.00  0.00    +0.000 N 
ATOM     14  H   UNL     1       5.425   2.980  18.453  0.00  0.00    +0.000 HD
ENDBRANCH   1  13
TORSDOF 1
ENDMDL
MODEL 4
REMARK VINA RESULT:      -6.0      2.581      4.089
REMARK  Name = 
REMARK  1 active torsions:
REMARK  status: ('A' for Active; 'I' for Inactive)
REMARK    1  A    between atoms: N_3  and  C_4
REMARK                            x       y       z     vdW  Elec       q    Type
REMARK                         _______ _______ _______ _____ _____    ______ ____
ROOT
ATOM      1  C   UNL     1       3.095   4.592  18.595  0.00  0.00    +0.000 C 
ATOM      2  C   UNL     1       2.771   5.835  19.440  0.00  0.00    +0.000 C 
ATOM      3  C   UNL     1       2.484   7.050  18.563  0.00  0.00    +0.000 C 
ATOM      4  C   UNL     1       3.697   7.394  17.701  0.00  0.00    +0.000 C 
ATOM      5  C   UNL     1       4.292   6.195  17.004  0.00  0.00    +0.000 A 
ATOM      6  C   UNL     1       5.150   6.400  15.912  0.00  0.00    +0.000 A 
ATOM      7  C   UNL     1       5.749   5.318  15.265  0.00  0.00    +0.000 A 
ATOM      8  C   UNL     1       5.515   4.023  15.712  0.00  0.00    +0.000 A 
ATOM      9  C   UNL     1       4.677   3.807  16.806  0.00  0.00    +0.000 A 
ATOM     10  C   UNL     1       4.060   4.886  17.462  0.00  0.00    +0.000 A 
ENDROOT
BRANCH   1  13
ATOM     11  O   UNL     1       1.851   2.102  19.317  0.00  0.00    +0.000 OA
ATOM     12  C   UNL     1       1.385   2.811  18.437  0.00  0.00    +0.000 C 
ATOM     13  N   UNL     1       1.888   4.012  18.025  0.00  0.00    +0.000 N 
ATOM     14  H   UNL     1       1.428   4.511  17.275  0.00  0.00    +0.000 HD
ENDBRANCH   1  13
TORSDOF 1
ENDMDL
MODEL 5
REMARK VINA RESULT:      -6.0      1.895      2.038
REMARK  Name = 
REMARK  1 active torsions:
REMARK  status: ('A' for Active; 'I' for Inactive)
REMARK    1  A    between atoms: N_3  and  C_4
REMARK                            x       y       z     vdW  Elec       q    Type
REMARK                         _______ _______ _______ _____ _____    ______ ____
ROOT
ATOM      1  C   UNL     1       4.701   4.393  18.599  0.00  0.00    +0.000 C 
ATOM      2  C   UNL     1       4.303   5.164  17.330  0.00  0.00    +0.000 C 
ATOM      3  C   UNL     1       3.221   6.201  17.620  0.00  0.00    +0.000 C 
ATOM      4  C   UNL     1       1.958   5.530  18.157  0.00  0.00    +0.000 C 
ATOM      5  C   UNL     1       2.234   4.531  19.253  0.00  0.00    +0.000 A 
ATOM      6  C   UNL     1       1.179   4.123  20.083  0.00  0.00    +0.000 A 
ATOM      7  C   UNL     1       1.386   3.173  21.084  0.00  0.00    +0.000 A 
ATOM      8  C   UNL     1       2.643   2.604  21.254  0.00  0.00    +0.000 A 
ATOM      9  C   UNL     1       3.697   2.988  20.426  0.00  0.00    +0.000 A 
ATOM     10  C   UNL     1       3.505   3.951  19.419  0.00  0.00    +0.000 A 
ENDROOT
BRANCH   1  13
ATOM     11  O   UNL     1       7.556   4.679  18.405  0.00  0.00    +0.000 OA
ATOM     12  C   UNL     1       6.921   5.251  19.277  0.00  0.00    +0.000 C 
ATOM     13  N   UNL     1       5.567   5.193  19.452  0.00  0.00    +0.000 N 
ATOM     14  H   UNL     1       5.145   5.699  20.219  0.00  0.00    +0.000 HD
ENDBRANCH   1  13
TORSDOF 1
ENDMDL
MODEL 6
REMARK VINA RESULT:      -6.0      1.637      2.265
REMARK  Name = 
REMARK  1 active torsions:
REMARK  status: ('A' for Active; 'I' for Inactive)
REMARK    1  A    between atoms: N_3  and  C_4
REMARK                            x       y       z     vdW  Elec       q    Type
REMARK                         _______ _______ _______ _____ _____    ______ ____
ROOT
ATOM      1  C   UNL     1       3.145   5.979  17.805  0.00  0.00    +0.000 C 
ATOM      2  C   UNL     1       2.514   7.153  18.572  0.00  0.00    +0.000 C 
ATOM      3  C   UNL     1       2.406   6.855  20.064  0.00  0.00    +0.000 C 
ATOM      4  C   UNL     1       1.527   5.631  20.310  0.00  0.00    +0.000 C 
ATOM      5  C   UNL     1       1.872   4.462  19.421  0.00  0.00    +0.000 A 
ATOM      6  C   UNL     1       1.422   3.181  19.776  0.00  0.00    +0.000 A 
ATOM      7  C   UNL     1       1.689   2.080  18.961  0.00  0.00    +0.000 A 
ATOM      8  C   UNL     1       2.389   2.248  17.772  0.00  0.00    +0.000 A 
ATOM      9  C   UNL     1       2.829   3.518  17.399  0.00  0.00    +0.000 A 
ATOM     10  C   UNL     1       2.576   4.635  18.216  0.00  0.00    +0.000 A 
ENDROOT
BRANCH   1  13
ATOM     11  O   UNL     1       5.172   6.775  15.927  0.00  0.00    +0.000 OA
ATOM     12  C   UNL     1       5.467   6.335  17.028  0.00  0.00    +0.000 C 
ATOM     13  N   UNL     1       4.587   5.939  17.995  0.00  0.00    +0.000 N 
ATOM     14  H   UNL     1       4.943   5.576  18.869  0.00  0.00    +0.000 HD
ENDBRANCH   1  13
TORSDOF 1
ENDMDL
MODEL 7
REMARK VINA RESULT:      -6.0      1.053      1.079
REMARK  Name = 
REMARK  1 active torsions:
REMARK  status: ('A' for Active; 'I' for Inactive)
REMARK    1  A    between atoms: N_3  and  C_4
REMARK                            x       y       z     vdW  Elec       q    Type
REMARK                         _______ _______ _______ _____ _____    ______ ____
ROOT
ATOM      1  C   UNL     1       4.878   5.304  17.785  0.00  0.00    +0.000 C 
ATOM      2  C   UNL     1       4.400   6.706  17.375  0.00  0.00    +0.000 C 
ATOM      3  C   UNL     1       3.170   7.134  18.170  0.00  0.00    +0.000 C 
ATOM      4  C   UNL     1       2.008   6.173  17.930  0.00  0.00    +0.000 C 
ATOM      5  C   UNL     1       2.403   4.721  18.045  0.00  0.00    +0.000 A 
ATOM      6  C   UNL     1       1.400   3.755  18.221  0.00  0.00    +0.000 A 
ATOM      7  C   UNL     1       1.722   2.399  18.294  0.00  0.00    +0.000 A 
ATOM      8  C   UNL     1       3.045   1.990  18.171  0.00  0.00    +0.000 A 
ATOM      9  C   UNL     1       4.050   2.938  17.979  0.00  0.00    +0.000 A 
ATOM     10  C   UNL     1       3.741   4.309  17.914  0.00  0.00    +0.000 A 
ENDROOT
BRANCH   1  13
ATOM     11  O   UNL     1       7.700   5.699  18.177  0.00  0.00    +0.000 OA
ATOM     12  C   UNL     1       6.947   5.526  19.124  0.00  0.00    +0.000 C 
ATOM     13  N   UNL     1       5.596   5.340  19.050  0.00  0.00    +0.000 N 
ATOM     14  H   UNL     1       5.069   5.192  19.901  0.00  0.00    +0.000 HD
ENDBRANCH   1  13
TORSDOF 1
ENDMDL
MODEL 8
REMARK VINA RESULT:      -5.9      2.102      3.125
REMARK  Name = 
REMARK  1 active torsions:
REMARK  status: ('A' for Active; 'I' for Inactive)
REMARK    1  A    between atoms: N_3  and  C_4
REMARK                            x       y       z     vdW  Elec       q    Type
REMARK                         _______ _______ _______ _____ _____    ______ ____
ROOT
ATOM      1  C   UNL     1       6.958   5.592  17.107  0.00  0.00    +0.000 C 
ATOM      2  C   UNL     1       7.349   4.837  15.827  0.00  0.00    +0.000 C 
ATOM      3  C   UNL     1       6.186   4.761  14.842  0.00  0.00    +0.000 C 
ATOM      4  C   UNL     1       5.001   4.021  15.460  0.00  0.00    +0.000 C 
ATOM      5  C   UNL     1       4.665   4.492  16.853  0.00  0.00    +0.000 A 
ATOM      6  C   UNL     1       3.405   4.184  17.390  0.00  0.00    +0.000 A 
ATOM      7  C   UNL     1       3.071   4.570  18.689  0.00  0.00    +0.000 A 
ATOM      8  C   UNL     1       3.996   5.249  19.474  0.00  0.00    +0.000 A 
ATOM      9  C   UNL     1       5.258   5.548  18.958  0.00  0.00    +0.000 A 
ATOM     10  C   UNL     1       5.605   5.173  17.648  0.00  0.00    +0.000 A 
ENDROOT
BRANCH   1  13
ATOM     11  O   UNL     1       8.402   7.606  18.566  0.00  0.00    +0.000 OA
ATOM     12  C   UNL     1       7.655   7.904  17.647  0.00  0.00    +0.000 C 
ATOM     13  N   UNL     1       6.933   7.030  16.884  0.00  0.00    +0.000 N 
ATOM     14  H   UNL     1       6.333   7.389  16.153  0.00  0.00    +0.000 HD
ENDBRANCH   1  13
TORSDOF 1
ENDMDL
MODEL 9
REMARK VINA RESULT:      -5.9      2.258      3.861
REMARK  Name = 
REMARK  1 active torsions:
REMARK  status: ('A' for Active; 'I' for Inactive)
REMARK    1  A    between atoms: N_3  and  C_4
REMARK                            x       y       z     vdW  Elec       q    Type
REMARK                         _______ _______ _______ _____ _____    ______ ____
ROOT
ATOM      1  C   UNL     1       3.963   4.117  18.423  0.00  0.00    +0.000 C 
ATOM      2  C   UNL     1       3.584   5.277  19.358  0.00  0.00    +0.000 C 
ATOM      3  C   UNL     1       2.987   6.449  18.585  0.00  0.00    +0.000 C 
ATOM      4  C   UNL     1       3.990   6.996  17.572  0.00  0.00    +0.000 C 
ATOM      5  C   UNL     1       4.649   5.919  16.745  0.00  0.00    +0.000 A 
ATOM      6  C   UNL     1       5.292   6.277  15.550  0.00  0.00    +0.000 A 
ATOM      7  C   UNL     1       5.944   5.316  14.777  0.00  0.00    +0.000 A 
ATOM      8  C   UNL     1       5.981   3.991  15.198  0.00  0.00    +0.000 A 
ATOM      9  C   UNL     1       5.360   3.625  16.392  0.00  0.00    +0.000 A 
ATOM     10  C   UNL     1       4.690   4.581  17.176  0.00  0.00    +0.000 A 
ENDROOT
BRANCH   1  13
ATOM     11  O   UNL     1       3.614   1.263  18.472  0.00  0.00    +0.000 OA
ATOM     12  C   UNL     1       2.729   2.002  18.066  0.00  0.00    +0.000 C 
ATOM     13  N   UNL     1       2.787   3.366  18.010  0.00  0.00    +0.000 N 
ATOM     14  H   UNL     1       1.998   3.880  17.642  0.00  0.00    +0.000 HD
ENDBRANCH   1  13
TORSDOF 1
ENDMDL
