MODEL 1
REMARK VINA RESULT:      -9.0      0.000      0.000
REMARK  Name = 
REMARK  5 active torsions:
REMARK  status: ('A' for Active; 'I' for Inactive)
REMARK    1  A    between atoms: C_2  and  C_21
REMARK    2  A    between atoms: N_3  and  C_4
REMARK    3  A    between atoms: C_7  and  S_8
REMARK    4  A    between atoms: S_8  and  N_11
REMARK    5  A    between atoms: N_11  and  C_12
REMARK                            x       y       z     vdW  Elec       q    Type
REMARK                         _______ _______ _______ _____ _____    ______ ____
ROOT
ATOM      1  C   UNL     1       2.476   7.425  18.542  0.00  0.00    +0.000 A 
ATOM      2  C   UNL     1       3.241   7.313  17.376  0.00  0.00    +0.000 A 
ATOM      3  C   UNL     1       4.349   6.469  17.327  0.00  0.00    +0.000 A 
ATOM      4  C   UNL     1       4.701   5.730  18.451  0.00  0.00    +0.000 A 
ATOM      5  C   UNL     1       3.937   5.809  19.620  0.00  0.00    +0.000 A 
ATOM      6  C   UNL     1       2.837   6.674  19.668  0.00  0.00    +0.000 A 
ENDROOT
BRANCH   1   9
ATOM      7  O   UNL     1       2.157  10.181  17.592  0.00  0.00    +0.000 OA
ATOM      8  C   UNL     1       1.269   9.574  18.184  0.00  0.00    +0.000 C 
ATOM      9  N   UNL     1       1.353   8.274  18.645  0.00  0.00    +0.000 N 
ATOM     10  H   UNL     1       0.507   7.849  19.006  0.00  0.00    +0.000 HD
BRANCH   8  11
ATOM     11  C   UNL     1      -0.004  10.316  18.428  0.00  0.00    +0.000 A 
ATOM     12  C   UNL     1      -1.093   9.931  17.621  0.00  0.00    +0.000 A 
ATOM     13  C   UNL     1      -2.352  10.513  17.777  0.00  0.00    +0.000 A 
ATOM     14  C   UNL     1      -2.537  11.487  18.751  0.00  0.00    +0.000 A 
ATOM     15 CL   UNL     1      -4.088  12.192  18.970  0.00  0.00    +0.000 Cl
ATOM     16  C   UNL     1      -1.474  11.887  19.558  0.00  0.00    +0.000 A 
ATOM     17  C   UNL     1      -0.208  11.304  19.403  0.00  0.00    +0.000 A 
ATOM     18 CL   UNL     1       1.019  11.846  20.493  0.00  0.00    +0.000 Cl
ENDBRANCH   8  11
ENDBRANCH   1   9
BRANCH   4  19
ATOM     19  S   UNL     1       6.151   4.708  18.396  0.00  0.00    +0.000 S 
ATOM     20  O   UNL     1       6.508   4.489  17.011  0.00  0.00    +0.000 OA
ATOM     21  O   UNL     1       7.108   5.243  19.342  0.00  0.00    +0.000 OA
BRANCH  19  22
ATOM     22  N   UNL     1       5.587   3.273  19.064  0.00  0.00    +0.000 N 
ATOM     23  H   UNL     1       6.286   2.555  19.241  0.00  0.00    +0.000 HD
BRANCH  22  24
ATOM     24  C   UNL     1       4.214   2.952  18.969  0.00  0.00    +0.000 A 
ATOM     25  C   UNL     1       3.624   2.737  17.725  0.00  0.00    +0.000 A 
ATOM     26  C   UNL     1       2.253   2.484  17.645  0.00  0.00    +0.000 A 
ATOM     27  C   UNL     1       1.481   2.450  18.808  0.00  0.00    +0.000 A 
ATOM     28  C   UNL     1       2.085   2.653  20.047  0.00  0.00    +0.000 A 
ATOM     29 CL   UNL     1       1.132   2.637  21.480  0.00  0.00    +0.000 Cl
ATOM     30  C   UNL     1       3.454   2.888  20.136  0.00  0.00    +0.000 A 
ENDBRANCH  22  24
ENDBRANCH  19  22
ENDBRANCH   4  19
TORSDOF 5
ENDMDL
MODEL 2
REMARK VINA RESULT:      -8.9      2.943      4.073
REMARK  Name = 
REMARK  5 active torsions:
REMARK  status: ('A' for Active; 'I' for Inactive)
REMARK    1  A    between atoms: C_2  and  C_21
REMARK    2  A    between atoms: N_3  and  C_4
REMARK    3  A    between atoms: C_7  and  S_8
REMARK    4  A    between atoms: S_8  and  N_11
REMARK    5  A    between atoms: N_11  and  C_12
REMARK                            x       y       z     vdW  Elec       q    Type
REMARK                         _______ _______ _______ _____ _____    ______ ____
ROOT
ATOM      1  C   UNL     1       2.171   7.656  19.005  0.00  0.00    +0.000 A 
ATOM      2  C   UNL     1       2.247   6.934  20.201  0.00  0.00    +0.000 A 
ATOM      3  C   UNL     1       2.694   5.614  20.213  0.00  0.00    +0.000 A 
ATOM      4  C   UNL     1       3.068   5.005  19.020  0.00  0.00    +0.000 A 
ATOM      5  C   UNL     1       3.023   5.715  17.816  0.00  0.00    +0.000 A 
ATOM      6  C   UNL     1       2.554   7.033  17.809  0.00  0.00    +0.000 A 
ENDROOT
BRANCH   1   9
ATOM      7  O   UNL     1       0.129   8.984  20.637  0.00  0.00    +0.000 OA
ATOM      8  C   UNL     1       0.735   9.556  19.734  0.00  0.00    +0.000 C 
ATOM      9  N   UNL     1       1.714   8.989  18.940  0.00  0.00    +0.000 N 
ATOM     10  H   UNL     1       2.224   9.603  18.315  0.00  0.00    +0.000 HD
BRANCH   8  11
ATOM     11  C   UNL     1       0.371  10.980  19.478  0.00  0.00    +0.000 A 
ATOM     12  C   UNL     1       1.153  11.937  20.156  0.00  0.00    +0.000 A 
ATOM     13  C   UNL     1       0.947  13.305  19.969  0.00  0.00    +0.000 A 
ATOM     14  C   UNL     1      -0.045  13.732  19.094  0.00  0.00    +0.000 A 
ATOM     15 CL   UNL     1      -0.291  15.413  18.837  0.00  0.00    +0.000 Cl
ATOM     16  C   UNL     1      -0.833  12.805  18.416  0.00  0.00    +0.000 A 
ATOM     17  C   UNL     1      -0.628  11.430  18.601  0.00  0.00    +0.000 A 
ATOM     18 CL   UNL     1      -1.635  10.377  17.669  0.00  0.00    +0.000 Cl
ENDBRANCH   8  11
ENDBRANCH   1   9
BRANCH   4  19
ATOM     19  S   UNL     1       3.575   3.304  19.040  0.00  0.00    +0.000 S 
ATOM     20  O   UNL     1       2.997   2.665  20.203  0.00  0.00    +0.000 OA
ATOM     21  O   UNL     1       3.376   2.765  17.711  0.00  0.00    +0.000 OA
BRANCH  19  22
ATOM     22  N   UNL     1       5.237   3.442  19.243  0.00  0.00    +0.000 N 
ATOM     23  H   UNL     1       5.616   3.072  20.112  0.00  0.00    +0.000 HD
BRANCH  22  24
ATOM     24  C   UNL     1       5.958   4.379  18.470  0.00  0.00    +0.000 A 
ATOM     25  C   UNL     1       6.552   5.486  19.074  0.00  0.00    +0.000 A 
ATOM     26  C   UNL     1       7.206   6.436  18.288  0.00  0.00    +0.000 A 
ATOM     27  C   UNL     1       7.261   6.275  16.902  0.00  0.00    +0.000 A 
ATOM     28  C   UNL     1       6.676   5.157  16.310  0.00  0.00    +0.000 A 
ATOM     29 CL   UNL     1       6.719   4.970  14.600  0.00  0.00    +0.000 Cl
ATOM     30  C   UNL     1       6.038   4.198  17.090  0.00  0.00    +0.000 A 
ENDBRANCH  22  24
ENDBRANCH  19  22
ENDBRANCH   4  19
TORSDOF 5
ENDMDL
MODEL 3
REMARK VINA RESULT:      -8.8      0.631      1.110
REMARK  Name = 
REMARK  5 active torsions:
REMARK  status: ('A' for Active; 'I' for Inactive)
REMARK    1  A    between atoms: C_2  and  C_21
REMARK    2  A    between atoms: N_3  and  C_4
REMARK    3  A    between atoms: C_7  and  S_8
REMARK    4  A    between atoms: S_8  and  N_11
REMARK    5  A    between atoms: N_11  and  C_12
REMARK                            x       y       z     vdW  Elec       q    Type
REMARK                         _______ _______ _______ _____ _____    ______ ____
ROOT
ATOM      1  C   UNL     1       2.209   7.635  18.551  0.00  0.00    +0.000 A 
ATOM      2  C   UNL     1       2.586   6.857  19.650  0.00  0.00    +0.000 A 
ATOM      3  C   UNL     1       3.741   6.077  19.611  0.00  0.00    +0.000 A 
ATOM      4  C   UNL     1       4.527   6.070  18.464  0.00  0.00    +0.000 A 
ATOM      5  C   UNL     1       4.181   6.858  17.362  0.00  0.00    +0.000 A 
ATOM      6  C   UNL     1       3.010   7.623  17.402  0.00  0.00    +0.000 A 
ENDROOT
BRANCH   1   9
ATOM      7  O   UNL     1       1.963  10.533  18.176  0.00  0.00    +0.000 OA
ATOM      8  C   UNL     1       0.995   9.802  18.366  0.00  0.00    +0.000 C 
ATOM      9  N   UNL     1       1.044   8.431  18.538  0.00  0.00    +0.000 N 
ATOM     10  H   UNL     1       0.164   7.930  18.562  0.00  0.00    +0.000 HD
BRANCH   8  11
ATOM     11  C   UNL     1      -0.344  10.461  18.423  0.00  0.00    +0.000 A 
ATOM     12  C   UNL     1      -1.291   9.989  17.492  0.00  0.00    +0.000 A 
ATOM     13  C   UNL     1      -2.594  10.488  17.468  0.00  0.00    +0.000 A 
ATOM     14  C   UNL     1      -2.967  11.465  18.383  0.00  0.00    +0.000 A 
ATOM     15 CL   UNL     1      -4.575  12.069  18.380  0.00  0.00    +0.000 Cl
ATOM     16  C   UNL     1      -2.047  11.950  19.310  0.00  0.00    +0.000 A 
ATOM     17  C   UNL     1      -0.737  11.451  19.336  0.00  0.00    +0.000 A 
ATOM     18 CL   UNL     1       0.299  12.094  20.562  0.00  0.00    +0.000 Cl
ENDBRANCH   8  11
ENDBRANCH   1   9
BRANCH   4  19
ATOM     19  S   UNL     1       5.959   5.023  18.403  0.00  0.00    +0.000 S 
ATOM     20  O   UNL     1       6.793   5.447  17.300  0.00  0.00    +0.000 OA
ATOM     21  O   UNL     1       6.489   4.916  19.747  0.00  0.00    +0.000 OA
BRANCH  19  22
ATOM     22  N   UNL     1       5.278   3.528  18.050  0.00  0.00    +0.000 N 
ATOM     23  H   UNL     1       5.750   2.976  17.336  0.00  0.00    +0.000 HD
BRANCH  22  24
ATOM     24  C   UNL     1       3.933   3.274  18.402  0.00  0.00    +0.000 A 
ATOM     25  C   UNL     1       2.918   3.410  17.457  0.00  0.00    +0.000 A 
ATOM     26  C   UNL     1       1.589   3.217  17.838  0.00  0.00    +0.000 A 
ATOM     27  C   UNL     1       1.282   2.892  19.161  0.00  0.00    +0.000 A 
ATOM     28  C   UNL     1       2.308   2.744  20.093  0.00  0.00    +0.000 A 
ATOM     29 CL   UNL     1       1.931   2.369  21.730  0.00  0.00    +0.000 Cl
ATOM     30  C   UNL     1       3.635   2.918  19.717  0.00  0.00    +0.000 A 
ENDBRANCH  22  24
ENDBRANCH  19  22
ENDBRANCH   4  19
TORSDOF 5
ENDMDL
MODEL 4
REMARK VINA RESULT:      -8.8      1.241      1.643
REMARK  Name = 
REMARK  5 active torsions:
REMARK  status: ('A' for Active; 'I' for Inactive)
REMARK    1  A    between atoms: C_2  and  C_21
REMARK    2  A    between atoms: N_3  and  C_4
REMARK    3  A    between atoms: C_7  and  S_8
REMARK    4  A    between atoms: S_8  and  N_11
REMARK    5  A    between atoms: N_11  and  C_12
REMARK                            x       y       z     vdW  Elec       q    Type
REMARK                         _______ _______ _______ _____ _____    ______ ____
ROOT
ATOM      1  C   UNL     1       2.277   7.752  18.835  0.00  0.00    +0.000 A 
ATOM      2  C   UNL     1       2.947   7.690  17.609  0.00  0.00    +0.000 A 
ATOM      3  C   UNL     1       3.955   6.752  17.393  0.00  0.00    +0.000 A 
ATOM      4  C   UNL     1       4.302   5.868  18.409  0.00  0.00    +0.000 A 
ATOM      5  C   UNL     1       3.628   5.898  19.635  0.00  0.00    +0.000 A 
ATOM      6  C   UNL     1       2.631   6.855  19.851  0.00  0.00    +0.000 A 
ENDROOT
BRANCH   1   9
ATOM      7  O   UNL     1       2.105  10.568  18.032  0.00  0.00    +0.000 OA
ATOM      8  C   UNL     1       1.240  10.014  18.707  0.00  0.00    +0.000 C 
ATOM      9  N   UNL     1       1.258   8.690  19.106  0.00  0.00    +0.000 N 
ATOM     10  H   UNL     1       0.425   8.325  19.553  0.00  0.00    +0.000 HD
BRANCH   8  11
ATOM     11  C   UNL     1       0.080  10.852  19.132  0.00  0.00    +0.000 A 
ATOM     12  C   UNL     1       0.327  11.725  20.210  0.00  0.00    +0.000 A 
ATOM     13  C   UNL     1      -0.659  12.596  20.677  0.00  0.00    +0.000 A 
ATOM     14  C   UNL     1      -1.906  12.607  20.064  0.00  0.00    +0.000 A 
ATOM     15 CL   UNL     1      -3.119  13.692  20.614  0.00  0.00    +0.000 Cl
ATOM     16  C   UNL     1      -2.174  11.749  18.999  0.00  0.00    +0.000 A 
ATOM     17  C   UNL     1      -1.186  10.873  18.528  0.00  0.00    +0.000 A 
ATOM     18 CL   UNL     1      -1.621   9.892  17.172  0.00  0.00    +0.000 Cl
ENDBRANCH   8  11
ENDBRANCH   1   9
BRANCH   4  19
ATOM     19  S   UNL     1       5.631   4.722  18.143  0.00  0.00    +0.000 S 
ATOM     20  O   UNL     1       6.358   5.127  16.960  0.00  0.00    +0.000 OA
ATOM     21  O   UNL     1       6.306   4.524  19.409  0.00  0.00    +0.000 OA
BRANCH  19  22
ATOM     22  N   UNL     1       4.798   3.296  17.830  0.00  0.00    +0.000 N 
ATOM     23  H   UNL     1       5.132   2.744  17.042  0.00  0.00    +0.000 HD
BRANCH  22  24
ATOM     24  C   UNL     1       3.494   3.123  18.346  0.00  0.00    +0.000 A 
ATOM     25  C   UNL     1       2.380   3.352  17.540  0.00  0.00    +0.000 A 
ATOM     26  C   UNL     1       1.099   3.238  18.083  0.00  0.00    +0.000 A 
ATOM     27  C   UNL     1       0.939   2.899  19.428  0.00  0.00    +0.000 A 
ATOM     28  C   UNL     1       2.060   2.659  20.220  0.00  0.00    +0.000 A 
ATOM     29 CL   UNL     1       1.867   2.267  21.884  0.00  0.00    +0.000 Cl
ATOM     30  C   UNL     1       3.339   2.754  19.681  0.00  0.00    +0.000 A 
ENDBRANCH  22  24
ENDBRANCH  19  22
ENDBRANCH   4  19
TORSDOF 5
ENDMDL
MODEL 5
REMARK VINA RESULT:      -8.8      3.147      4.087
REMARK  Name = 
REMARK  5 active torsions:
REMARK  status: ('A' for Active; 'I' for Inactive)
REMARK    1  A    between atoms: C_2  and  C_21
REMARK    2  A    between atoms: N_3  and  C_4
REMARK    3  A    between atoms: C_7  and  S_8
REMARK    4  A    between atoms: S_8  and  N_11
REMARK    5  A    between atoms: N_11  and  C_12
REMARK                            x       y       z     vdW  Elec       q    Type
REMARK                         _______ _______ _______ _____ _____    ______ ____
ROOT
ATOM      1  C   UNL     1       1.895   7.313  20.049  0.00  0.00    +0.000 A 
ATOM      2  C   UNL     1       2.532   7.210  18.807  0.00  0.00    +0.000 A 
ATOM      3  C   UNL     1       2.992   5.979  18.341  0.00  0.00    +0.000 A 
ATOM      4  C   UNL     1       2.819   4.840  19.120  0.00  0.00    +0.000 A 
ATOM      5  C   UNL     1       2.165   4.917  20.354  0.00  0.00    +0.000 A 
ATOM      6  C   UNL     1       1.724   6.159  20.824  0.00  0.00    +0.000 A 
ENDROOT
BRANCH   1   9
ATOM      7  O   UNL     1       0.537   9.506  18.653  0.00  0.00    +0.000 OA
ATOM      8  C   UNL     1       0.797   9.540  19.853  0.00  0.00    +0.000 C 
ATOM      9  N   UNL     1       1.423   8.537  20.569  0.00  0.00    +0.000 N 
ATOM     10  H   UNL     1       1.466   8.637  21.576  0.00  0.00    +0.000 HD
BRANCH   8  11
ATOM     11  C   UNL     1       0.406  10.778  20.590  0.00  0.00    +0.000 A 
ATOM     12  C   UNL     1      -0.454  10.583  21.689  0.00  0.00    +0.000 A 
ATOM     13  C   UNL     1      -0.860  11.651  22.491  0.00  0.00    +0.000 A 
ATOM     14  C   UNL     1      -0.403  12.931  22.203  0.00  0.00    +0.000 A 
ATOM     15 CL   UNL     1      -0.876  14.250  23.197  0.00  0.00    +0.000 Cl
ATOM     16  C   UNL     1       0.444  13.150  21.119  0.00  0.00    +0.000 A 
ATOM     17  C   UNL     1       0.853  12.079  20.312  0.00  0.00    +0.000 A 
ATOM     18 CL   UNL     1       1.943  12.466  19.027  0.00  0.00    +0.000 Cl
ENDBRANCH   8  11
ENDBRANCH   1   9
BRANCH   4  19
ATOM     19  S   UNL     1       3.467   3.292  18.544  0.00  0.00    +0.000 S 
ATOM     20  O   UNL     1       2.860   2.225  19.310  0.00  0.00    +0.000 OA
ATOM     21  O   UNL     1       3.418   3.300  17.097  0.00  0.00    +0.000 OA
BRANCH  19  22
ATOM     22  N   UNL     1       5.091   3.423  18.956  0.00  0.00    +0.000 N 
ATOM     23  H   UNL     1       5.356   3.050  19.866  0.00  0.00    +0.000 HD
BRANCH  22  24
ATOM     24  C   UNL     1       5.908   4.360  18.283  0.00  0.00    +0.000 A 
ATOM     25  C   UNL     1       6.468   5.433  18.974  0.00  0.00    +0.000 A 
ATOM     26  C   UNL     1       7.219   6.384  18.281  0.00  0.00    +0.000 A 
ATOM     27  C   UNL     1       7.403   6.259  16.903  0.00  0.00    +0.000 A 
ATOM     28  C   UNL     1       6.850   5.174  16.225  0.00  0.00    +0.000 A 
ATOM     29 CL   UNL     1       7.053   5.031  14.523  0.00  0.00    +0.000 Cl
ATOM     30  C   UNL     1       6.115   4.213  16.912  0.00  0.00    +0.000 A 
ENDBRANCH  22  24
ENDBRANCH  19  22
ENDBRANCH   4  19
TORSDOF 5
ENDMDL
MODEL 6
REMARK VINA RESULT:      -8.7      2.967      3.952
REMARK  Name = 
REMARK  5 active torsions:
REMARK  status: ('A' for Active; 'I' for Inactive)
REMARK    1  A    between atoms: C_2  and  C_21
REMARK    2  A    between atoms: N_3  and  C_4
REMARK    3  A    between atoms: C_7  and  S_8
REMARK    4  A    between atoms: S_8  and  N_11
REMARK    5  A    between atoms: N_11  and  C_12
REMARK                            x       y       z     vdW  Elec       q    Type
REMARK                         _______ _______ _______ _____ _____    ______ ____
ROOT
ATOM      1  C   UNL     1       2.079   7.597  19.022  0.00  0.00    +0.000 A 
ATOM      2  C   UNL     1       2.309   6.952  20.241  0.00  0.00    +0.000 A 
ATOM      3  C   UNL     1       2.735   5.625  20.279  0.00  0.00    +0.000 A 
ATOM      4  C   UNL     1       2.932   4.933  19.089  0.00  0.00    +0.000 A 
ATOM      5  C   UNL     1       2.730   5.565  17.858  0.00  0.00    +0.000 A 
ATOM      6  C   UNL     1       2.284   6.891  17.829  0.00  0.00    +0.000 A 
ENDROOT
BRANCH   1   9
ATOM      7  O   UNL     1       0.143   9.013  20.708  0.00  0.00    +0.000 OA
ATOM      8  C   UNL     1       0.708   9.543  19.755  0.00  0.00    +0.000 C 
ATOM      9  N   UNL     1       1.637   8.934  18.932  0.00  0.00    +0.000 N 
ATOM     10  H   UNL     1       2.121   9.518  18.260  0.00  0.00    +0.000 HD
BRANCH   8  11
ATOM     11  C   UNL     1       0.350  10.963  19.466  0.00  0.00    +0.000 A 
ATOM     12  C   UNL     1       1.115  11.932  20.145  0.00  0.00    +0.000 A 
ATOM     13  C   UNL     1       0.913  13.296  19.931  0.00  0.00    +0.000 A 
ATOM     14  C   UNL     1      -0.058  13.707  19.026  0.00  0.00    +0.000 A 
ATOM     15 CL   UNL     1      -0.299  15.383  18.735  0.00  0.00    +0.000 Cl
ATOM     16  C   UNL     1      -0.831  12.768  18.346  0.00  0.00    +0.000 A 
ATOM     17  C   UNL     1      -0.630  11.397  18.560  0.00  0.00    +0.000 A 
ATOM     18 CL   UNL     1      -1.615  10.328  17.623  0.00  0.00    +0.000 Cl
ENDBRANCH   8  11
ENDBRANCH   1   9
BRANCH   4  19
ATOM     19  S   UNL     1       3.412   3.225  19.151  0.00  0.00    +0.000 S 
ATOM     20  O   UNL     1       2.961   2.665  20.407  0.00  0.00    +0.000 OA
ATOM     21  O   UNL     1       3.055   2.616  17.887  0.00  0.00    +0.000 OA
BRANCH  19  22
ATOM     22  N   UNL     1       5.089   3.339  19.157  0.00  0.00    +0.000 N 
ATOM     23  H   UNL     1       5.559   3.009  19.998  0.00  0.00    +0.000 HD
BRANCH  22  24
ATOM     24  C   UNL     1       5.731   4.217  18.256  0.00  0.00    +0.000 A 
ATOM     25  C   UNL     1       5.634   4.013  16.880  0.00  0.00    +0.000 A 
ATOM     26  C   UNL     1       6.327   4.853  16.006  0.00  0.00    +0.000 A 
ATOM     27  C   UNL     1       7.114   5.889  16.512  0.00  0.00    +0.000 A 
ATOM     28  C   UNL     1       7.192   6.092  17.888  0.00  0.00    +0.000 A 
ATOM     29 CL   UNL     1       8.182   7.352  18.516  0.00  0.00    +0.000 Cl
ATOM     30  C   UNL     1       6.490   5.270  18.764  0.00  0.00    +0.000 A 
ENDBRANCH  22  24
ENDBRANCH  19  22
ENDBRANCH   4  19
TORSDOF 5
ENDMDL
MODEL 7
REMARK VINA RESULT:      -8.7      2.752      3.817
REMARK  Name = 
REMARK  5 active torsions:
REMARK  status: ('A' for Active; 'I' for Inactive)
REMARK    1  A    between atoms: C_2  and  C_21
REMARK    2  A    between atoms: N_3  and  C_4
REMARK    3  A    between atoms: C_7  and  S_8
REMARK    4  A    between atoms: S_8  and  N_11
REMARK    5  A    between atoms: N_11  and  C_12
REMARK                            x       y       z     vdW  Elec       q    Type
REMARK                         _______ _______ _______ _____ _____    ______ ____
ROOT
ATOM      1  C   UNL     1       2.025   7.417  19.273  0.00  0.00    +0.000 A 
ATOM      2  C   UNL     1       2.548   6.880  18.091  0.00  0.00    +0.000 A 
ATOM      3  C   UNL     1       3.094   5.598  18.069  0.00  0.00    +0.000 A 
ATOM      4  C   UNL     1       3.123   4.842  19.236  0.00  0.00    +0.000 A 
ATOM      5  C   UNL     1       2.585   5.350  20.424  0.00  0.00    +0.000 A 
ATOM      6  C   UNL     1       2.056   6.645  20.442  0.00  0.00    +0.000 A 
ENDROOT
BRANCH   1   9
ATOM      7  O   UNL     1       2.097   9.569  17.282  0.00  0.00    +0.000 OA
ATOM      8  C   UNL     1       1.551   9.691  18.376  0.00  0.00    +0.000 C 
ATOM      9  N   UNL     1       1.473   8.713  19.349  0.00  0.00    +0.000 N 
ATOM     10  H   UNL     1       0.888   8.899  20.155  0.00  0.00    +0.000 HD
BRANCH   8  11
ATOM     11  C   UNL     1       0.927  11.015  18.671  0.00  0.00    +0.000 A 
ATOM     12  C   UNL     1       1.829  12.058  18.962  0.00  0.00    +0.000 A 
ATOM     13  C   UNL     1       1.381  13.356  19.212  0.00  0.00    +0.000 A 
ATOM     14  C   UNL     1       0.019  13.627  19.166  0.00  0.00    +0.000 A 
ATOM     15 CL   UNL     1      -0.544  15.226  19.447  0.00  0.00    +0.000 Cl
ATOM     16  C   UNL     1      -0.893  12.611  18.884  0.00  0.00    +0.000 A 
ATOM     17  C   UNL     1      -0.445  11.306  18.634  0.00  0.00    +0.000 A 
ATOM     18 CL   UNL     1      -1.665  10.143  18.248  0.00  0.00    +0.000 Cl
ENDBRANCH   8  11
ENDBRANCH   1   9
BRANCH   4  19
ATOM     19  S   UNL     1       3.879   3.237  19.209  0.00  0.00    +0.000 S 
ATOM     20  O   UNL     1       3.502   2.530  20.415  0.00  0.00    +0.000 OA
ATOM     21  O   UNL     1       3.653   2.661  17.900  0.00  0.00    +0.000 OA
BRANCH  19  22
ATOM     22  N   UNL     1       5.513   3.625  19.273  0.00  0.00    +0.000 N 
ATOM     23  H   UNL     1       5.973   3.487  20.171  0.00  0.00    +0.000 HD
BRANCH  22  24
ATOM     24  C   UNL     1       6.067   4.474  18.289  0.00  0.00    +0.000 A 
ATOM     25  C   UNL     1       5.993   4.134  16.939  0.00  0.00    +0.000 A 
ATOM     26  C   UNL     1       6.601   4.952  15.986  0.00  0.00    +0.000 A 
ATOM     27  C   UNL     1       7.281   6.104  16.387  0.00  0.00    +0.000 A 
ATOM     28  C   UNL     1       7.335   6.442  17.738  0.00  0.00    +0.000 A 
ATOM     29 CL   UNL     1       8.194   7.847  18.238  0.00  0.00    +0.000 Cl
ATOM     30  C   UNL     1       6.717   5.640  18.692  0.00  0.00    +0.000 A 
ENDBRANCH  22  24
ENDBRANCH  19  22
ENDBRANCH   4  19
TORSDOF 5
ENDMDL
MODEL 8
REMARK VINA RESULT:      -8.6      3.068      4.133
REMARK  Name = 
REMARK  5 active torsions:
REMARK  status: ('A' for Active; 'I' for Inactive)
REMARK    1  A    between atoms: C_2  and  C_21
REMARK    2  A    between atoms: N_3  and  C_4
REMARK    3  A    between atoms: C_7  and  S_8
REMARK    4  A    between atoms: S_8  and  N_11
REMARK    5  A    between atoms: N_11  and  C_12
REMARK                            x       y       z     vdW  Elec       q    Type
REMARK                         _______ _______ _______ _____ _____    ______ ____
ROOT
ATOM      1  C   UNL     1       1.886   7.191  20.085  0.00  0.00    +0.000 A 
ATOM      2  C   UNL     1       2.475   7.119  18.818  0.00  0.00    +0.000 A 
ATOM      3  C   UNL     1       2.947   5.906  18.318  0.00  0.00    +0.000 A 
ATOM      4  C   UNL     1       2.835   4.754  19.088  0.00  0.00    +0.000 A 
ATOM      5  C   UNL     1       2.229   4.799  20.348  0.00  0.00    +0.000 A 
ATOM      6  C   UNL     1       1.775   6.023  20.851  0.00  0.00    +0.000 A 
ENDROOT
BRANCH   1   9
ATOM      7  O   UNL     1       0.717   9.509  18.721  0.00  0.00    +0.000 OA
ATOM      8  C   UNL     1       0.871   9.461  19.939  0.00  0.00    +0.000 C 
ATOM      9  N   UNL     1       1.404   8.395  20.640  0.00  0.00    +0.000 N 
ATOM     10  H   UNL     1       1.362   8.432  21.652  0.00  0.00    +0.000 HD
BRANCH   8  11
ATOM     11  C   UNL     1       0.452  10.664  20.717  0.00  0.00    +0.000 A 
ATOM     12  C   UNL     1       0.740  11.905  20.115  0.00  0.00    +0.000 A 
ATOM     13  C   UNL     1       0.361  13.107  20.715  0.00  0.00    +0.000 A 
ATOM     14  C   UNL     1      -0.319  13.079  21.926  0.00  0.00    +0.000 A 
ATOM     15 CL   UNL     1      -0.814  14.551  22.662  0.00  0.00    +0.000 Cl
ATOM     16  C   UNL     1      -0.612  11.864  22.542  0.00  0.00    +0.000 A 
ATOM     17  C   UNL     1      -0.232  10.655  21.942  0.00  0.00    +0.000 A 
ATOM     18 CL   UNL     1      -0.693   9.212  22.776  0.00  0.00    +0.000 Cl
ENDBRANCH   8  11
ENDBRANCH   1   9
BRANCH   4  19
ATOM     19  S   UNL     1       3.499   3.230  18.466  0.00  0.00    +0.000 S 
ATOM     20  O   UNL     1       2.900   2.134  19.198  0.00  0.00    +0.000 OA
ATOM     21  O   UNL     1       3.452   3.282  17.020  0.00  0.00    +0.000 OA
BRANCH  19  22
ATOM     22  N   UNL     1       5.121   3.364  18.886  0.00  0.00    +0.000 N 
ATOM     23  H   UNL     1       5.387   2.968  19.785  0.00  0.00    +0.000 HD
BRANCH  22  24
ATOM     24  C   UNL     1       5.930   4.326  18.241  0.00  0.00    +0.000 A 
ATOM     25  C   UNL     1       6.456   5.401  18.956  0.00  0.00    +0.000 A 
ATOM     26  C   UNL     1       7.200   6.376  18.290  0.00  0.00    +0.000 A 
ATOM     27  C   UNL     1       7.413   6.273  16.914  0.00  0.00    +0.000 A 
ATOM     28  C   UNL     1       6.894   5.186  16.212  0.00  0.00    +0.000 A 
ATOM     29 CL   UNL     1       7.133   5.069  14.512  0.00  0.00    +0.000 Cl
ATOM     30  C   UNL     1       6.167   4.201  16.872  0.00  0.00    +0.000 A 
ENDBRANCH  22  24
ENDBRANCH  19  22
ENDBRANCH   4  19
TORSDOF 5
ENDMDL
MODEL 9
REMARK VINA RESULT:      -8.6      2.818      3.789
REMARK  Name = 
REMARK  5 active torsions:
REMARK  status: ('A' for Active; 'I' for Inactive)
REMARK    1  A    between atoms: C_2  and  C_21
REMARK    2  A    between atoms: N_3  and  C_4
REMARK    3  A    between atoms: C_7  and  S_8
REMARK    4  A    between atoms: S_8  and  N_11
REMARK    5  A    between atoms: N_11  and  C_12
REMARK                            x       y       z     vdW  Elec       q    Type
REMARK                         _______ _______ _______ _____ _____    ______ ____
ROOT
ATOM      1  C   UNL     1       2.042   7.313  19.346  0.00  0.00    +0.000 A 
ATOM      2  C   UNL     1       2.555   6.881  18.118  0.00  0.00    +0.000 A 
ATOM      3  C   UNL     1       3.114   5.611  17.985  0.00  0.00    +0.000 A 
ATOM      4  C   UNL     1       3.165   4.763  19.086  0.00  0.00    +0.000 A 
ATOM      5  C   UNL     1       2.638   5.166  20.317  0.00  0.00    +0.000 A 
ATOM      6  C   UNL     1       2.096   6.450  20.448  0.00  0.00    +0.000 A 
ENDROOT
BRANCH   1   9
ATOM      7  O   UNL     1       1.822   9.529  17.437  0.00  0.00    +0.000 OA
ATOM      8  C   UNL     1       1.414   9.603  18.593  0.00  0.00    +0.000 C 
ATOM      9  N   UNL     1       1.478   8.593  19.534  0.00  0.00    +0.000 N 
ATOM     10  H   UNL     1       0.994   8.740  20.413  0.00  0.00    +0.000 HD
BRANCH   8  11
ATOM     11  C   UNL     1       0.806  10.902  19.008  0.00  0.00    +0.000 A 
ATOM     12  C   UNL     1      -0.404  10.802  19.725  0.00  0.00    +0.000 A 
ATOM     13  C   UNL     1      -1.053  11.938  20.211  0.00  0.00    +0.000 A 
ATOM     14  C   UNL     1      -0.494  13.191  19.989  0.00  0.00    +0.000 A 
ATOM     15 CL   UNL     1      -1.271  14.594  20.604  0.00  0.00    +0.000 Cl
ATOM     16  C   UNL     1       0.699  13.314  19.279  0.00  0.00    +0.000 A 
ATOM     17  C   UNL     1       1.353  12.175  18.790  0.00  0.00    +0.000 A 
ATOM     18 CL   UNL     1       2.849  12.450  17.968  0.00  0.00    +0.000 Cl
ENDBRANCH   8  11
ENDBRANCH   1   9
BRANCH   4  19
ATOM     19  S   UNL     1       3.937   3.174  18.919  0.00  0.00    +0.000 S 
ATOM     20  O   UNL     1       3.451   2.312  19.975  0.00  0.00    +0.000 OA
ATOM     21  O   UNL     1       3.849   2.781  17.528  0.00  0.00    +0.000 OA
BRANCH  19  22
ATOM     22  N   UNL     1       5.553   3.545  19.197  0.00  0.00    +0.000 N 
ATOM     23  H   UNL     1       5.918   3.302  20.116  0.00  0.00    +0.000 HD
BRANCH  22  24
ATOM     24  C   UNL     1       6.199   4.501  18.381  0.00  0.00    +0.000 A 
ATOM     25  C   UNL     1       6.704   5.676  18.934  0.00  0.00    +0.000 A 
ATOM     26  C   UNL     1       7.282   6.638  18.104  0.00  0.00    +0.000 A 
ATOM     27  C   UNL     1       7.350   6.421  16.727  0.00  0.00    +0.000 A 
ATOM     28  C   UNL     1       6.853   5.236  16.186  0.00  0.00    +0.000 A 
ATOM     29 CL   UNL     1       6.911   4.977  14.486  0.00  0.00    +0.000 Cl
ATOM     30  C   UNL     1       6.292   4.265  17.010  0.00  0.00    +0.000 A 
ENDBRANCH  22  24
ENDBRANCH  19  22
ENDBRANCH   4  19
TORSDOF 5
ENDMDL
