MODEL 1
REMARK VINA RESULT:      -7.5      0.000      0.000
REMARK  Name = 
REMARK  6 active torsions:
REMARK  status: ('A' for Active; 'I' for Inactive)
REMARK    1  A    between atoms: C_1  and  C_2
REMARK    2  A    between atoms: C_5  and  C_6
REMARK    3  A    between atoms: C_6  and  C_8
REMARK    4  A    between atoms: C_9  and  N_10
REMARK    5  A    between atoms: N_10  and  C_11
REMARK    6  A    between atoms: C_11  and  C_12
REMARK                            x       y       z     vdW  Elec       q    Type
REMARK                         _______ _______ _______ _____ _____    ______ ____
ROOT
ATOM      1  C   UNL     1       7.874   6.526  18.296  0.00  0.00    +0.000 C 
ATOM      2  C   UNL     1       7.616   7.565  17.496  0.00  0.00    +0.000 C 
ENDROOT
BRANCH   1   3
ATOM      3  C   UNL     1       7.410   5.152  17.978  0.00  0.00    +0.000 C 
ATOM      4  O   UNL     1       8.193   4.233  17.774  0.00  0.00    +0.000 OA
BRANCH   3   9
ATOM      5  C   UNL     1       1.715   4.033  17.915  0.00  0.00    +0.000 C 
ATOM      6  C   UNL     1       3.182   4.349  17.920  0.00  0.00    +0.000 A 
ATOM      7  C   UNL     1       4.004   3.977  16.851  0.00  0.00    +0.000 A 
ATOM      8  C   UNL     1       5.373   4.263  16.876  0.00  0.00    +0.000 A 
ATOM      9  C   UNL     1       5.938   4.915  17.977  0.00  0.00    +0.000 A 
ATOM     10  C   UNL     1       5.110   5.319  19.033  0.00  0.00    +0.000 A 
ATOM     11  C   UNL     1       3.743   5.028  19.007  0.00  0.00    +0.000 A 
ENDBRANCH   3   9
ENDBRANCH   1   3
BRANCH   2  12
ATOM     12  N   UNL     1       7.983   8.862  17.792  0.00  0.00    +0.000 N 
ATOM     13  H   UNL     1       8.352   9.332  16.966  0.00  0.00    +0.000 HD
BRANCH  12  14
ATOM     14  C   UNL     1       8.845   9.168  18.935  0.00  0.00    +0.000 C 
BRANCH  14  15
ATOM     15  C   UNL     1       9.271  10.610  18.834  0.00  0.00    +0.000 A 
ATOM     16  C   UNL     1       8.708  11.441  17.851  0.00  0.00    +0.000 A 
ATOM     17  C   UNL     1       9.143  12.760  17.709  0.00  0.00    +0.000 A 
ATOM     18  C   UNL     1      10.144  13.244  18.543  0.00  0.00    +0.000 A 
ATOM     19  F   UNL     1      10.568  14.506  18.396  0.00  0.00    +0.000 F 
ATOM     20  C   UNL     1      10.717  12.438  19.518  0.00  0.00    +0.000 A 
ATOM     21  C   UNL     1      10.284  11.119  19.663  0.00  0.00    +0.000 A 
ENDBRANCH  14  15
ENDBRANCH  12  14
ENDBRANCH   2  12
TORSDOF 5
ENDMDL
MODEL 2
REMARK VINA RESULT:      -7.4      1.362      1.658
REMARK  Name = 
REMARK  6 active torsions:
REMARK  status: ('A' for Active; 'I' for Inactive)
REMARK    1  A    between atoms: C_1  and  C_2
REMARK    2  A    between atoms: C_5  and  C_6
REMARK    3  A    between atoms: C_6  and  C_8
REMARK    4  A    between atoms: C_9  and  N_10
REMARK    5  A    between atoms: N_10  and  C_11
REMARK    6  A    between atoms: C_11  and  C_12
REMARK                            x       y       z     vdW  Elec       q    Type
REMARK                         _______ _______ _______ _____ _____    ______ ____
ROOT
ATOM      1  C   UNL     1       6.815   7.811  17.518  0.00  0.00    +0.000 C 
ATOM      2  C   UNL     1       8.027   8.370  17.601  0.00  0.00    +0.000 C 
ENDROOT
BRANCH   1   3
ATOM      3  C   UNL     1       6.592   6.509  16.841  0.00  0.00    +0.000 C 
ATOM      4  O   UNL     1       7.434   6.005  16.109  0.00  0.00    +0.000 OA
BRANCH   3   9
ATOM      5  C   UNL     1       1.512   3.905  17.893  0.00  0.00    +0.000 C 
ATOM      6  C   UNL     1       2.835   4.570  17.648  0.00  0.00    +0.000 A 
ATOM      7  C   UNL     1       3.020   5.931  17.916  0.00  0.00    +0.000 A 
ATOM      8  C   UNL     1       4.253   6.542  17.667  0.00  0.00    +0.000 A 
ATOM      9  C   UNL     1       5.314   5.800  17.136  0.00  0.00    +0.000 A 
ATOM     10  C   UNL     1       5.141   4.430  16.899  0.00  0.00    +0.000 A 
ATOM     11  C   UNL     1       3.906   3.823  17.145  0.00  0.00    +0.000 A 
ENDBRANCH   3   9
ENDBRANCH   1   3
BRANCH   2  12
ATOM     12  N   UNL     1       8.257   9.605  18.172  0.00  0.00    +0.000 N 
ATOM     13  H   UNL     1       8.508  10.292  17.462  0.00  0.00    +0.000 HD
BRANCH  12  14
ATOM     14  C   UNL     1       9.156   9.759  19.317  0.00  0.00    +0.000 C 
BRANCH  14  15
ATOM     15  C   UNL     1       9.958  11.020  19.123  0.00  0.00    +0.000 A 
ATOM     16  C   UNL     1      10.286  11.451  17.827  0.00  0.00    +0.000 A 
ATOM     17  C   UNL     1      11.083  12.582  17.640  0.00  0.00    +0.000 A 
ATOM     18  C   UNL     1      11.557  13.276  18.747  0.00  0.00    +0.000 A 
ATOM     19  F   UNL     1      12.332  14.353  18.565  0.00  0.00    +0.000 F 
ATOM     20  C   UNL     1      11.248  12.864  20.037  0.00  0.00    +0.000 A 
ATOM     21  C   UNL     1      10.452  11.734  20.228  0.00  0.00    +0.000 A 
ENDBRANCH  14  15
ENDBRANCH  12  14
ENDBRANCH   2  12
TORSDOF 5
ENDMDL
MODEL 3
REMARK VINA RESULT:      -7.4      6.456      9.133
REMARK  Name = 
REMARK  6 active torsions:
REMARK  status: ('A' for Active; 'I' for Inactive)
REMARK    1  A    between atoms: C_1  and  C_2
REMARK    2  A    between atoms: C_5  and  C_6
REMARK    3  A    between atoms: C_6  and  C_8
REMARK    4  A    between atoms: C_9  and  N_10
REMARK    5  A    between atoms: N_10  and  C_11
REMARK    6  A    between atoms: C_11  and  C_12
REMARK                            x       y       z     vdW  Elec       q    Type
REMARK                         _______ _______ _______ _____ _____    ______ ____
ROOT
ATOM      1  C   UNL     1       2.549   7.422  18.530  0.00  0.00    +0.000 C 
ATOM      2  C   UNL     1       3.539   7.027  17.724  0.00  0.00    +0.000 C 
ENDROOT
BRANCH   1   3
ATOM      3  C   UNL     1       1.920   8.761  18.410  0.00  0.00    +0.000 C 
ATOM      4  O   UNL     1       2.002   9.427  17.385  0.00  0.00    +0.000 OA
BRANCH   3   9
ATOM      5  C   UNL     1      -1.003  10.628  23.064  0.00  0.00    +0.000 C 
ATOM      6  C   UNL     1      -0.271  10.131  21.852  0.00  0.00    +0.000 A 
ATOM      7  C   UNL     1       0.516   8.975  21.907  0.00  0.00    +0.000 A 
ATOM      8  C   UNL     1       1.206   8.532  20.774  0.00  0.00    +0.000 A 
ATOM      9  C   UNL     1       1.126   9.246  19.574  0.00  0.00    +0.000 A 
ATOM     10  C   UNL     1       0.311  10.384  19.508  0.00  0.00    +0.000 A 
ATOM     11  C   UNL     1      -0.374  10.827  20.643  0.00  0.00    +0.000 A 
ENDBRANCH   3   9
ENDBRANCH   1   3
BRANCH   2  12
ATOM     12  N   UNL     1       4.182   5.811  17.848  0.00  0.00    +0.000 N 
ATOM     13  H   UNL     1       5.112   5.850  17.433  0.00  0.00    +0.000 HD
BRANCH  12  14
ATOM     14  C   UNL     1       3.535   4.563  17.443  0.00  0.00    +0.000 C 
BRANCH  14  15
ATOM     15  C   UNL     1       2.879   3.955  18.657  0.00  0.00    +0.000 A 
ATOM     16  C   UNL     1       1.482   3.997  18.796  0.00  0.00    +0.000 A 
ATOM     17  C   UNL     1       0.872   3.495  19.946  0.00  0.00    +0.000 A 
ATOM     18  C   UNL     1       1.658   2.958  20.959  0.00  0.00    +0.000 A 
ATOM     19  F   UNL     1       1.070   2.488  22.067  0.00  0.00    +0.000 F 
ATOM     20  C   UNL     1       3.041   2.911  20.845  0.00  0.00    +0.000 A 
ATOM     21  C   UNL     1       3.655   3.413  19.696  0.00  0.00    +0.000 A 
ENDBRANCH  14  15
ENDBRANCH  12  14
ENDBRANCH   2  12
TORSDOF 5
ENDMDL
MODEL 4
REMARK VINA RESULT:      -7.4      0.623      1.102
REMARK  Name = 
REMARK  6 active torsions:
REMARK  status: ('A' for Active; 'I' for Inactive)
REMARK    1  A    between atoms: C_1  and  C_2
REMARK    2  A    between atoms: C_5  and  C_6
REMARK    3  A    between atoms: C_6  and  C_8
REMARK    4  A    between atoms: C_9  and  N_10
REMARK    5  A    between atoms: N_10  and  C_11
REMARK    6  A    between atoms: C_11  and  C_12
REMARK                            x       y       z     vdW  Elec       q    Type
REMARK                         _______ _______ _______ _____ _____    ______ ____
ROOT
ATOM      1  C   UNL     1       7.669   6.616  18.185  0.00  0.00    +0.000 C 
ATOM      2  C   UNL     1       7.666   7.727  17.442  0.00  0.00    +0.000 C 
ENDROOT
BRANCH   1   3
ATOM      3  C   UNL     1       7.205   5.310  17.651  0.00  0.00    +0.000 C 
ATOM      4  O   UNL     1       7.983   4.486  17.188  0.00  0.00    +0.000 OA
BRANCH   3   9
ATOM      5  C   UNL     1       1.578   3.944  18.038  0.00  0.00    +0.000 C 
ATOM      6  C   UNL     1       3.025   4.321  17.923  0.00  0.00    +0.000 A 
ATOM      7  C   UNL     1       3.824   3.813  16.893  0.00  0.00    +0.000 A 
ATOM      8  C   UNL     1       5.176   4.160  16.806  0.00  0.00    +0.000 A 
ATOM      9  C   UNL     1       5.748   5.012  17.757  0.00  0.00    +0.000 A 
ATOM     10  C   UNL     1       4.942   5.548  18.770  0.00  0.00    +0.000 A 
ATOM     11  C   UNL     1       3.592   5.196  18.856  0.00  0.00    +0.000 A 
ENDBRANCH   3   9
ENDBRANCH   1   3
BRANCH   2  12
ATOM     12  N   UNL     1       8.036   8.967  17.926  0.00  0.00    +0.000 N 
ATOM     13  H   UNL     1       8.345   9.574  17.168  0.00  0.00    +0.000 HD
BRANCH  12  14
ATOM     14  C   UNL     1       8.965   9.099  19.048  0.00  0.00    +0.000 C 
BRANCH  14  15
ATOM     15  C   UNL     1       9.388  10.543  19.144  0.00  0.00    +0.000 A 
ATOM     16  C   UNL     1       9.444  11.176  20.397  0.00  0.00    +0.000 A 
ATOM     17  C   UNL     1       9.771  12.529  20.489  0.00  0.00    +0.000 A 
ATOM     18  C   UNL     1      10.036  13.250  19.331  0.00  0.00    +0.000 A 
ATOM     19  F   UNL     1      10.339  14.552  19.421  0.00  0.00    +0.000 F 
ATOM     20  C   UNL     1       9.983  12.644  18.082  0.00  0.00    +0.000 A 
ATOM     21  C   UNL     1       9.655  11.291  17.986  0.00  0.00    +0.000 A 
ENDBRANCH  14  15
ENDBRANCH  12  14
ENDBRANCH   2  12
TORSDOF 5
ENDMDL
MODEL 5
REMARK VINA RESULT:      -7.3      1.274      1.696
REMARK  Name = 
REMARK  6 active torsions:
REMARK  status: ('A' for Active; 'I' for Inactive)
REMARK    1  A    between atoms: C_1  and  C_2
REMARK    2  A    between atoms: C_5  and  C_6
REMARK    3  A    between atoms: C_6  and  C_8
REMARK    4  A    between atoms: C_9  and  N_10
REMARK    5  A    between atoms: N_10  and  C_11
REMARK    6  A    between atoms: C_11  and  C_12
REMARK                            x       y       z     vdW  Elec       q    Type
REMARK                         _______ _______ _______ _____ _____    ______ ____
ROOT
ATOM      1  C   UNL     1       7.218   7.389  17.255  0.00  0.00    +0.000 C 
ATOM      2  C   UNL     1       8.130   7.473  18.229  0.00  0.00    +0.000 C 
ENDROOT
BRANCH   1   3
ATOM      3  C   UNL     1       6.821   6.089  16.657  0.00  0.00    +0.000 C 
ATOM      4  O   UNL     1       7.572   5.454  15.928  0.00  0.00    +0.000 OA
BRANCH   3   9
ATOM      5  C   UNL     1       1.520   4.159  18.023  0.00  0.00    +0.000 C 
ATOM      6  C   UNL     1       2.900   4.648  17.695  0.00  0.00    +0.000 A 
ATOM      7  C   UNL     1       3.279   5.970  17.955  0.00  0.00    +0.000 A 
ATOM      8  C   UNL     1       4.563   6.418  17.631  0.00  0.00    +0.000 A 
ATOM      9  C   UNL     1       5.482   5.550  17.031  0.00  0.00    +0.000 A 
ATOM     10  C   UNL     1       5.117   4.218  16.801  0.00  0.00    +0.000 A 
ATOM     11  C   UNL     1       3.831   3.774  17.123  0.00  0.00    +0.000 A 
ENDBRANCH   3   9
ENDBRANCH   1   3
BRANCH   2  12
ATOM     12  N   UNL     1       8.562   8.670  18.765  0.00  0.00    +0.000 N 
ATOM     13  H   UNL     1       8.078   8.872  19.638  0.00  0.00    +0.000 HD
BRANCH  12  14
ATOM     14  C   UNL     1       8.613   9.891  17.959  0.00  0.00    +0.000 C 
BRANCH  14  15
ATOM     15  C   UNL     1       9.176  10.998  18.813  0.00  0.00    +0.000 A 
ATOM     16  C   UNL     1       9.413  12.265  18.253  0.00  0.00    +0.000 A 
ATOM     17  C   UNL     1       9.994  13.277  19.018  0.00  0.00    +0.000 A 
ATOM     18  C   UNL     1      10.345  13.021  20.338  0.00  0.00    +0.000 A 
ATOM     19  F   UNL     1      10.915  13.990  21.067  0.00  0.00    +0.000 F 
ATOM     20  C   UNL     1      10.125  11.774  20.910  0.00  0.00    +0.000 A 
ATOM     21  C   UNL     1       9.543  10.760  20.147  0.00  0.00    +0.000 A 
ENDBRANCH  14  15
ENDBRANCH  12  14
ENDBRANCH   2  12
TORSDOF 5
ENDMDL
MODEL 6
REMARK VINA RESULT:      -7.2      6.573      9.244
REMARK  Name = 
REMARK  6 active torsions:
REMARK  status: ('A' for Active; 'I' for Inactive)
REMARK    1  A    between atoms: C_1  and  C_2
REMARK    2  A    between atoms: C_5  and  C_6
REMARK    3  A    between atoms: C_6  and  C_8
REMARK    4  A    between atoms: C_9  and  N_10
REMARK    5  A    between atoms: N_10  and  C_11
REMARK    6  A    between atoms: C_11  and  C_12
REMARK                            x       y       z     vdW  Elec       q    Type
REMARK                         _______ _______ _______ _____ _____    ______ ____
ROOT
ATOM      1  C   UNL     1       2.631   7.367  18.583  0.00  0.00    +0.000 C 
ATOM      2  C   UNL     1       3.418   6.891  17.612  0.00  0.00    +0.000 C 
ENDROOT
BRANCH   1   3
ATOM      3  C   UNL     1       1.966   8.690  18.481  0.00  0.00    +0.000 C 
ATOM      4  O   UNL     1       1.965   9.338  17.442  0.00  0.00    +0.000 OA
BRANCH   3   9
ATOM      5  C   UNL     1      -1.034  10.621  23.059  0.00  0.00    +0.000 C 
ATOM      6  C   UNL     1      -0.235  10.136  21.885  0.00  0.00    +0.000 A 
ATOM      7  C   UNL     1      -0.262  10.817  20.663  0.00  0.00    +0.000 A 
ATOM      8  C   UNL     1       0.475  10.346  19.572  0.00  0.00    +0.000 A 
ATOM      9  C   UNL     1       1.240   9.180  19.687  0.00  0.00    +0.000 A 
ATOM     10  C   UNL     1       1.295   8.516  20.920  0.00  0.00    +0.000 A 
ATOM     11  C   UNL     1       0.554   8.988  22.008  0.00  0.00    +0.000 A 
ENDBRANCH   3   9
ENDBRANCH   1   3
BRANCH   2  12
ATOM     12  N   UNL     1       4.095   5.691  17.701  0.00  0.00    +0.000 N 
ATOM     13  H   UNL     1       4.980   5.736  17.198  0.00  0.00    +0.000 HD
BRANCH  12  14
ATOM     14  C   UNL     1       3.438   4.421  17.390  0.00  0.00    +0.000 C 
BRANCH  14  15
ATOM     15  C   UNL     1       2.720   3.945  18.627  0.00  0.00    +0.000 A 
ATOM     16  C   UNL     1       3.401   3.884  19.855  0.00  0.00    +0.000 A 
ATOM     17  C   UNL     1       2.763   3.383  20.991  0.00  0.00    +0.000 A 
ATOM     18  C   UNL     1       1.450   2.937  20.898  0.00  0.00    +0.000 A 
ATOM     19  F   UNL     1       0.845   2.445  21.987  0.00  0.00    +0.000 F 
ATOM     20  C   UNL     1       0.760   2.984  19.693  0.00  0.00    +0.000 A 
ATOM     21  C   UNL     1       1.395   3.484  18.555  0.00  0.00    +0.000 A 
ENDBRANCH  14  15
ENDBRANCH  12  14
ENDBRANCH   2  12
TORSDOF 5
ENDMDL
MODEL 7
REMARK VINA RESULT:      -7.2      5.909      8.190
REMARK  Name = 
REMARK  6 active torsions:
REMARK  status: ('A' for Active; 'I' for Inactive)
REMARK    1  A    between atoms: C_1  and  C_2
REMARK    2  A    between atoms: C_5  and  C_6
REMARK    3  A    between atoms: C_6  and  C_8
REMARK    4  A    between atoms: C_9  and  N_10
REMARK    5  A    between atoms: N_10  and  C_11
REMARK    6  A    between atoms: C_11  and  C_12
REMARK                            x       y       z     vdW  Elec       q    Type
REMARK                         _______ _______ _______ _____ _____    ______ ____
ROOT
ATOM      1  C   UNL     1       5.406   5.175  18.312  0.00  0.00    +0.000 C 
ATOM      2  C   UNL     1       4.696   6.221  17.879  0.00  0.00    +0.000 C 
ENDROOT
BRANCH   1   3
ATOM      3  C   UNL     1       6.656   4.739  17.640  0.00  0.00    +0.000 C 
ATOM      4  O   UNL     1       7.689   4.530  18.264  0.00  0.00    +0.000 OA
BRANCH   3   9
ATOM      5  C   UNL     1       6.611   3.796  11.914  0.00  0.00    +0.000 C 
ATOM      6  C   UNL     1       6.602   4.060  13.390  0.00  0.00    +0.000 A 
ATOM      7  C   UNL     1       7.519   4.943  13.971  0.00  0.00    +0.000 A 
ATOM      8  C   UNL     1       7.511   5.169  15.351  0.00  0.00    +0.000 A 
ATOM      9  C   UNL     1       6.591   4.504  16.169  0.00  0.00    +0.000 A 
ATOM     10  C   UNL     1       5.651   3.645  15.586  0.00  0.00    +0.000 A 
ATOM     11  C   UNL     1       5.664   3.419  14.206  0.00  0.00    +0.000 A 
ENDBRANCH   3   9
ENDBRANCH   1   3
BRANCH   2  12
ATOM     12  N   UNL     1       3.500   6.615  18.445  0.00  0.00    +0.000 N 
ATOM     13  H   UNL     1       3.581   6.673  19.459  0.00  0.00    +0.000 HD
BRANCH  12  14
ATOM     14  C   UNL     1       2.241   5.948  18.109  0.00  0.00    +0.000 C 
BRANCH  14  15
ATOM     15  C   UNL     1       1.960   4.908  19.164  0.00  0.00    +0.000 A 
ATOM     16  C   UNL     1       2.343   5.138  20.496  0.00  0.00    +0.000 A 
ATOM     17  C   UNL     1       2.146   4.155  21.466  0.00  0.00    +0.000 A 
ATOM     18  C   UNL     1       1.573   2.941  21.104  0.00  0.00    +0.000 A 
ATOM     19  F   UNL     1       1.396   1.994  22.035  0.00  0.00    +0.000 F 
ATOM     20  C   UNL     1       1.192   2.691  19.792  0.00  0.00    +0.000 A 
ATOM     21  C   UNL     1       1.388   3.673  18.819  0.00  0.00    +0.000 A 
ENDBRANCH  14  15
ENDBRANCH  12  14
ENDBRANCH   2  12
TORSDOF 5
ENDMDL
MODEL 8
REMARK VINA RESULT:      -7.2      6.180      8.593
REMARK  Name = 
REMARK  6 active torsions:
REMARK  status: ('A' for Active; 'I' for Inactive)
REMARK    1  A    between atoms: C_1  and  C_2
REMARK    2  A    between atoms: C_5  and  C_6
REMARK    3  A    between atoms: C_6  and  C_8
REMARK    4  A    between atoms: C_9  and  N_10
REMARK    5  A    between atoms: N_10  and  C_11
REMARK    6  A    between atoms: C_11  and  C_12
REMARK                            x       y       z     vdW  Elec       q    Type
REMARK                         _______ _______ _______ _____ _____    ______ ____
ROOT
ATOM      1  C   UNL     1       3.364   6.197  19.452  0.00  0.00    +0.000 C 
ATOM      2  C   UNL     1       2.160   5.909  19.957  0.00  0.00    +0.000 C 
ENDROOT
BRANCH   1   3
ATOM      3  C   UNL     1       3.528   6.847  18.127  0.00  0.00    +0.000 C 
ATOM      4  O   UNL     1       3.159   7.996  17.917  0.00  0.00    +0.000 OA
BRANCH   3   9
ATOM      5  C   UNL     1       6.398   3.911  14.024  0.00  0.00    +0.000 C 
ATOM      6  C   UNL     1       5.631   4.668  15.069  0.00  0.00    +0.000 A 
ATOM      7  C   UNL     1       5.613   6.067  15.079  0.00  0.00    +0.000 A 
ATOM      8  C   UNL     1       4.908   6.761  16.067  0.00  0.00    +0.000 A 
ATOM      9  C   UNL     1       4.221   6.062  17.066  0.00  0.00    +0.000 A 
ATOM     10  C   UNL     1       4.210   4.661  17.039  0.00  0.00    +0.000 A 
ATOM     11  C   UNL     1       4.920   3.971  16.051  0.00  0.00    +0.000 A 
ENDBRANCH   3   9
ENDBRANCH   1   3
BRANCH   2  12
ATOM     12  N   UNL     1       1.977   5.254  21.158  0.00  0.00    +0.000 N 
ATOM     13  H   UNL     1       2.839   5.244  21.701  0.00  0.00    +0.000 HD
BRANCH  12  14
ATOM     14  C   UNL     1       1.366   3.925  21.215  0.00  0.00    +0.000 C 
BRANCH  14  15
ATOM     15  C   UNL     1       2.105   3.024  20.258  0.00  0.00    +0.000 A 
ATOM     16  C   UNL     1       3.444   2.681  20.510  0.00  0.00    +0.000 A 
ATOM     17  C   UNL     1       4.156   1.900  19.597  0.00  0.00    +0.000 A 
ATOM     18  C   UNL     1       3.532   1.470  18.432  0.00  0.00    +0.000 A 
ATOM     19  F   UNL     1       4.221   0.732  17.552  0.00  0.00    +0.000 F 
ATOM     20  C   UNL     1       2.211   1.802  18.161  0.00  0.00    +0.000 A 
ATOM     21  C   UNL     1       1.496   2.582  19.072  0.00  0.00    +0.000 A 
ENDBRANCH  14  15
ENDBRANCH  12  14
ENDBRANCH   2  12
TORSDOF 5
ENDMDL
MODEL 9
REMARK VINA RESULT:      -7.2      3.541      8.905
REMARK  Name = 
REMARK  6 active torsions:
REMARK  status: ('A' for Active; 'I' for Inactive)
REMARK    1  A    between atoms: C_1  and  C_2
REMARK    2  A    between atoms: C_5  and  C_6
REMARK    3  A    between atoms: C_6  and  C_8
REMARK    4  A    between atoms: C_9  and  N_10
REMARK    5  A    between atoms: N_10  and  C_11
REMARK    6  A    between atoms: C_11  and  C_12
REMARK                            x       y       z     vdW  Elec       q    Type
REMARK                         _______ _______ _______ _____ _____    ______ ____
ROOT
ATOM      1  C   UNL     1       8.101   9.556  17.797  0.00  0.00    +0.000 C 
ATOM      2  C   UNL     1       8.019   8.223  17.761  0.00  0.00    +0.000 C 
ENDROOT
BRANCH   1   3
ATOM      3  C   UNL     1       9.045  10.263  18.699  0.00  0.00    +0.000 C 
ATOM      4  O   UNL     1       9.374   9.802  19.785  0.00  0.00    +0.000 OA
BRANCH   3   9
ATOM      5  C   UNL     1      11.256  15.332  16.938  0.00  0.00    +0.000 C 
ATOM      6  C   UNL     1      10.677  14.016  17.366  0.00  0.00    +0.000 A 
ATOM      7  C   UNL     1       9.360  13.923  17.829  0.00  0.00    +0.000 A 
ATOM      8  C   UNL     1       8.838  12.692  18.239  0.00  0.00    +0.000 A 
ATOM      9  C   UNL     1       9.632  11.541  18.203  0.00  0.00    +0.000 A 
ATOM     10  C   UNL     1      10.939  11.626  17.707  0.00  0.00    +0.000 A 
ATOM     11  C   UNL     1      11.460  12.858  17.301  0.00  0.00    +0.000 A 
ENDBRANCH   3   9
ENDBRANCH   1   3
BRANCH   2  12
ATOM     12  N   UNL     1       7.112   7.538  16.976  0.00  0.00    +0.000 N 
ATOM     13  H   UNL     1       6.181   7.945  17.059  0.00  0.00    +0.000 HD
BRANCH  12  14
ATOM     14  C   UNL     1       6.999   6.080  17.039  0.00  0.00    +0.000 C 
BRANCH  14  15
ATOM     15  C   UNL     1       5.548   5.727  17.243  0.00  0.00    +0.000 A 
ATOM     16  C   UNL     1       4.624   6.726  17.589  0.00  0.00    +0.000 A 
ATOM     17  C   UNL     1       3.291   6.398  17.843  0.00  0.00    +0.000 A 
ATOM     18  C   UNL     1       2.885   5.071  17.758  0.00  0.00    +0.000 A 
ATOM     19  F   UNL     1       1.609   4.757  18.014  0.00  0.00    +0.000 F 
ATOM     20  C   UNL     1       3.783   4.067  17.421  0.00  0.00    +0.000 A 
ATOM     21  C   UNL     1       5.117   4.392  17.167  0.00  0.00    +0.000 A 
ENDBRANCH  14  15
ENDBRANCH  12  14
ENDBRANCH   2  12
TORSDOF 5
ENDMDL
