MODEL 1
REMARK VINA RESULT:      -9.3      0.000      0.000
REMARK  Name = 
REMARK  11 active torsions:
REMARK  status: ('A' for Active; 'I' for Inactive)
REMARK    1  A    between atoms: C_1  and  N_2
REMARK    2  A    between atoms: N_2  and  C_3
REMARK    3  A    between atoms: N_2  and  C_21
REMARK    4  A    between atoms: C_3  and  C_4
REMARK    5  A    between atoms: C_4  and  C_5
REMARK    6  A    between atoms: C_5  and  N_6
REMARK    7  A    between atoms: N_6  and  C_7
REMARK    8  A    between atoms: C_21  and  C_22
REMARK    9  A    between atoms: C_22  and  C_23
REMARK   10  A    between atoms: C_23  and  N_24
REMARK   11  A    between atoms: N_24  and  C_25
REMARK                            x       y       z     vdW  Elec       q    Type
REMARK                         _______ _______ _______ _____ _____    ______ ____
ROOT
ATOM      1  C   UNL     1       2.141  12.174  18.376  0.00  0.00    +0.000 C 
ATOM      2  N   UNL     1       0.951  11.602  19.025  0.00  0.00    +0.000 NA
ENDROOT
BRANCH   2   3
ATOM      3  C   UNL     1       1.051  10.120  18.996  0.00  0.00    +0.000 C 
BRANCH   3   4
ATOM      4  C   UNL     1       2.116   9.530  18.039  0.00  0.00    +0.000 C 
BRANCH   4   5
ATOM      5  C   UNL     1       1.909   8.030  17.926  0.00  0.00    +0.000 C 
BRANCH   5   6
ATOM      6  N   UNL     1       2.792   7.219  18.746  0.00  0.00    +0.000 N 
ATOM      7  H   UNL     1       2.464   7.162  19.709  0.00  0.00    +0.000 HD
BRANCH   6   8
ATOM      8  C   UNL     1       3.168   5.903  18.305  0.00  0.00    +0.000 A 
ATOM      9  C   UNL     1       4.140   5.613  17.258  0.00  0.00    +0.000 A 
ATOM     10  C   UNL     1       4.880   6.516  16.414  0.00  0.00    +0.000 A 
ATOM     11  C   UNL     1       5.681   6.110  15.343  0.00  0.00    +0.000 A 
ATOM     12  C   UNL     1       5.798   4.768  15.068  0.00  0.00    +0.000 A 
ATOM     13  C   UNL     1       5.137   3.856  15.889  0.00  0.00    +0.000 A 
ATOM     14  C   UNL     1       4.337   4.244  16.963  0.00  0.00    +0.000 A 
ATOM     15  N   UNL     1       3.745   3.244  17.616  0.00  0.00    +0.000 NA
ATOM     16  C   UNL     1       2.913   3.503  18.625  0.00  0.00    +0.000 A 
ATOM     17  C   UNL     1       2.390   2.406  19.297  0.00  0.00    +0.000 A 
ATOM     18  C   UNL     1       1.521   2.543  20.376  0.00  0.00    +0.000 A 
ATOM     19  C   UNL     1       1.146   3.812  20.785  0.00  0.00    +0.000 A 
ATOM     20  C   UNL     1       1.659   4.928  20.117  0.00  0.00    +0.000 A 
ATOM     21  C   UNL     1       2.567   4.806  19.025  0.00  0.00    +0.000 A 
ENDBRANCH   6   8
ENDBRANCH   5   6
ENDBRANCH   4   5
ENDBRANCH   3   4
ENDBRANCH   2   3
BRANCH   2  22
ATOM     22  C   UNL     1       0.782  12.122  20.398  0.00  0.00    +0.000 C 
BRANCH  22  23
ATOM     23  C   UNL     1      -0.592  11.855  21.065  0.00  0.00    +0.000 C 
BRANCH  23  24
ATOM     24  C   UNL     1      -1.660  12.791  20.506  0.00  0.00    +0.000 C 
BRANCH  24  25
ATOM     25  N   UNL     1      -2.996  12.206  20.451  0.00  0.00    +0.000 N 
ATOM     26  H   UNL     1      -3.587  12.528  21.214  0.00  0.00    +0.000 HD
BRANCH  25  27
ATOM     27  C   UNL     1      -3.762  12.116  19.247  0.00  0.00    +0.000 A 
ATOM     28  C   UNL     1      -3.383  11.385  18.062  0.00  0.00    +0.000 A 
ATOM     29  C   UNL     1      -2.208  10.642  17.850  0.00  0.00    +0.000 A 
ATOM     30  C   UNL     1      -2.011   9.887  16.706  0.00  0.00    +0.000 A 
ATOM     31  C   UNL     1      -2.864   9.974  15.635  0.00  0.00    +0.000 A 
ATOM     32  C   UNL     1      -4.005  10.733  15.783  0.00  0.00    +0.000 A 
ATOM     33  C   UNL     1      -4.297  11.370  16.978  0.00  0.00    +0.000 A 
ATOM     34  N   UNL     1      -5.496  11.928  17.009  0.00  0.00    +0.000 NA
ATOM     35  C   UNL     1      -5.886  12.522  18.124  0.00  0.00    +0.000 A 
ATOM     36  C   UNL     1      -7.199  12.963  18.119  0.00  0.00    +0.000 A 
ATOM     37  C   UNL     1      -7.752  13.623  19.209  0.00  0.00    +0.000 A 
ATOM     38  C   UNL     1      -6.974  13.839  20.333  0.00  0.00    +0.000 A 
ATOM     39  C   UNL     1      -5.659  13.375  20.372  0.00  0.00    +0.000 A 
ATOM     40  C   UNL     1      -5.078  12.685  19.273  0.00  0.00    +0.000 A 
ENDBRANCH  25  27
ENDBRANCH  24  25
ENDBRANCH  23  24
ENDBRANCH  22  23
ENDBRANCH   2  22
TORSDOF 10
ENDMDL
MODEL 2
REMARK VINA RESULT:      -9.2      1.171     10.191
REMARK  Name = 
REMARK  11 active torsions:
REMARK  status: ('A' for Active; 'I' for Inactive)
REMARK    1  A    between atoms: C_1  and  N_2
REMARK    2  A    between atoms: N_2  and  C_3
REMARK    3  A    between atoms: N_2  and  C_21
REMARK    4  A    between atoms: C_3  and  C_4
REMARK    5  A    between atoms: C_4  and  C_5
REMARK    6  A    between atoms: C_5  and  N_6
REMARK    7  A    between atoms: N_6  and  C_7
REMARK    8  A    between atoms: C_21  and  C_22
REMARK    9  A    between atoms: C_22  and  C_23
REMARK   10  A    between atoms: C_23  and  N_24
REMARK   11  A    between atoms: N_24  and  C_25
REMARK                            x       y       z     vdW  Elec       q    Type
REMARK                         _______ _______ _______ _____ _____    ______ ____
ROOT
ATOM      1  C   UNL     1      -0.536   9.684  23.057  0.00  0.00    +0.000 C 
ATOM      2  N   UNL     1      -0.548  10.380  21.762  0.00  0.00    +0.000 NA
ENDROOT
BRANCH   2   3
ATOM      3  C   UNL     1      -0.605  11.845  22.001  0.00  0.00    +0.000 C 
BRANCH   3   4
ATOM      4  C   UNL     1      -0.632  12.739  20.737  0.00  0.00    +0.000 C 
BRANCH   4   5
ATOM      5  C   UNL     1      -2.005  13.374  20.604  0.00  0.00    +0.000 C 
BRANCH   5   6
ATOM      6  N   UNL     1      -3.121  12.444  20.615  0.00  0.00    +0.000 N 
ATOM      7  H   UNL     1      -3.765  12.637  21.381  0.00  0.00    +0.000 HD
BRANCH   6   8
ATOM      8  C   UNL     1      -3.881  12.227  19.414  0.00  0.00    +0.000 A 
ATOM      9  C   UNL     1      -3.449  11.417  18.280  0.00  0.00    +0.000 A 
ATOM     10  C   UNL     1      -2.206  10.721  18.067  0.00  0.00    +0.000 A 
ATOM     11  C   UNL     1      -1.853  10.092  16.870  0.00  0.00    +0.000 A 
ATOM     12  C   UNL     1      -2.741  10.113  15.820  0.00  0.00    +0.000 A 
ATOM     13  C   UNL     1      -3.976  10.734  15.998  0.00  0.00    +0.000 A 
ATOM     14  C   UNL     1      -4.343  11.363  17.187  0.00  0.00    +0.000 A 
ATOM     15  N   UNL     1      -5.544  11.943  17.171  0.00  0.00    +0.000 NA
ATOM     16  C   UNL     1      -5.974  12.620  18.235  0.00  0.00    +0.000 A 
ATOM     17  C   UNL     1      -7.261  13.137  18.164  0.00  0.00    +0.000 A 
ATOM     18  C   UNL     1      -7.831  13.853  19.214  0.00  0.00    +0.000 A 
ATOM     19  C   UNL     1      -7.088  14.077  20.361  0.00  0.00    +0.000 A 
ATOM     20  C   UNL     1      -5.789  13.568  20.447  0.00  0.00    +0.000 A 
ATOM     21  C   UNL     1      -5.199  12.814  19.391  0.00  0.00    +0.000 A 
ENDBRANCH   6   8
ENDBRANCH   5   6
ENDBRANCH   4   5
ENDBRANCH   3   4
ENDBRANCH   2   3
BRANCH   2  22
ATOM     22  C   UNL     1       0.613   9.997  20.931  0.00  0.00    +0.000 C 
BRANCH  22  23
ATOM     23  C   UNL     1       1.187   8.577  21.174  0.00  0.00    +0.000 C 
BRANCH  23  24
ATOM     24  C   UNL     1       1.718   7.974  19.876  0.00  0.00    +0.000 C 
BRANCH  24  25
ATOM     25  N   UNL     1       2.749   6.958  20.068  0.00  0.00    +0.000 N 
ATOM     26  H   UNL     1       2.777   6.619  21.027  0.00  0.00    +0.000 HD
BRANCH  25  27
ATOM     27  C   UNL     1       2.956   5.873  19.161  0.00  0.00    +0.000 A 
ATOM     28  C   UNL     1       3.837   5.889  18.018  0.00  0.00    +0.000 A 
ATOM     29  C   UNL     1       4.640   6.951  17.567  0.00  0.00    +0.000 A 
ATOM     30  C   UNL     1       5.533   6.806  16.519  0.00  0.00    +0.000 A 
ATOM     31  C   UNL     1       5.546   5.675  15.742  0.00  0.00    +0.000 A 
ATOM     32  C   UNL     1       4.737   4.626  16.121  0.00  0.00    +0.000 A 
ATOM     33  C   UNL     1       3.951   4.697  17.259  0.00  0.00    +0.000 A 
ATOM     34  N   UNL     1       3.353   3.558  17.569  0.00  0.00    +0.000 NA
ATOM     35  C   UNL     1       2.616   3.511  18.666  0.00  0.00    +0.000 A 
ATOM     36  C   UNL     1       2.135   2.254  18.989  0.00  0.00    +0.000 A 
ATOM     37  C   UNL     1       1.329   2.043  20.102  0.00  0.00    +0.000 A 
ATOM     38  C   UNL     1       1.007   3.117  20.914  0.00  0.00    +0.000 A 
ATOM     39  C   UNL     1       1.507   4.386  20.624  0.00  0.00    +0.000 A 
ATOM     40  C   UNL     1       2.344   4.621  19.499  0.00  0.00    +0.000 A 
ENDBRANCH  25  27
ENDBRANCH  24  25
ENDBRANCH  23  24
ENDBRANCH  22  23
ENDBRANCH   2  22
TORSDOF 10
ENDMDL
MODEL 3
REMARK VINA RESULT:      -9.1      1.191      1.501
REMARK  Name = 
REMARK  11 active torsions:
REMARK  status: ('A' for Active; 'I' for Inactive)
REMARK    1  A    between atoms: C_1  and  N_2
REMARK    2  A    between atoms: N_2  and  C_3
REMARK    3  A    between atoms: N_2  and  C_21
REMARK    4  A    between atoms: C_3  and  C_4
REMARK    5  A    between atoms: C_4  and  C_5
REMARK    6  A    between atoms: C_5  and  N_6
REMARK    7  A    between atoms: N_6  and  C_7
REMARK    8  A    between atoms: C_21  and  C_22
REMARK    9  A    between atoms: C_22  and  C_23
REMARK   10  A    between atoms: C_23  and  N_24
REMARK   11  A    between atoms: N_24  and  C_25
REMARK                            x       y       z     vdW  Elec       q    Type
REMARK                         _______ _______ _______ _____ _____    ______ ____
ROOT
ATOM      1  C   UNL     1       1.177   8.563  21.354  0.00  0.00    +0.000 C 
ATOM      2  N   UNL     1       0.760   9.817  20.709  0.00  0.00    +0.000 NA
ENDROOT
BRANCH   2   3
ATOM      3  C   UNL     1       0.538   9.565  19.262  0.00  0.00    +0.000 C 
BRANCH   3   4
ATOM      4  C   UNL     1       1.807   9.548  18.374  0.00  0.00    +0.000 C 
BRANCH   4   5
ATOM      5  C   UNL     1       2.032   8.139  17.854  0.00  0.00    +0.000 C 
BRANCH   5   6
ATOM      6  N   UNL     1       2.866   7.296  18.691  0.00  0.00    +0.000 N 
ATOM      7  H   UNL     1       2.511   7.245  19.646  0.00  0.00    +0.000 HD
BRANCH   6   8
ATOM      8  C   UNL     1       3.209   5.970  18.254  0.00  0.00    +0.000 A 
ATOM      9  C   UNL     1       4.178   5.653  17.211  0.00  0.00    +0.000 A 
ATOM     10  C   UNL     1       4.946   6.535  16.369  0.00  0.00    +0.000 A 
ATOM     11  C   UNL     1       5.741   6.109  15.302  0.00  0.00    +0.000 A 
ATOM     12  C   UNL     1       5.823   4.763  15.029  0.00  0.00    +0.000 A 
ATOM     13  C   UNL     1       5.135   3.869  15.848  0.00  0.00    +0.000 A 
ATOM     14  C   UNL     1       4.340   4.280  16.917  0.00  0.00    +0.000 A 
ATOM     15  N   UNL     1       3.719   3.295  17.569  0.00  0.00    +0.000 NA
ATOM     16  C   UNL     1       2.891   3.578  18.574  0.00  0.00    +0.000 A 
ATOM     17  C   UNL     1       2.336   2.495  19.244  0.00  0.00    +0.000 A 
ATOM     18  C   UNL     1       1.465   2.656  20.320  0.00  0.00    +0.000 A 
ATOM     19  C   UNL     1       1.122   3.934  20.725  0.00  0.00    +0.000 A 
ATOM     20  C   UNL     1       1.667   5.036  20.059  0.00  0.00    +0.000 A 
ATOM     21  C   UNL     1       2.577   4.889  18.971  0.00  0.00    +0.000 A 
ENDBRANCH   6   8
ENDBRANCH   5   6
ENDBRANCH   4   5
ENDBRANCH   3   4
ENDBRANCH   2   3
BRANCH   2  22
ATOM     22  C   UNL     1      -0.435  10.390  21.364  0.00  0.00    +0.000 C 
BRANCH  22  23
ATOM     23  C   UNL     1      -0.483  11.937  21.463  0.00  0.00    +0.000 C 
BRANCH  23  24
ATOM     24  C   UNL     1      -1.829  12.407  22.008  0.00  0.00    +0.000 C 
BRANCH  24  25
ATOM     25  N   UNL     1      -2.615  13.191  21.060  0.00  0.00    +0.000 N 
ATOM     26  H   UNL     1      -2.034  13.818  20.509  0.00  0.00    +0.000 HD
BRANCH  25  27
ATOM     27  C   UNL     1      -3.639  12.626  20.238  0.00  0.00    +0.000 A 
ATOM     28  C   UNL     1      -3.436  11.994  18.957  0.00  0.00    +0.000 A 
ATOM     29  C   UNL     1      -2.223  11.821  18.267  0.00  0.00    +0.000 A 
ATOM     30  C   UNL     1      -2.141  11.093  17.092  0.00  0.00    +0.000 A 
ATOM     31  C   UNL     1      -3.268  10.663  16.436  0.00  0.00    +0.000 A 
ATOM     32  C   UNL     1      -4.483  10.857  17.055  0.00  0.00    +0.000 A 
ATOM     33  C   UNL     1      -4.570  11.445  18.306  0.00  0.00    +0.000 A 
ATOM     34  N   UNL     1      -5.786  11.420  18.827  0.00  0.00    +0.000 NA
ATOM     35  C   UNL     1      -5.962  11.917  20.040  0.00  0.00    +0.000 A 
ATOM     36  C   UNL     1      -7.230  11.733  20.565  0.00  0.00    +0.000 A 
ATOM     37  C   UNL     1      -7.579  12.214  21.821  0.00  0.00    +0.000 A 
ATOM     38  C   UNL     1      -6.630  12.887  22.572  0.00  0.00    +0.000 A 
ATOM     39  C   UNL     1      -5.338  13.055  22.076  0.00  0.00    +0.000 A 
ATOM     40  C   UNL     1      -4.957  12.558  20.800  0.00  0.00    +0.000 A 
ENDBRANCH  25  27
ENDBRANCH  24  25
ENDBRANCH  23  24
ENDBRANCH  22  23
ENDBRANCH   2  22
TORSDOF 10
ENDMDL
MODEL 4
REMARK VINA RESULT:      -9.1      1.709     10.549
REMARK  Name = 
REMARK  11 active torsions:
REMARK  status: ('A' for Active; 'I' for Inactive)
REMARK    1  A    between atoms: C_1  and  N_2
REMARK    2  A    between atoms: N_2  and  C_3
REMARK    3  A    between atoms: N_2  and  C_21
REMARK    4  A    between atoms: C_3  and  C_4
REMARK    5  A    between atoms: C_4  and  C_5
REMARK    6  A    between atoms: C_5  and  N_6
REMARK    7  A    between atoms: N_6  and  C_7
REMARK    8  A    between atoms: C_21  and  C_22
REMARK    9  A    between atoms: C_22  and  C_23
REMARK   10  A    between atoms: C_23  and  N_24
REMARK   11  A    between atoms: N_24  and  C_25
REMARK                            x       y       z     vdW  Elec       q    Type
REMARK                         _______ _______ _______ _____ _____    ______ ____
ROOT
ATOM      1  C   UNL     1      -0.148   8.368  21.487  0.00  0.00    +0.000 C 
ATOM      2  N   UNL     1       0.025   9.432  20.487  0.00  0.00    +0.000 NA
ENDROOT
BRANCH   2   3
ATOM      3  C   UNL     1      -0.181  10.749  21.141  0.00  0.00    +0.000 C 
BRANCH   3   4
ATOM      4  C   UNL     1       0.022  11.993  20.242  0.00  0.00    +0.000 C 
BRANCH   4   5
ATOM      5  C   UNL     1      -1.141  12.103  19.272  0.00  0.00    +0.000 C 
BRANCH   5   6
ATOM      6  N   UNL     1      -2.092  13.162  19.562  0.00  0.00    +0.000 N 
ATOM      7  H   UNL     1      -2.290  13.726  18.737  0.00  0.00    +0.000 HD
BRANCH   6   8
ATOM      8  C   UNL     1      -3.332  12.848  20.217  0.00  0.00    +0.000 A 
ATOM      9  C   UNL     1      -4.481  12.211  19.583  0.00  0.00    +0.000 A 
ATOM     10  C   UNL     1      -4.670  11.812  18.212  0.00  0.00    +0.000 A 
ATOM     11  C   UNL     1      -5.878  11.337  17.692  0.00  0.00    +0.000 A 
ATOM     12  C   UNL     1      -6.963  11.221  18.528  0.00  0.00    +0.000 A 
ATOM     13  C   UNL     1      -6.811  11.550  19.874  0.00  0.00    +0.000 A 
ATOM     14  C   UNL     1      -5.613  12.022  20.408  0.00  0.00    +0.000 A 
ATOM     15  N   UNL     1      -5.656  12.329  21.705  0.00  0.00    +0.000 NA
ATOM     16  C   UNL     1      -4.582  12.842  22.306  0.00  0.00    +0.000 A 
ATOM     17  C   UNL     1      -4.686  13.072  23.672  0.00  0.00    +0.000 A 
ATOM     18  C   UNL     1      -3.631  13.592  24.419  0.00  0.00    +0.000 A 
ATOM     19  C   UNL     1      -2.445  13.911  23.780  0.00  0.00    +0.000 A 
ATOM     20  C   UNL     1      -2.325  13.691  22.404  0.00  0.00    +0.000 A 
ATOM     21  C   UNL     1      -3.386  13.138  21.630  0.00  0.00    +0.000 A 
ENDBRANCH   6   8
ENDBRANCH   5   6
ENDBRANCH   4   5
ENDBRANCH   3   4
ENDBRANCH   2   3
BRANCH   2  22
ATOM     22  C   UNL     1       1.342   9.340  19.822  0.00  0.00    +0.000 C 
BRANCH  22  23
ATOM     23  C   UNL     1       1.335   9.437  18.275  0.00  0.00    +0.000 C 
BRANCH  23  24
ATOM     24  C   UNL     1       2.157   8.311  17.654  0.00  0.00    +0.000 C 
BRANCH  24  25
ATOM     25  N   UNL     1       2.642   7.326  18.618  0.00  0.00    +0.000 N 
ATOM     26  H   UNL     1       2.065   7.295  19.455  0.00  0.00    +0.000 HD
BRANCH  25  27
ATOM     27  C   UNL     1       3.040   6.003  18.251  0.00  0.00    +0.000 A 
ATOM     28  C   UNL     1       4.048   5.670  17.274  0.00  0.00    +0.000 A 
ATOM     29  C   UNL     1       4.815   6.554  16.494  0.00  0.00    +0.000 A 
ATOM     30  C   UNL     1       5.837   6.113  15.670  0.00  0.00    +0.000 A 
ATOM     31  C   UNL     1       6.032   4.777  15.424  0.00  0.00    +0.000 A 
ATOM     32  C   UNL     1       5.267   3.876  16.132  0.00  0.00    +0.000 A 
ATOM     33  C   UNL     1       4.346   4.297  17.077  0.00  0.00    +0.000 A 
ATOM     34  N   UNL     1       3.805   3.312  17.775  0.00  0.00    +0.000 NA
ATOM     35  C   UNL     1       2.947   3.617  18.735  0.00  0.00    +0.000 A 
ATOM     36  C   UNL     1       2.529   2.544  19.503  0.00  0.00    +0.000 A 
ATOM     37  C   UNL     1       1.614   2.697  20.537  0.00  0.00    +0.000 A 
ATOM     38  C   UNL     1       1.114   3.958  20.813  0.00  0.00    +0.000 A 
ATOM     39  C   UNL     1       1.546   5.058  20.073  0.00  0.00    +0.000 A 
ATOM     40  C   UNL     1       2.491   4.925  19.020  0.00  0.00    +0.000 A 
ENDBRANCH  25  27
ENDBRANCH  24  25
ENDBRANCH  23  24
ENDBRANCH  22  23
ENDBRANCH   2  22
TORSDOF 10
ENDMDL
MODEL 5
REMARK VINA RESULT:      -8.9      1.742     10.895
REMARK  Name = 
REMARK  11 active torsions:
REMARK  status: ('A' for Active; 'I' for Inactive)
REMARK    1  A    between atoms: C_1  and  N_2
REMARK    2  A    between atoms: N_2  and  C_3
REMARK    3  A    between atoms: N_2  and  C_21
REMARK    4  A    between atoms: C_3  and  C_4
REMARK    5  A    between atoms: C_4  and  C_5
REMARK    6  A    between atoms: C_5  and  N_6
REMARK    7  A    between atoms: N_6  and  C_7
REMARK    8  A    between atoms: C_21  and  C_22
REMARK    9  A    between atoms: C_22  and  C_23
REMARK   10  A    between atoms: C_23  and  N_24
REMARK   11  A    between atoms: N_24  and  C_25
REMARK                            x       y       z     vdW  Elec       q    Type
REMARK                         _______ _______ _______ _____ _____    ______ ____
ROOT
ATOM      1  C   UNL     1       1.224   8.736  21.685  0.00  0.00    +0.000 C 
ATOM      2  N   UNL     1       0.617   9.333  20.487  0.00  0.00    +0.000 NA
ENDROOT
BRANCH   2   3
ATOM      3  C   UNL     1      -0.205  10.502  20.892  0.00  0.00    +0.000 C 
BRANCH   3   4
ATOM      4  C   UNL     1      -1.368  10.877  19.941  0.00  0.00    +0.000 C 
BRANCH   4   5
ATOM      5  C   UNL     1      -1.121  12.265  19.375  0.00  0.00    +0.000 C 
BRANCH   5   6
ATOM      6  N   UNL     1      -2.278  13.142  19.360  0.00  0.00    +0.000 N 
ATOM      7  H   UNL     1      -2.633  13.281  18.414  0.00  0.00    +0.000 HD
BRANCH   6   8
ATOM      8  C   UNL     1      -3.387  12.877  20.236  0.00  0.00    +0.000 A 
ATOM      9  C   UNL     1      -3.447  13.233  21.649  0.00  0.00    +0.000 A 
ATOM     10  C   UNL     1      -2.448  13.850  22.485  0.00  0.00    +0.000 A 
ATOM     11  C   UNL     1      -2.573  14.012  23.867  0.00  0.00    +0.000 A 
ATOM     12  C   UNL     1      -3.719  13.576  24.489  0.00  0.00    +0.000 A 
ATOM     13  C   UNL     1      -4.732  13.016  23.711  0.00  0.00    +0.000 A 
ATOM     14  C   UNL     1      -4.624  12.851  22.332  0.00  0.00    +0.000 A 
ATOM     15  N   UNL     1      -5.669  12.259  21.750  0.00  0.00    +0.000 NA
ATOM     16  C   UNL     1      -5.649  12.001  20.443  0.00  0.00    +0.000 A 
ATOM     17  C   UNL     1      -6.801  11.445  19.902  0.00  0.00    +0.000 A 
ATOM     18  C   UNL     1      -6.912  11.140  18.548  0.00  0.00    +0.000 A 
ATOM     19  C   UNL     1      -5.835  11.378  17.712  0.00  0.00    +0.000 A 
ATOM     20  C   UNL     1      -4.665  11.933  18.240  0.00  0.00    +0.000 A 
ATOM     21  C   UNL     1      -4.543  12.272  19.619  0.00  0.00    +0.000 A 
ENDBRANCH   6   8
ENDBRANCH   5   6
ENDBRANCH   4   5
ENDBRANCH   3   4
ENDBRANCH   2   3
BRANCH   2  22
ATOM     22  C   UNL     1       1.641   9.694  19.484  0.00  0.00    +0.000 C 
BRANCH  22  23
ATOM     23  C   UNL     1       1.297   9.369  18.008  0.00  0.00    +0.000 C 
BRANCH  23  24
ATOM     24  C   UNL     1       2.047   8.127  17.534  0.00  0.00    +0.000 C 
BRANCH  24  25
ATOM     25  N   UNL     1       2.759   7.420  18.594  0.00  0.00    +0.000 N 
ATOM     26  H   UNL     1       2.353   7.597  19.511  0.00  0.00    +0.000 HD
BRANCH  25  27
ATOM     27  C   UNL     1       3.152   6.049  18.492  0.00  0.00    +0.000 A 
ATOM     28  C   UNL     1       2.604   4.957  19.260  0.00  0.00    +0.000 A 
ATOM     29  C   UNL     1       1.606   5.018  20.248  0.00  0.00    +0.000 A 
ATOM     30  C   UNL     1       1.080   3.879  20.835  0.00  0.00    +0.000 A 
ATOM     31  C   UNL     1       1.637   2.643  20.624  0.00  0.00    +0.000 A 
ATOM     32  C   UNL     1       2.653   2.547  19.698  0.00  0.00    +0.000 A 
ATOM     33  C   UNL     1       3.086   3.652  18.985  0.00  0.00    +0.000 A 
ATOM     34  N   UNL     1       3.957   3.367  18.030  0.00  0.00    +0.000 NA
ATOM     35  C   UNL     1       4.396   4.351  17.263  0.00  0.00    +0.000 A 
ATOM     36  C   UNL     1       5.197   3.952  16.208  0.00  0.00    +0.000 A 
ATOM     37  C   UNL     1       5.752   4.868  15.323  0.00  0.00    +0.000 A 
ATOM     38  C   UNL     1       5.489   6.216  15.496  0.00  0.00    +0.000 A 
ATOM     39  C   UNL     1       4.657   6.638  16.533  0.00  0.00    +0.000 A 
ATOM     40  C   UNL     1       4.068   5.715  17.440  0.00  0.00    +0.000 A 
ENDBRANCH  25  27
ENDBRANCH  24  25
ENDBRANCH  23  24
ENDBRANCH  22  23
ENDBRANCH   2  22
TORSDOF 10
ENDMDL
MODEL 6
REMARK VINA RESULT:      -8.9      1.736      4.453
REMARK  Name = 
REMARK  11 active torsions:
REMARK  status: ('A' for Active; 'I' for Inactive)
REMARK    1  A    between atoms: C_1  and  N_2
REMARK    2  A    between atoms: N_2  and  C_3
REMARK    3  A    between atoms: N_2  and  C_21
REMARK    4  A    between atoms: C_3  and  C_4
REMARK    5  A    between atoms: C_4  and  C_5
REMARK    6  A    between atoms: C_5  and  N_6
REMARK    7  A    between atoms: N_6  and  C_7
REMARK    8  A    between atoms: C_21  and  C_22
REMARK    9  A    between atoms: C_22  and  C_23
REMARK   10  A    between atoms: C_23  and  N_24
REMARK   11  A    between atoms: N_24  and  C_25
REMARK                            x       y       z     vdW  Elec       q    Type
REMARK                         _______ _______ _______ _____ _____    ______ ____
ROOT
ATOM      1  C   UNL     1      -0.070   9.142  21.699  0.00  0.00    +0.000 C 
ATOM      2  N   UNL     1       1.011   9.595  20.809  0.00  0.00    +0.000 NA
ENDROOT
BRANCH   2   3
ATOM      3  C   UNL     1       1.189   8.600  19.721  0.00  0.00    +0.000 C 
BRANCH   3   4
ATOM      4  C   UNL     1       1.761   9.146  18.389  0.00  0.00    +0.000 C 
BRANCH   4   5
ATOM      5  C   UNL     1       2.433   8.013  17.633  0.00  0.00    +0.000 C 
BRANCH   5   6
ATOM      6  N   UNL     1       3.349   7.204  18.417  0.00  0.00    +0.000 N 
ATOM      7  H   UNL     1       3.212   7.342  19.418  0.00  0.00    +0.000 HD
BRANCH   6   8
ATOM      8  C   UNL     1       3.460   5.794  18.156  0.00  0.00    +0.000 A 
ATOM      9  C   UNL     1       2.668   4.754  18.802  0.00  0.00    +0.000 A 
ATOM     10  C   UNL     1       1.677   4.865  19.841  0.00  0.00    +0.000 A 
ATOM     11  C   UNL     1       1.085   3.773  20.482  0.00  0.00    +0.000 A 
ATOM     12  C   UNL     1       1.445   2.502  20.101  0.00  0.00    +0.000 A 
ATOM     13  C   UNL     1       2.366   2.347  19.065  0.00  0.00    +0.000 A 
ATOM     14  C   UNL     1       2.962   3.426  18.415  0.00  0.00    +0.000 A 
ATOM     15  N   UNL     1       3.852   3.098  17.477  0.00  0.00    +0.000 NA
ATOM     16  C   UNL     1       4.523   4.051  16.830  0.00  0.00    +0.000 A 
ATOM     17  C   UNL     1       5.381   3.631  15.822  0.00  0.00    +0.000 A 
ATOM     18  C   UNL     1       6.130   4.527  15.064  0.00  0.00    +0.000 A 
ATOM     19  C   UNL     1       6.035   5.882  15.333  0.00  0.00    +0.000 A 
ATOM     20  C   UNL     1       5.180   6.323  16.347  0.00  0.00    +0.000 A 
ATOM     21  C   UNL     1       4.390   5.420  17.117  0.00  0.00    +0.000 A 
ENDBRANCH   6   8
ENDBRANCH   5   6
ENDBRANCH   4   5
ENDBRANCH   3   4
ENDBRANCH   2   3
BRANCH   2  22
ATOM     22  C   UNL     1       0.747  10.952  20.285  0.00  0.00    +0.000 C 
BRANCH  22  23
ATOM     23  C   UNL     1      -0.693  11.492  20.482  0.00  0.00    +0.000 C 
BRANCH  23  24
ATOM     24  C   UNL     1      -1.188  12.198  19.223  0.00  0.00    +0.000 C 
BRANCH  24  25
ATOM     25  N   UNL     1      -2.305  13.110  19.451  0.00  0.00    +0.000 N 
ATOM     26  H   UNL     1      -2.654  13.511  18.584  0.00  0.00    +0.000 HD
BRANCH  25  27
ATOM     27  C   UNL     1      -3.397  12.806  20.322  0.00  0.00    +0.000 A 
ATOM     28  C   UNL     1      -3.477  13.147  21.721  0.00  0.00    +0.000 A 
ATOM     29  C   UNL     1      -2.516  13.819  22.498  0.00  0.00    +0.000 A 
ATOM     30  C   UNL     1      -2.758  14.191  23.810  0.00  0.00    +0.000 A 
ATOM     31  C   UNL     1      -3.873  13.758  24.482  0.00  0.00    +0.000 A 
ATOM     32  C   UNL     1      -4.819  13.053  23.770  0.00  0.00    +0.000 A 
ATOM     33  C   UNL     1      -4.665  12.806  22.416  0.00  0.00    +0.000 A 
ATOM     34  N   UNL     1      -5.725  12.255  21.848  0.00  0.00    +0.000 NA
ATOM     35  C   UNL     1      -5.694  12.022  20.546  0.00  0.00    +0.000 A 
ATOM     36  C   UNL     1      -6.886  11.569  20.008  0.00  0.00    +0.000 A 
ATOM     37  C   UNL     1      -7.009  11.261  18.659  0.00  0.00    +0.000 A 
ATOM     38  C   UNL     1      -5.913  11.421  17.828  0.00  0.00    +0.000 A 
ATOM     39  C   UNL     1      -4.711  11.907  18.344  0.00  0.00    +0.000 A 
ATOM     40  C   UNL     1      -4.569  12.241  19.718  0.00  0.00    +0.000 A 
ENDBRANCH  25  27
ENDBRANCH  24  25
ENDBRANCH  23  24
ENDBRANCH  22  23
ENDBRANCH   2  22
TORSDOF 10
ENDMDL
MODEL 7
REMARK VINA RESULT:      -8.8      5.622     10.323
REMARK  Name = 
REMARK  11 active torsions:
REMARK  status: ('A' for Active; 'I' for Inactive)
REMARK    1  A    between atoms: C_1  and  N_2
REMARK    2  A    between atoms: N_2  and  C_3
REMARK    3  A    between atoms: N_2  and  C_21
REMARK    4  A    between atoms: C_3  and  C_4
REMARK    5  A    between atoms: C_4  and  C_5
REMARK    6  A    between atoms: C_5  and  N_6
REMARK    7  A    between atoms: N_6  and  C_7
REMARK    8  A    between atoms: C_21  and  C_22
REMARK    9  A    between atoms: C_22  and  C_23
REMARK   10  A    between atoms: C_23  and  N_24
REMARK   11  A    between atoms: N_24  and  C_25
REMARK                            x       y       z     vdW  Elec       q    Type
REMARK                         _______ _______ _______ _____ _____    ______ ____
ROOT
ATOM      1  C   UNL     1       7.971   6.059  19.228  0.00  0.00    +0.000 C 
ATOM      2  N   UNL     1       7.300   6.547  18.013  0.00  0.00    +0.000 NA
ENDROOT
BRANCH   2   3
ATOM      3  C   UNL     1       8.071   7.691  17.462  0.00  0.00    +0.000 C 
BRANCH   3   4
ATOM      4  C   UNL     1       7.703   9.088  18.019  0.00  0.00    +0.000 C 
BRANCH   4   5
ATOM      5  C   UNL     1       8.966   9.921  18.151  0.00  0.00    +0.000 C 
BRANCH   5   6
ATOM      6  N   UNL     1       9.297  10.333  19.504  0.00  0.00    +0.000 N 
ATOM      7  H   UNL     1      10.018   9.739  19.912  0.00  0.00    +0.000 HD
BRANCH   6   8
ATOM      8  C   UNL     1       9.622  11.707  19.773  0.00  0.00    +0.000 A 
ATOM      9  C   UNL     1      10.247  12.624  18.827  0.00  0.00    +0.000 A 
ATOM     10  C   UNL     1      10.718  12.384  17.487  0.00  0.00    +0.000 A 
ATOM     11  C   UNL     1      11.432  13.314  16.727  0.00  0.00    +0.000 A 
ATOM     12  C   UNL     1      11.700  14.550  17.266  0.00  0.00    +0.000 A 
ATOM     13  C   UNL     1      11.222  14.843  18.543  0.00  0.00    +0.000 A 
ATOM     14  C   UNL     1      10.506  13.927  19.311  0.00  0.00    +0.000 A 
ATOM     15  N   UNL     1      10.161  14.357  20.526  0.00  0.00    +0.000 NA
ATOM     16  C   UNL     1       9.521  13.545  21.367  0.00  0.00    +0.000 A 
ATOM     17  C   UNL     1       9.138  14.089  22.586  0.00  0.00    +0.000 A 
ATOM     18  C   UNL     1       8.453  13.348  23.546  0.00  0.00    +0.000 A 
ATOM     19  C   UNL     1       8.159  12.019  23.290  0.00  0.00    +0.000 A 
ATOM     20  C   UNL     1       8.542  11.453  22.070  0.00  0.00    +0.000 A 
ATOM     21  C   UNL     1       9.224  12.204  21.068  0.00  0.00    +0.000 A 
ENDBRANCH   6   8
ENDBRANCH   5   6
ENDBRANCH   4   5
ENDBRANCH   3   4
ENDBRANCH   2   3
BRANCH   2  22
ATOM     22  C   UNL     1       7.124   5.465  17.021  0.00  0.00    +0.000 C 
BRANCH  22  23
ATOM     23  C   UNL     1       6.168   5.771  15.840  0.00  0.00    +0.000 C 
BRANCH  23  24
ATOM     24  C   UNL     1       4.848   6.349  16.343  0.00  0.00    +0.000 C 
BRANCH  24  25
ATOM     25  N   UNL     1       4.047   5.412  17.125  0.00  0.00    +0.000 N 
ATOM     26  H   UNL     1       4.524   4.525  17.266  0.00  0.00    +0.000 HD
BRANCH  25  27
ATOM     27  C   UNL     1       3.350   5.785  18.317  0.00  0.00    +0.000 A 
ATOM     28  C   UNL     1       2.708   7.055  18.554  0.00  0.00    +0.000 A 
ATOM     29  C   UNL     1       2.650   8.163  17.690  0.00  0.00    +0.000 A 
ATOM     30  C   UNL     1       1.903   9.290  17.986  0.00  0.00    +0.000 A 
ATOM     31  C   UNL     1       1.334   9.467  19.222  0.00  0.00    +0.000 A 
ATOM     32  C   UNL     1       1.410   8.423  20.119  0.00  0.00    +0.000 A 
ATOM     33  C   UNL     1       2.020   7.226  19.782  0.00  0.00    +0.000 A 
ATOM     34  N   UNL     1       1.876   6.276  20.692  0.00  0.00    +0.000 NA
ATOM     35  C   UNL     1       2.384   5.081  20.442  0.00  0.00    +0.000 A 
ATOM     36  C   UNL     1       2.078   4.111  21.380  0.00  0.00    +0.000 A 
ATOM     37  C   UNL     1       2.552   2.810  21.269  0.00  0.00    +0.000 A 
ATOM     38  C   UNL     1       3.346   2.472  20.186  0.00  0.00    +0.000 A 
ATOM     39  C   UNL     1       3.641   3.426  19.212  0.00  0.00    +0.000 A 
ATOM     40  C   UNL     1       3.154   4.758  19.300  0.00  0.00    +0.000 A 
ENDBRANCH  25  27
ENDBRANCH  24  25
ENDBRANCH  23  24
ENDBRANCH  22  23
ENDBRANCH   2  22
TORSDOF 10
ENDMDL
MODEL 8
REMARK VINA RESULT:      -8.8      0.935     10.362
REMARK  Name = 
REMARK  11 active torsions:
REMARK  status: ('A' for Active; 'I' for Inactive)
REMARK    1  A    between atoms: C_1  and  N_2
REMARK    2  A    between atoms: N_2  and  C_3
REMARK    3  A    between atoms: N_2  and  C_21
REMARK    4  A    between atoms: C_3  and  C_4
REMARK    5  A    between atoms: C_4  and  C_5
REMARK    6  A    between atoms: C_5  and  N_6
REMARK    7  A    between atoms: N_6  and  C_7
REMARK    8  A    between atoms: C_21  and  C_22
REMARK    9  A    between atoms: C_22  and  C_23
REMARK   10  A    between atoms: C_23  and  N_24
REMARK   11  A    between atoms: N_24  and  C_25
REMARK                            x       y       z     vdW  Elec       q    Type
REMARK                         _______ _______ _______ _____ _____    ______ ____
ROOT
ATOM      1  C   UNL     1       0.811   9.731  21.995  0.00  0.00    +0.000 C 
ATOM      2  N   UNL     1       0.267  10.413  20.811  0.00  0.00    +0.000 NA
ENDROOT
BRANCH   2   3
ATOM      3  C   UNL     1       1.043  11.657  20.571  0.00  0.00    +0.000 C 
BRANCH   3   4
ATOM      4  C   UNL     1       0.406  12.676  19.594  0.00  0.00    +0.000 C 
BRANCH   4   5
ATOM      5  C   UNL     1      -0.837  13.270  20.233  0.00  0.00    +0.000 C 
BRANCH   5   6
ATOM      6  N   UNL     1      -1.889  12.318  20.544  0.00  0.00    +0.000 N 
ATOM      7  H   UNL     1      -2.171  12.376  21.522  0.00  0.00    +0.000 HD
BRANCH   6   8
ATOM      8  C   UNL     1      -3.068  12.264  19.724  0.00  0.00    +0.000 A 
ATOM      9  C   UNL     1      -3.169  11.579  18.441  0.00  0.00    +0.000 A 
ATOM     10  C   UNL     1      -2.160  10.875  17.691  0.00  0.00    +0.000 A 
ATOM     11  C   UNL     1      -2.345  10.378  16.398  0.00  0.00    +0.000 A 
ATOM     12  C   UNL     1      -3.566  10.547  15.788  0.00  0.00    +0.000 A 
ATOM     13  C   UNL     1      -4.587  11.180  16.495  0.00  0.00    +0.000 A 
ATOM     14  C   UNL     1      -4.419  11.678  17.786  0.00  0.00    +0.000 A 
ATOM     15  N   UNL     1      -5.486  12.292  18.298  0.00  0.00    +0.000 NA
ATOM     16  C   UNL     1      -5.420  12.854  19.504  0.00  0.00    +0.000 A 
ATOM     17  C   UNL     1      -6.593  13.414  19.994  0.00  0.00    +0.000 A 
ATOM     18  C   UNL     1      -6.658  14.021  21.246  0.00  0.00    +0.000 A 
ATOM     19  C   UNL     1      -5.515  14.089  22.024  0.00  0.00    +0.000 A 
ATOM     20  C   UNL     1      -4.324  13.534  21.545  0.00  0.00    +0.000 A 
ATOM     21  C   UNL     1      -4.245  12.890  20.276  0.00  0.00    +0.000 A 
ENDBRANCH   6   8
ENDBRANCH   5   6
ENDBRANCH   4   5
ENDBRANCH   3   4
ENDBRANCH   2   3
BRANCH   2  22
ATOM     22  C   UNL     1       0.261   9.524  19.630  0.00  0.00    +0.000 C 
BRANCH  22  23
ATOM     23  C   UNL     1       1.554   9.517  18.774  0.00  0.00    +0.000 C 
BRANCH  23  24
ATOM     24  C   UNL     1       1.792   8.142  18.157  0.00  0.00    +0.000 C 
BRANCH  24  25
ATOM     25  N   UNL     1       2.982   7.461  18.661  0.00  0.00    +0.000 N 
ATOM     26  H   UNL     1       3.183   7.707  19.628  0.00  0.00    +0.000 HD
BRANCH  25  27
ATOM     27  C   UNL     1       3.234   6.070  18.451  0.00  0.00    +0.000 A 
ATOM     28  C   UNL     1       2.594   4.983  19.151  0.00  0.00    +0.000 A 
ATOM     29  C   UNL     1       1.625   5.068  20.167  0.00  0.00    +0.000 A 
ATOM     30  C   UNL     1       0.998   3.946  20.683  0.00  0.00    +0.000 A 
ATOM     31  C   UNL     1       1.425   2.680  20.369  0.00  0.00    +0.000 A 
ATOM     32  C   UNL     1       2.408   2.554  19.413  0.00  0.00    +0.000 A 
ATOM     33  C   UNL     1       2.937   3.661  18.771  0.00  0.00    +0.000 A 
ATOM     34  N   UNL     1       3.757   3.363  17.776  0.00  0.00    +0.000 NA
ATOM     35  C   UNL     1       4.278   4.353  17.070  0.00  0.00    +0.000 A 
ATOM     36  C   UNL     1       5.016   3.956  15.969  0.00  0.00    +0.000 A 
ATOM     37  C   UNL     1       5.644   4.877  15.138  0.00  0.00    +0.000 A 
ATOM     38  C   UNL     1       5.520   6.228  15.415  0.00  0.00    +0.000 A 
ATOM     39  C   UNL     1       4.754   6.651  16.501  0.00  0.00    +0.000 A 
ATOM     40  C   UNL     1       4.093   5.726  17.354  0.00  0.00    +0.000 A 
ENDBRANCH  25  27
ENDBRANCH  24  25
ENDBRANCH  23  24
ENDBRANCH  22  23
ENDBRANCH   2  22
TORSDOF 10
ENDMDL
MODEL 9
REMARK VINA RESULT:      -8.8      0.947      1.165
REMARK  Name = 
REMARK  11 active torsions:
REMARK  status: ('A' for Active; 'I' for Inactive)
REMARK    1  A    between atoms: C_1  and  N_2
REMARK    2  A    between atoms: N_2  and  C_3
REMARK    3  A    between atoms: N_2  and  C_21
REMARK    4  A    between atoms: C_3  and  C_4
REMARK    5  A    between atoms: C_4  and  C_5
REMARK    6  A    between atoms: C_5  and  N_6
REMARK    7  A    between atoms: N_6  and  C_7
REMARK    8  A    between atoms: C_21  and  C_22
REMARK    9  A    between atoms: C_22  and  C_23
REMARK   10  A    between atoms: C_23  and  N_24
REMARK   11  A    between atoms: N_24  and  C_25
REMARK                            x       y       z     vdW  Elec       q    Type
REMARK                         _______ _______ _______ _____ _____    ______ ____
ROOT
ATOM      1  C   UNL     1       0.837   9.469  22.366  0.00  0.00    +0.000 C 
ATOM      2  N   UNL     1       0.850   9.979  20.987  0.00  0.00    +0.000 NA
ENDROOT
BRANCH   2   3
ATOM      3  C   UNL     1       1.066   8.843  20.054  0.00  0.00    +0.000 C 
BRANCH   3   4
ATOM      4  C   UNL     1       1.552   9.216  18.631  0.00  0.00    +0.000 C 
BRANCH   4   5
ATOM      5  C   UNL     1       2.596   8.209  18.181  0.00  0.00    +0.000 C 
BRANCH   5   6
ATOM      6  N   UNL     1       2.121   6.843  18.047  0.00  0.00    +0.000 N 
ATOM      7  H   UNL     1       1.563   6.720  17.203  0.00  0.00    +0.000 HD
BRANCH   6   8
ATOM      8  C   UNL     1       3.050   5.750  18.151  0.00  0.00    +0.000 A 
ATOM      9  C   UNL     1       4.260   5.597  17.352  0.00  0.00    +0.000 A 
ATOM     10  C   UNL     1       4.769   6.421  16.285  0.00  0.00    +0.000 A 
ATOM     11  C   UNL     1       5.874   6.089  15.496  0.00  0.00    +0.000 A 
ATOM     12  C   UNL     1       6.544   4.915  15.747  0.00  0.00    +0.000 A 
ATOM     13  C   UNL     1       6.115   4.110  16.801  0.00  0.00    +0.000 A 
ATOM     14  C   UNL     1       5.017   4.428  17.598  0.00  0.00    +0.000 A 
ATOM     15  N   UNL     1       4.719   3.526  18.535  0.00  0.00    +0.000 NA
ATOM     16  C   UNL     1       3.656   3.702  19.318  0.00  0.00    +0.000 A 
ATOM     17  C   UNL     1       3.453   2.753  20.312  0.00  0.00    +0.000 A 
ATOM     18  C   UNL     1       2.385   2.830  21.204  0.00  0.00    +0.000 A 
ATOM     19  C   UNL     1       1.482   3.873  21.087  0.00  0.00    +0.000 A 
ATOM     20  C   UNL     1       1.668   4.834  20.089  0.00  0.00    +0.000 A 
ATOM     21  C   UNL     1       2.767   4.783  19.183  0.00  0.00    +0.000 A 
ENDBRANCH   6   8
ENDBRANCH   5   6
ENDBRANCH   4   5
ENDBRANCH   3   4
ENDBRANCH   2   3
BRANCH   2  22
ATOM     22  C   UNL     1      -0.386  10.728  20.675  0.00  0.00    +0.000 C 
BRANCH  22  23
ATOM     23  C   UNL     1      -0.408  12.217  21.106  0.00  0.00    +0.000 C 
BRANCH  23  24
ATOM     24  C   UNL     1      -1.591  12.948  20.477  0.00  0.00    +0.000 C 
BRANCH  24  25
ATOM     25  N   UNL     1      -2.814  12.154  20.408  0.00  0.00    +0.000 N 
ATOM     26  H   UNL     1      -3.401  12.284  21.229  0.00  0.00    +0.000 HD
BRANCH  25  27
ATOM     27  C   UNL     1      -3.629  12.073  19.236  0.00  0.00    +0.000 A 
ATOM     28  C   UNL     1      -3.290  11.368  18.024  0.00  0.00    +0.000 A 
ATOM     29  C   UNL     1      -2.114  10.647  17.750  0.00  0.00    +0.000 A 
ATOM     30  C   UNL     1      -1.954   9.914  16.586  0.00  0.00    +0.000 A 
ATOM     31  C   UNL     1      -2.853  10.005  15.553  0.00  0.00    +0.000 A 
ATOM     32  C   UNL     1      -3.998  10.743  15.763  0.00  0.00    +0.000 A 
ATOM     33  C   UNL     1      -4.249  11.356  16.979  0.00  0.00    +0.000 A 
ATOM     34  N   UNL     1      -5.454  11.894  17.070  0.00  0.00    +0.000 NA
ATOM     35  C   UNL     1      -5.805  12.463  18.211  0.00  0.00    +0.000 A 
ATOM     36  C   UNL     1      -7.123  12.883  18.269  0.00  0.00    +0.000 A 
ATOM     37  C   UNL     1      -7.640  13.517  19.392  0.00  0.00    +0.000 A 
ATOM     38  C   UNL     1      -6.818  13.726  20.486  0.00  0.00    +0.000 A 
ATOM     39  C   UNL     1      -5.496  13.282  20.461  0.00  0.00    +0.000 A 
ATOM     40  C   UNL     1      -4.952  12.620  19.327  0.00  0.00    +0.000 A 
ENDBRANCH  25  27
ENDBRANCH  24  25
ENDBRANCH  23  24
ENDBRANCH  22  23
ENDBRANCH   2  22
TORSDOF 10
ENDMDL
