MODEL 1
REMARK VINA RESULT:      -7.2      0.000      0.000
REMARK  Name = 
REMARK  5 active torsions:
REMARK  status: ('A' for Active; 'I' for Inactive)
REMARK    1  A    between atoms: C_1  and  C_2
REMARK    2  A    between atoms: C_2  and  N_3
REMARK    3  A    between atoms: C_5  and  C_6
REMARK    4  A    between atoms: C_6  and  O_8
REMARK    5  A    between atoms: C_15  and  N_16
REMARK                            x       y       z     vdW  Elec       q    Type
REMARK                         _______ _______ _______ _____ _____    ______ ____
ROOT
ATOM      1  N   UNL     1       6.834   5.793  16.865  0.00  0.00    +0.000 N 
ATOM      2  C   UNL     1       7.454   5.759  15.617  0.00  0.00    +0.000 A 
ATOM      3  C   UNL     1       7.000   5.151  14.512  0.00  0.00    +0.000 A 
ATOM      4  C   UNL     1       5.709   4.449  14.627  0.00  0.00    +0.000 A 
ATOM      5  O   UNL     1       5.223   3.890  13.645  0.00  0.00    +0.000 OA
ATOM      6  C   UNL     1       5.043   4.417  15.943  0.00  0.00    +0.000 A 
ATOM      7  C   UNL     1       3.864   3.680  16.066  0.00  0.00    +0.000 A 
ATOM      8  C   UNL     1       3.259   3.573  17.306  0.00  0.00    +0.000 A 
ATOM      9  F   UNL     1       2.127   2.856  17.385  0.00  0.00    +0.000 F 
ATOM     10  C   UNL     1       3.782   4.200  18.448  0.00  0.00    +0.000 A 
ATOM     11  C   UNL     1       4.940   4.988  18.274  0.00  0.00    +0.000 A 
ATOM     12  C   UNL     1       5.618   5.090  17.043  0.00  0.00    +0.000 A 
ENDROOT
BRANCH  10  13
ATOM     13  N   UNL     1       3.244   4.021  19.707  0.00  0.00    +0.000 N 
ATOM     14  C   UNL     1       3.372   2.743  20.424  0.00  0.00    +0.000 C 
ATOM     15  C   UNL     1       1.985   2.183  20.758  0.00  0.00    +0.000 C 
ATOM     16  O   UNL     1       1.204   3.144  21.490  0.00  0.00    +0.000 OA
ATOM     17  C   UNL     1       1.020   4.335  20.706  0.00  0.00    +0.000 C 
ATOM     18  C   UNL     1       2.361   5.003  20.346  0.00  0.00    +0.000 C 
ENDBRANCH  10  13
BRANCH   1  20
ATOM     19  C   UNL     1       7.840   7.853  17.801  0.00  0.00    +0.000 C 
ATOM     20  C   UNL     1       7.529   6.378  18.028  0.00  0.00    +0.000 C 
ENDBRANCH   1  20
BRANCH   3  21
ATOM     21  C   UNL     1       7.796   5.183  13.271  0.00  0.00    +0.000 C 
ATOM     22  O   UNL     1       8.780   5.897  13.122  0.00  0.00    +0.000 OA
BRANCH  21  23
ATOM     23  O   UNL     1       7.363   4.348  12.300  0.00  0.00    +0.000 OA
ATOM     24  H   UNL     1       6.727   4.763  11.668  0.00  0.00    +0.000 HD
ENDBRANCH  21  23
ENDBRANCH   3  21
TORSDOF 4
ENDMDL
MODEL 2
REMARK VINA RESULT:      -7.1      3.526      7.460
REMARK  Name = 
REMARK  5 active torsions:
REMARK  status: ('A' for Active; 'I' for Inactive)
REMARK    1  A    between atoms: C_1  and  C_2
REMARK    2  A    between atoms: C_2  and  N_3
REMARK    3  A    between atoms: C_5  and  C_6
REMARK    4  A    between atoms: C_6  and  O_8
REMARK    5  A    between atoms: C_15  and  N_16
REMARK                            x       y       z     vdW  Elec       q    Type
REMARK                         _______ _______ _______ _____ _____    ______ ____
ROOT
ATOM      1  N   UNL     1       1.899   5.953  20.566  0.00  0.00    +0.000 N 
ATOM      2  C   UNL     1       1.125   6.952  21.154  0.00  0.00    +0.000 A 
ATOM      3  C   UNL     1       0.936   8.196  20.691  0.00  0.00    +0.000 A 
ATOM      4  C   UNL     1       1.614   8.543  19.429  0.00  0.00    +0.000 A 
ATOM      5  O   UNL     1       1.464   9.660  18.937  0.00  0.00    +0.000 OA
ATOM      6  C   UNL     1       2.484   7.531  18.800  0.00  0.00    +0.000 A 
ATOM      7  C   UNL     1       3.189   7.893  17.651  0.00  0.00    +0.000 A 
ATOM      8  C   UNL     1       4.069   6.987  17.084  0.00  0.00    +0.000 A 
ATOM      9  F   UNL     1       4.729   7.372  15.979  0.00  0.00    +0.000 F 
ATOM     10  C   UNL     1       4.263   5.702  17.615  0.00  0.00    +0.000 A 
ATOM     11  C   UNL     1       3.487   5.350  18.739  0.00  0.00    +0.000 A 
ATOM     12  C   UNL     1       2.614   6.251  19.380  0.00  0.00    +0.000 A 
ENDROOT
BRANCH  10  13
ATOM     13  N   UNL     1       5.207   4.827  17.117  0.00  0.00    +0.000 N 
ATOM     14  C   UNL     1       6.285   4.294  17.964  0.00  0.00    +0.000 C 
ATOM     15  C   UNL     1       7.652   4.658  17.372  0.00  0.00    +0.000 C 
ATOM     16  O   UNL     1       7.758   4.212  16.009  0.00  0.00    +0.000 OA
ATOM     17  C   UNL     1       6.747   4.840  15.200  0.00  0.00    +0.000 C 
ATOM     18  C   UNL     1       5.325   4.505  15.690  0.00  0.00    +0.000 C 
ENDBRANCH  10  13
BRANCH   1  20
ATOM     19  C   UNL     1       1.190   3.589  20.767  0.00  0.00    +0.000 C 
ATOM     20  C   UNL     1       2.132   4.677  21.270  0.00  0.00    +0.000 C 
ENDBRANCH   1  20
BRANCH   3  21
ATOM     21  C   UNL     1       0.106   9.149  21.453  0.00  0.00    +0.000 C 
ATOM     22  O   UNL     1       0.066   9.177  22.676  0.00  0.00    +0.000 OA
BRANCH  21  23
ATOM     23  O   UNL     1      -0.608  10.008  20.692  0.00  0.00    +0.000 OA
ATOM     24  H   UNL     1      -1.586   9.892  20.765  0.00  0.00    +0.000 HD
ENDBRANCH  21  23
ENDBRANCH   3  21
TORSDOF 4
ENDMDL
MODEL 3
REMARK VINA RESULT:      -7.0      4.660      6.351
REMARK  Name = 
REMARK  5 active torsions:
REMARK  status: ('A' for Active; 'I' for Inactive)
REMARK    1  A    between atoms: C_1  and  C_2
REMARK    2  A    between atoms: C_2  and  N_3
REMARK    3  A    between atoms: C_5  and  C_6
REMARK    4  A    between atoms: C_6  and  O_8
REMARK    5  A    between atoms: C_15  and  N_16
REMARK                            x       y       z     vdW  Elec       q    Type
REMARK                         _______ _______ _______ _____ _____    ______ ____
ROOT
ATOM      1  N   UNL     1       2.615   5.396  19.928  0.00  0.00    +0.000 N 
ATOM      2  C   UNL     1       3.366   4.476  19.200  0.00  0.00    +0.000 A 
ATOM      3  C   UNL     1       4.018   4.703  18.050  0.00  0.00    +0.000 A 
ATOM      4  C   UNL     1       3.934   6.067  17.501  0.00  0.00    +0.000 A 
ATOM      5  O   UNL     1       4.528   6.350  16.462  0.00  0.00    +0.000 OA
ATOM      6  C   UNL     1       3.107   7.061  18.213  0.00  0.00    +0.000 A 
ATOM      7  C   UNL     1       2.963   8.326  17.644  0.00  0.00    +0.000 A 
ATOM      8  C   UNL     1       2.133   9.252  18.253  0.00  0.00    +0.000 A 
ATOM      9  F   UNL     1       2.021  10.459  17.676  0.00  0.00    +0.000 F 
ATOM     10  C   UNL     1       1.444   8.967  19.442  0.00  0.00    +0.000 A 
ATOM     11  C   UNL     1       1.662   7.700  20.022  0.00  0.00    +0.000 A 
ATOM     12  C   UNL     1       2.459   6.708  19.417  0.00  0.00    +0.000 A 
ENDROOT
BRANCH  10  13
ATOM     13  N   UNL     1       0.539   9.845  20.005  0.00  0.00    +0.000 N 
ATOM     14  C   UNL     1      -0.736  10.166  19.346  0.00  0.00    +0.000 C 
ATOM     15  C   UNL     1      -0.833  11.674  19.088  0.00  0.00    +0.000 C 
ATOM     16  O   UNL     1      -0.646  12.417  20.305  0.00  0.00    +0.000 OA
ATOM     17  C   UNL     1       0.655  12.148  20.857  0.00  0.00    +0.000 C 
ATOM     18  C   UNL     1       0.844  10.656  21.190  0.00  0.00    +0.000 C 
ENDBRANCH  10  13
BRANCH   1  20
ATOM     19  C   UNL     1       1.449   3.490  20.994  0.00  0.00    +0.000 C 
ATOM     20  C   UNL     1       1.833   4.961  21.101  0.00  0.00    +0.000 C 
ENDBRANCH   1  20
BRANCH   3  21
ATOM     21  C   UNL     1       4.747   3.606  17.386  0.00  0.00    +0.000 C 
ATOM     22  O   UNL     1       4.269   2.494  17.204  0.00  0.00    +0.000 OA
BRANCH  21  23
ATOM     23  O   UNL     1       5.995   3.925  16.977  0.00  0.00    +0.000 OA
ATOM     24  H   UNL     1       6.708   3.634  17.595  0.00  0.00    +0.000 HD
ENDBRANCH  21  23
ENDBRANCH   3  21
TORSDOF 4
ENDMDL
MODEL 4
REMARK VINA RESULT:      -6.9      4.383      6.104
REMARK  Name = 
REMARK  5 active torsions:
REMARK  status: ('A' for Active; 'I' for Inactive)
REMARK    1  A    between atoms: C_1  and  C_2
REMARK    2  A    between atoms: C_2  and  N_3
REMARK    3  A    between atoms: C_5  and  C_6
REMARK    4  A    between atoms: C_6  and  O_8
REMARK    5  A    between atoms: C_15  and  N_16
REMARK                            x       y       z     vdW  Elec       q    Type
REMARK                         _______ _______ _______ _____ _____    ______ ____
ROOT
ATOM      1  N   UNL     1       2.854   5.324  19.995  0.00  0.00    +0.000 N 
ATOM      2  C   UNL     1       3.690   4.622  19.130  0.00  0.00    +0.000 A 
ATOM      3  C   UNL     1       4.225   5.075  17.987  0.00  0.00    +0.000 A 
ATOM      4  C   UNL     1       3.897   6.461  17.607  0.00  0.00    +0.000 A 
ATOM      5  O   UNL     1       4.373   6.947  16.583  0.00  0.00    +0.000 OA
ATOM      6  C   UNL     1       2.973   7.224  18.469  0.00  0.00    +0.000 A 
ATOM      7  C   UNL     1       2.600   8.505  18.061  0.00  0.00    +0.000 A 
ATOM      8  C   UNL     1       1.678   9.213  18.812  0.00  0.00    +0.000 A 
ATOM      9  F   UNL     1       1.343  10.442  18.387  0.00  0.00    +0.000 F 
ATOM     10  C   UNL     1       1.117   8.692  19.989  0.00  0.00    +0.000 A 
ATOM     11  C   UNL     1       1.564   7.420  20.404  0.00  0.00    +0.000 A 
ATOM     12  C   UNL     1       2.465   6.641  19.650  0.00  0.00    +0.000 A 
ENDROOT
BRANCH  10  13
ATOM     13  N   UNL     1       0.125   9.346  20.692  0.00  0.00    +0.000 N 
ATOM     14  C   UNL     1      -0.239  10.740  20.395  0.00  0.00    +0.000 C 
ATOM     15  C   UNL     1      -0.056  11.611  21.643  0.00  0.00    +0.000 C 
ATOM     16  O   UNL     1      -0.797  11.079  22.755  0.00  0.00    +0.000 OA
ATOM     17  C   UNL     1      -0.335   9.754  23.072  0.00  0.00    +0.000 C 
ATOM     18  C   UNL     1      -0.509   8.783  21.890  0.00  0.00    +0.000 C 
ENDBRANCH  10  13
BRANCH   1  20
ATOM     19  C   UNL     1       1.328   3.498  20.681  0.00  0.00    +0.000 C 
ATOM     20  C   UNL     1       2.223   4.642  21.142  0.00  0.00    +0.000 C 
ENDBRANCH   1  20
BRANCH   3  21
ATOM     21  C   UNL     1       5.072   4.189  17.165  0.00  0.00    +0.000 C 
ATOM     22  O   UNL     1       4.697   3.689  16.112  0.00  0.00    +0.000 OA
BRANCH  21  23
ATOM     23  O   UNL     1       6.311   3.977  17.659  0.00  0.00    +0.000 OA
ATOM     24  H   UNL     1       6.361   3.240  18.316  0.00  0.00    +0.000 HD
ENDBRANCH  21  23
ENDBRANCH   3  21
TORSDOF 4
ENDMDL
MODEL 5
REMARK VINA RESULT:      -6.8      4.157      6.363
REMARK  Name = 
REMARK  5 active torsions:
REMARK  status: ('A' for Active; 'I' for Inactive)
REMARK    1  A    between atoms: C_1  and  C_2
REMARK    2  A    between atoms: C_2  and  N_3
REMARK    3  A    between atoms: C_5  and  C_6
REMARK    4  A    between atoms: C_6  and  O_8
REMARK    5  A    between atoms: C_15  and  N_16
REMARK                            x       y       z     vdW  Elec       q    Type
REMARK                         _______ _______ _______ _____ _____    ______ ____
ROOT
ATOM      1  N   UNL     1       3.891   5.603  18.155  0.00  0.00    +0.000 N 
ATOM      2  C   UNL     1       4.318   4.311  18.454  0.00  0.00    +0.000 A 
ATOM      3  C   UNL     1       3.867   3.526  19.443  0.00  0.00    +0.000 A 
ATOM      4  C   UNL     1       2.809   4.086  20.301  0.00  0.00    +0.000 A 
ATOM      5  O   UNL     1       2.333   3.410  21.212  0.00  0.00    +0.000 OA
ATOM      6  C   UNL     1       2.362   5.471  20.051  0.00  0.00    +0.000 A 
ATOM      7  C   UNL     1       1.420   6.024  20.919  0.00  0.00    +0.000 A 
ATOM      8  C   UNL     1       1.040   7.345  20.751  0.00  0.00    +0.000 A 
ATOM      9  F   UNL     1       0.131   7.842  21.606  0.00  0.00    +0.000 F 
ATOM     10  C   UNL     1       1.558   8.145  19.720  0.00  0.00    +0.000 A 
ATOM     11  C   UNL     1       2.460   7.533  18.825  0.00  0.00    +0.000 A 
ATOM     12  C   UNL     1       2.913   6.208  18.981  0.00  0.00    +0.000 A 
ENDROOT
BRANCH  10  13
ATOM     13  N   UNL     1       1.262   9.488  19.602  0.00  0.00    +0.000 N 
ATOM     14  C   UNL     1       1.184  10.366  20.780  0.00  0.00    +0.000 C 
ATOM     15  C   UNL     1      -0.203  11.011  20.869  0.00  0.00    +0.000 C 
ATOM     16  O   UNL     1      -0.528  11.703  19.650  0.00  0.00    +0.000 OA
ATOM     17  C   UNL     1      -0.541  10.783  18.544  0.00  0.00    +0.000 C 
ATOM     18  C   UNL     1       0.827  10.103  18.343  0.00  0.00    +0.000 C 
ENDBRANCH  10  13
BRANCH   1  20
ATOM     19  C   UNL     1       5.170   5.507  16.037  0.00  0.00    +0.000 C 
ATOM     20  C   UNL     1       4.586   6.400  17.125  0.00  0.00    +0.000 C 
ENDBRANCH   1  20
BRANCH   3  21
ATOM     21  C   UNL     1       4.449   2.185  19.645  0.00  0.00    +0.000 C 
ATOM     22  O   UNL     1       5.174   1.903  20.591  0.00  0.00    +0.000 OA
BRANCH  21  23
ATOM     23  O   UNL     1       4.111   1.276  18.705  0.00  0.00    +0.000 OA
ATOM     24  H   UNL     1       4.380   0.351  18.924  0.00  0.00    +0.000 HD
ENDBRANCH  21  23
ENDBRANCH   3  21
TORSDOF 4
ENDMDL
MODEL 6
REMARK VINA RESULT:      -6.7      5.259      7.176
REMARK  Name = 
REMARK  5 active torsions:
REMARK  status: ('A' for Active; 'I' for Inactive)
REMARK    1  A    between atoms: C_1  and  C_2
REMARK    2  A    between atoms: C_2  and  N_3
REMARK    3  A    between atoms: C_5  and  C_6
REMARK    4  A    between atoms: C_6  and  O_8
REMARK    5  A    between atoms: C_15  and  N_16
REMARK                            x       y       z     vdW  Elec       q    Type
REMARK                         _______ _______ _______ _____ _____    ______ ____
ROOT
ATOM      1  N   UNL     1       0.927   9.426  21.100  0.00  0.00    +0.000 N 
ATOM      2  C   UNL     1       0.834  10.745  20.662  0.00  0.00    +0.000 A 
ATOM      3  C   UNL     1       1.151  11.210  19.445  0.00  0.00    +0.000 A 
ATOM      4  C   UNL     1       1.646  10.223  18.469  0.00  0.00    +0.000 A 
ATOM      5  O   UNL     1       1.933  10.579  17.327  0.00  0.00    +0.000 OA
ATOM      6  C   UNL     1       1.809   8.823  18.907  0.00  0.00    +0.000 A 
ATOM      7  C   UNL     1       2.357   7.912  18.004  0.00  0.00    +0.000 A 
ATOM      8  C   UNL     1       2.588   6.610  18.414  0.00  0.00    +0.000 A 
ATOM      9  F   UNL     1       3.117   5.761  17.518  0.00  0.00    +0.000 F 
ATOM     10  C   UNL     1       2.270   6.167  19.708  0.00  0.00    +0.000 A 
ATOM     11  C   UNL     1       1.659   7.100  20.573  0.00  0.00    +0.000 A 
ATOM     12  C   UNL     1       1.447   8.447  20.218  0.00  0.00    +0.000 A 
ENDROOT
BRANCH  10  13
ATOM     13  N   UNL     1       2.585   4.901  20.159  0.00  0.00    +0.000 N 
ATOM     14  C   UNL     1       3.853   4.249  19.799  0.00  0.00    +0.000 C 
ATOM     15  C   UNL     1       3.580   2.924  19.079  0.00  0.00    +0.000 C 
ATOM     16  O   UNL     1       2.734   2.072  19.871  0.00  0.00    +0.000 OA
ATOM     17  C   UNL     1       1.468   2.712  20.109  0.00  0.00    +0.000 C 
ATOM     18  C   UNL     1       1.628   4.044  20.867  0.00  0.00    +0.000 C 
ENDBRANCH  10  13
BRANCH   1  20
ATOM     19  C   UNL     1      -0.475   9.906  23.084  0.00  0.00    +0.000 C 
ATOM     20  C   UNL     1       0.680   9.090  22.517  0.00  0.00    +0.000 C 
ENDBRANCH   1  20
BRANCH   3  21
ATOM     21  C   UNL     1       1.023  12.649  19.148  0.00  0.00    +0.000 C 
ATOM     22  O   UNL     1       1.522  13.526  19.842  0.00  0.00    +0.000 OA
BRANCH  21  23
ATOM     23  O   UNL     1       0.315  12.934  18.032  0.00  0.00    +0.000 OA
ATOM     24  H   UNL     1       0.093  13.891  17.931  0.00  0.00    +0.000 HD
ENDBRANCH  21  23
ENDBRANCH   3  21
TORSDOF 4
ENDMDL
MODEL 7
REMARK VINA RESULT:      -6.6      3.726      4.958
REMARK  Name = 
REMARK  5 active torsions:
REMARK  status: ('A' for Active; 'I' for Inactive)
REMARK    1  A    between atoms: C_1  and  C_2
REMARK    2  A    between atoms: C_2  and  N_3
REMARK    3  A    between atoms: C_5  and  C_6
REMARK    4  A    between atoms: C_6  and  O_8
REMARK    5  A    between atoms: C_15  and  N_16
REMARK                            x       y       z     vdW  Elec       q    Type
REMARK                         _______ _______ _______ _____ _____    ______ ____
ROOT
ATOM      1  N   UNL     1       4.065   4.815  18.837  0.00  0.00    +0.000 N 
ATOM      2  C   UNL     1       4.919   4.277  17.876  0.00  0.00    +0.000 A 
ATOM      3  C   UNL     1       5.372   4.890  16.774  0.00  0.00    +0.000 A 
ATOM      4  C   UNL     1       4.925   6.277  16.557  0.00  0.00    +0.000 A 
ATOM      5  O   UNL     1       5.323   6.906  15.577  0.00  0.00    +0.000 OA
ATOM      6  C   UNL     1       3.980   6.869  17.523  0.00  0.00    +0.000 A 
ATOM      7  C   UNL     1       3.495   8.151  17.268  0.00  0.00    +0.000 A 
ATOM      8  C   UNL     1       2.551   8.700  18.119  0.00  0.00    +0.000 A 
ATOM      9  F   UNL     1       2.108   9.937  17.840  0.00  0.00    +0.000 F 
ATOM     10  C   UNL     1       2.077   8.015  19.249  0.00  0.00    +0.000 A 
ATOM     11  C   UNL     1       2.637   6.746  19.510  0.00  0.00    +0.000 A 
ATOM     12  C   UNL     1       3.564   6.126  18.649  0.00  0.00    +0.000 A 
ENDROOT
BRANCH  10  13
ATOM     13  N   UNL     1       1.067   8.509  20.049  0.00  0.00    +0.000 N 
ATOM     14  C   UNL     1       0.255   9.665  19.638  0.00  0.00    +0.000 C 
ATOM     15  C   UNL     1       0.371  10.788  20.674  0.00  0.00    +0.000 C 
ATOM     16  O   UNL     1       0.022  10.316  21.987  0.00  0.00    +0.000 OA
ATOM     17  C   UNL     1       0.910   9.256  22.386  0.00  0.00    +0.000 C 
ATOM     18  C   UNL     1       0.842   8.053  21.425  0.00  0.00    +0.000 C 
ENDBRANCH  10  13
BRANCH   1  20
ATOM     19  C   UNL     1       4.146   2.572  19.884  0.00  0.00    +0.000 C 
ATOM     20  C   UNL     1       3.534   3.967  19.923  0.00  0.00    +0.000 C 
ENDBRANCH   1  20
BRANCH   3  21
ATOM     21  C   UNL     1       6.252   4.167  15.835  0.00  0.00    +0.000 C 
ATOM     22  O   UNL     1       5.894   3.181  15.204  0.00  0.00    +0.000 OA
BRANCH  21  23
ATOM     23  O   UNL     1       7.494   4.685  15.713  0.00  0.00    +0.000 OA
ATOM     24  H   UNL     1       7.691   5.412  16.352  0.00  0.00    +0.000 HD
ENDBRANCH  21  23
ENDBRANCH   3  21
TORSDOF 4
ENDMDL
MODEL 8
REMARK VINA RESULT:      -6.5      5.054      8.150
REMARK  Name = 
REMARK  5 active torsions:
REMARK  status: ('A' for Active; 'I' for Inactive)
REMARK    1  A    between atoms: C_1  and  C_2
REMARK    2  A    between atoms: C_2  and  N_3
REMARK    3  A    between atoms: C_5  and  C_6
REMARK    4  A    between atoms: C_6  and  O_8
REMARK    5  A    between atoms: C_15  and  N_16
REMARK                            x       y       z     vdW  Elec       q    Type
REMARK                         _______ _______ _______ _____ _____    ______ ____
ROOT
ATOM      1  N   UNL     1       1.363  10.113  19.244  0.00  0.00    +0.000 N 
ATOM      2  C   UNL     1       0.542  10.940  20.007  0.00  0.00    +0.000 A 
ATOM      3  C   UNL     1      -0.070  10.621  21.156  0.00  0.00    +0.000 A 
ATOM      4  C   UNL     1       0.151   9.257  21.667  0.00  0.00    +0.000 A 
ATOM      5  O   UNL     1      -0.362   8.907  22.729  0.00  0.00    +0.000 OA
ATOM      6  C   UNL     1       0.973   8.332  20.864  0.00  0.00    +0.000 A 
ATOM      7  C   UNL     1       1.109   7.017  21.310  0.00  0.00    +0.000 A 
ATOM      8  C   UNL     1       1.813   6.109  20.537  0.00  0.00    +0.000 A 
ATOM      9  F   UNL     1       1.923   4.853  21.000  0.00  0.00    +0.000 F 
ATOM     10  C   UNL     1       2.416   6.474  19.323  0.00  0.00    +0.000 A 
ATOM     11  C   UNL     1       2.311   7.826  18.935  0.00  0.00    +0.000 A 
ATOM     12  C   UNL     1       1.566   8.775  19.662  0.00  0.00    +0.000 A 
ENDROOT
BRANCH  10  13
ATOM     13  N   UNL     1       3.036   5.558  18.497  0.00  0.00    +0.000 N 
ATOM     14  C   UNL     1       2.266   4.565  17.733  0.00  0.00    +0.000 C 
ATOM     15  C   UNL     1       2.712   3.147  18.107  0.00  0.00    +0.000 C 
ATOM     16  O   UNL     1       4.131   2.990  17.929  0.00  0.00    +0.000 OA
ATOM     17  C   UNL     1       4.842   3.913  18.774  0.00  0.00    +0.000 C 
ATOM     18  C   UNL     1       4.492   5.378  18.452  0.00  0.00    +0.000 C 
ENDBRANCH  10  13
BRANCH   1  20
ATOM     19  C   UNL     1       2.470  11.946  18.000  0.00  0.00    +0.000 C 
ATOM     20  C   UNL     1       1.849  10.557  17.922  0.00  0.00    +0.000 C 
ENDBRANCH   1  20
BRANCH   3  21
ATOM     21  C   UNL     1      -0.936  11.608  21.830  0.00  0.00    +0.000 C 
ATOM     22  O   UNL     1      -1.820  12.230  21.255  0.00  0.00    +0.000 OA
BRANCH  21  23
ATOM     23  O   UNL     1      -0.688  11.769  23.149  0.00  0.00    +0.000 OA
ATOM     24  H   UNL     1      -0.758  12.705  23.460  0.00  0.00    +0.000 HD
ENDBRANCH  21  23
ENDBRANCH   3  21
TORSDOF 4
ENDMDL
MODEL 9
REMARK VINA RESULT:      -6.3      5.010      7.000
REMARK  Name = 
REMARK  5 active torsions:
REMARK  status: ('A' for Active; 'I' for Inactive)
REMARK    1  A    between atoms: C_1  and  C_2
REMARK    2  A    between atoms: C_2  and  N_3
REMARK    3  A    between atoms: C_5  and  C_6
REMARK    4  A    between atoms: C_6  and  O_8
REMARK    5  A    between atoms: C_15  and  N_16
REMARK                            x       y       z     vdW  Elec       q    Type
REMARK                         _______ _______ _______ _____ _____    ______ ____
ROOT
ATOM      1  N   UNL     1       3.540   6.564  17.723  0.00  0.00    +0.000 N 
ATOM      2  C   UNL     1       3.975   5.331  18.203  0.00  0.00    +0.000 A 
ATOM      3  C   UNL     1       3.610   4.744  19.352  0.00  0.00    +0.000 A 
ATOM      4  C   UNL     1       2.645   5.475  20.191  0.00  0.00    +0.000 A 
ATOM      5  O   UNL     1       2.250   4.982  21.247  0.00  0.00    +0.000 OA
ATOM      6  C   UNL     1       2.196   6.808  19.745  0.00  0.00    +0.000 A 
ATOM      7  C   UNL     1       1.349   7.532  20.584  0.00  0.00    +0.000 A 
ATOM      8  C   UNL     1       0.972   8.814  20.223  0.00  0.00    +0.000 A 
ATOM      9  F   UNL     1       0.156   9.479  21.056  0.00  0.00    +0.000 F 
ATOM     10  C   UNL     1       1.400   9.407  19.024  0.00  0.00    +0.000 A 
ATOM     11  C   UNL     1       2.205   8.623  18.172  0.00  0.00    +0.000 A 
ATOM     12  C   UNL     1       2.653   7.332  18.516  0.00  0.00    +0.000 A 
ENDROOT
BRANCH  10  13
ATOM     13  N   UNL     1       1.112  10.718  18.700  0.00  0.00    +0.000 N 
ATOM     14  C   UNL     1       2.175  11.719  18.523  0.00  0.00    +0.000 C 
ATOM     15  C   UNL     1       1.973  12.883  19.500  0.00  0.00    +0.000 C 
ATOM     16  O   UNL     1       0.660  13.452  19.359  0.00  0.00    +0.000 OA
ATOM     17  C   UNL     1      -0.344  12.460  19.642  0.00  0.00    +0.000 C 
ATOM     18  C   UNL     1      -0.253  11.256  18.685  0.00  0.00    +0.000 C 
ENDBRANCH  10  13
BRANCH   1  20
ATOM     19  C   UNL     1       5.233   6.245  15.944  0.00  0.00    +0.000 C 
ATOM     20  C   UNL     1       4.144   7.149  16.510  0.00  0.00    +0.000 C 
ENDBRANCH   1  20
BRANCH   3  21
ATOM     21  C   UNL     1       4.190   3.441  19.733  0.00  0.00    +0.000 C 
ATOM     22  O   UNL     1       5.385   3.188  19.648  0.00  0.00    +0.000 OA
BRANCH  21  23
ATOM     23  O   UNL     1       3.297   2.540  20.199  0.00  0.00    +0.000 OA
ATOM     24  H   UNL     1       2.629   2.920  20.820  0.00  0.00    +0.000 HD
ENDBRANCH  21  23
ENDBRANCH   3  21
TORSDOF 4
ENDMDL
