MODEL 1
REMARK VINA RESULT:      -7.2      0.000      0.000
REMARK  Name = 
REMARK  3 active torsions:
REMARK  status: ('A' for Active; 'I' for Inactive)
REMARK    1  A    between atoms: S_2  and  C_4
REMARK    2  A    between atoms: S_2  and  N_12
REMARK    3  A    between atoms: C_4  and  C_5
REMARK                            x       y       z     vdW  Elec       q    Type
REMARK                         _______ _______ _______ _____ _____    ______ ____
ROOT
ATOM      1  O   UNL     1       5.896   3.301  16.396  0.00  0.00    +0.000 OA
ATOM      2  S   UNL     1       6.599   4.530  16.749  0.00  0.00    +0.000 S 
ATOM      3  O   UNL     1       7.891   4.476  17.386  0.00  0.00    +0.000 OA
ENDROOT
BRANCH   2   4
ATOM      4  N   UNL     1       5.548   5.382  17.812  0.00  0.00    +0.000 NA
ATOM      5  C   UNL     1       4.168   5.660  17.294  0.00  0.00    +0.000 C 
ATOM      6  C   UNL     1       3.230   4.471  17.497  0.00  0.00    +0.000 C 
ATOM      7  C   UNL     1       3.232   3.948  18.939  0.00  0.00    +0.000 C 
ATOM      8  C   UNL     1       4.670   3.697  19.398  0.00  0.00    +0.000 C 
ATOM      9  C   UNL     1       5.516   4.949  19.230  0.00  0.00    +0.000 C 
ATOM     10  O   UNL     1       2.499   2.709  18.948  0.00  0.00    +0.000 OA
ATOM     11  C   UNL     1       1.701   2.619  20.132  0.00  0.00    +0.000 C 
ATOM     12  C   UNL     1       1.055   3.963  20.396  0.00  0.00    +0.000 C 
ATOM     13  S   UNL     1       2.391   5.114  20.081  0.00  0.00    +0.000 S 
ENDBRANCH   2   4
BRANCH   2  14
ATOM     14  C   UNL     1       6.679   5.605  15.316  0.00  0.00    +0.000 C 
BRANCH  14  15
ATOM     15  C   UNL     1       6.591   4.813  14.031  0.00  0.00    +0.000 A 
ATOM     16  C   UNL     1       5.510   3.930  13.856  0.00  0.00    +0.000 A 
ATOM     17  C   UNL     1       5.335   3.236  12.657  0.00  0.00    +0.000 A 
ATOM     18  C   UNL     1       6.212   3.436  11.597  0.00  0.00    +0.000 A 
ATOM     19  C   UNL     1       7.302   4.287  11.759  0.00  0.00    +0.000 A 
ATOM     20  C   UNL     1       7.514   4.942  12.979  0.00  0.00    +0.000 A 
ATOM     21 CL   UNL     1       8.955   5.881  13.119  0.00  0.00    +0.000 Cl
ENDBRANCH  14  15
ENDBRANCH   2  14
TORSDOF 3
ENDMDL
MODEL 2
REMARK VINA RESULT:      -7.2      2.731      6.685
REMARK  Name = 
REMARK  3 active torsions:
REMARK  status: ('A' for Active; 'I' for Inactive)
REMARK    1  A    between atoms: S_2  and  C_4
REMARK    2  A    between atoms: S_2  and  N_12
REMARK    3  A    between atoms: C_4  and  C_5
REMARK                            x       y       z     vdW  Elec       q    Type
REMARK                         _______ _______ _______ _____ _____    ______ ____
ROOT
ATOM      1  O   UNL     1       4.113   6.513  18.266  0.00  0.00    +0.000 OA
ATOM      2  S   UNL     1       5.098   5.476  18.560  0.00  0.00    +0.000 S 
ATOM      3  O   UNL     1       5.750   5.431  19.844  0.00  0.00    +0.000 OA
ENDROOT
BRANCH   2   4
ATOM      4  N   UNL     1       6.330   5.651  17.372  0.00  0.00    +0.000 NA
ATOM      5  C   UNL     1       7.068   4.400  16.995  0.00  0.00    +0.000 C 
ATOM      6  C   UNL     1       6.318   3.590  15.939  0.00  0.00    +0.000 C 
ATOM      7  C   UNL     1       5.907   4.430  14.723  0.00  0.00    +0.000 C 
ATOM      8  C   UNL     1       5.169   5.687  15.187  0.00  0.00    +0.000 C 
ATOM      9  C   UNL     1       6.013   6.472  16.179  0.00  0.00    +0.000 C 
ATOM     10  O   UNL     1       5.025   3.621  13.921  0.00  0.00    +0.000 OA
ATOM     11  C   UNL     1       5.295   3.829  12.532  0.00  0.00    +0.000 C 
ATOM     12  C   UNL     1       6.794   3.874  12.322  0.00  0.00    +0.000 C 
ATOM     13  S   UNL     1       7.357   4.881  13.693  0.00  0.00    +0.000 S 
ENDBRANCH   2   4
BRANCH   2  14
ATOM     14  C   UNL     1       4.401   3.866  18.182  0.00  0.00    +0.000 C 
BRANCH  14  15
ATOM     15  C   UNL     1       3.302   3.503  19.155  0.00  0.00    +0.000 A 
ATOM     16  C   UNL     1       3.644   2.821  20.336  0.00  0.00    +0.000 A 
ATOM     17  C   UNL     1       2.681   2.535  21.306  0.00  0.00    +0.000 A 
ATOM     18  C   UNL     1       1.367   2.955  21.135  0.00  0.00    +0.000 A 
ATOM     19  C   UNL     1       1.003   3.609  19.961  0.00  0.00    +0.000 A 
ATOM     20  C   UNL     1       1.952   3.848  18.960  0.00  0.00    +0.000 A 
ATOM     21 CL   UNL     1       1.380   4.558  17.496  0.00  0.00    +0.000 Cl
ENDBRANCH  14  15
ENDBRANCH   2  14
TORSDOF 3
ENDMDL
MODEL 3
REMARK VINA RESULT:      -7.1      1.456      1.681
REMARK  Name = 
REMARK  3 active torsions:
REMARK  status: ('A' for Active; 'I' for Inactive)
REMARK    1  A    between atoms: S_2  and  C_4
REMARK    2  A    between atoms: S_2  and  N_12
REMARK    3  A    between atoms: C_4  and  C_5
REMARK                            x       y       z     vdW  Elec       q    Type
REMARK                         _______ _______ _______ _____ _____    ______ ____
ROOT
ATOM      1  O   UNL     1       6.942   7.431  16.648  0.00  0.00    +0.000 OA
ATOM      2  S   UNL     1       6.115   6.249  16.426  0.00  0.00    +0.000 S 
ATOM      3  O   UNL     1       4.950   6.319  15.580  0.00  0.00    +0.000 OA
ENDROOT
BRANCH   2   4
ATOM      4  N   UNL     1       5.579   5.754  17.985  0.00  0.00    +0.000 NA
ATOM      5  C   UNL     1       4.312   6.387  18.480  0.00  0.00    +0.000 C 
ATOM      6  C   UNL     1       3.070   5.673  17.948  0.00  0.00    +0.000 C 
ATOM      7  C   UNL     1       3.109   4.157  18.176  0.00  0.00    +0.000 C 
ATOM      8  C   UNL     1       4.429   3.587  17.654  0.00  0.00    +0.000 C 
ATOM      9  C   UNL     1       5.613   4.303  18.287  0.00  0.00    +0.000 C 
ATOM     10  O   UNL     1       2.012   3.584  17.441  0.00  0.00    +0.000 OA
ATOM     11  C   UNL     1       1.413   2.526  18.195  0.00  0.00    +0.000 C 
ATOM     12  C   UNL     1       1.303   2.955  19.643  0.00  0.00    +0.000 C 
ATOM     13  S   UNL     1       2.886   3.735  19.948  0.00  0.00    +0.000 S 
ENDBRANCH   2   4
BRANCH   2  14
ATOM     14  C   UNL     1       7.154   4.882  15.906  0.00  0.00    +0.000 C 
BRANCH  14  15
ATOM     15  C   UNL     1       6.842   4.465  14.487  0.00  0.00    +0.000 A 
ATOM     16  C   UNL     1       5.756   3.600  14.261  0.00  0.00    +0.000 A 
ATOM     17  C   UNL     1       5.373   3.249  12.965  0.00  0.00    +0.000 A 
ATOM     18  C   UNL     1       6.041   3.783  11.868  0.00  0.00    +0.000 A 
ATOM     19  C   UNL     1       7.134   4.620  12.071  0.00  0.00    +0.000 A 
ATOM     20  C   UNL     1       7.558   4.930  13.370  0.00  0.00    +0.000 A 
ATOM     21 CL   UNL     1       8.991   5.880  13.517  0.00  0.00    +0.000 Cl
ENDBRANCH  14  15
ENDBRANCH   2  14
TORSDOF 3
ENDMDL
MODEL 4
REMARK VINA RESULT:      -7.0      2.819      6.644
REMARK  Name = 
REMARK  3 active torsions:
REMARK  status: ('A' for Active; 'I' for Inactive)
REMARK    1  A    between atoms: S_2  and  C_4
REMARK    2  A    between atoms: S_2  and  N_12
REMARK    3  A    between atoms: C_4  and  C_5
REMARK                            x       y       z     vdW  Elec       q    Type
REMARK                         _______ _______ _______ _____ _____    ______ ____
ROOT
ATOM      1  O   UNL     1       5.416   5.867  19.680  0.00  0.00    +0.000 OA
ATOM      2  S   UNL     1       5.207   5.035  18.498  0.00  0.00    +0.000 S 
ATOM      3  O   UNL     1       5.417   3.610  18.560  0.00  0.00    +0.000 OA
ENDROOT
BRANCH   2   4
ATOM      4  N   UNL     1       6.276   5.651  17.298  0.00  0.00    +0.000 NA
ATOM      5  C   UNL     1       7.408   4.754  16.897  0.00  0.00    +0.000 C 
ATOM      6  C   UNL     1       6.985   3.736  15.839  0.00  0.00    +0.000 C 
ATOM      7  C   UNL     1       6.280   4.380  14.639  0.00  0.00    +0.000 C 
ATOM      8  C   UNL     1       5.146   5.284  15.126  0.00  0.00    +0.000 C 
ATOM      9  C   UNL     1       5.666   6.313  16.119  0.00  0.00    +0.000 C 
ATOM     10  O   UNL     1       5.737   3.315  13.837  0.00  0.00    +0.000 OA
ATOM     11  C   UNL     1       5.893   3.616  12.447  0.00  0.00    +0.000 C 
ATOM     12  C   UNL     1       7.272   4.200  12.221  0.00  0.00    +0.000 C 
ATOM     13  S   UNL     1       7.454   5.332  13.597  0.00  0.00    +0.000 S 
ENDBRANCH   2   4
BRANCH   2  14
ATOM     14  C   UNL     1       3.587   5.376  17.806  0.00  0.00    +0.000 C 
BRANCH  14  15
ATOM     15  C   UNL     1       2.521   4.531  18.467  0.00  0.00    +0.000 A 
ATOM     16  C   UNL     1       2.193   3.289  17.896  0.00  0.00    +0.000 A 
ATOM     17  C   UNL     1       1.277   2.433  18.510  0.00  0.00    +0.000 A 
ATOM     18  C   UNL     1       0.696   2.783  19.724  0.00  0.00    +0.000 A 
ATOM     19  C   UNL     1       0.988   4.020  20.293  0.00  0.00    +0.000 A 
ATOM     20  C   UNL     1       1.863   4.906  19.652  0.00  0.00    +0.000 A 
ATOM     21 CL   UNL     1       2.069   6.459  20.376  0.00  0.00    +0.000 Cl
ENDBRANCH  14  15
ENDBRANCH   2  14
TORSDOF 3
ENDMDL
MODEL 5
REMARK VINA RESULT:      -6.9      1.475      1.985
REMARK  Name = 
REMARK  3 active torsions:
REMARK  status: ('A' for Active; 'I' for Inactive)
REMARK    1  A    between atoms: S_2  and  C_4
REMARK    2  A    between atoms: S_2  and  N_12
REMARK    3  A    between atoms: C_4  and  C_5
REMARK                            x       y       z     vdW  Elec       q    Type
REMARK                         _______ _______ _______ _____ _____    ______ ____
ROOT
ATOM      1  O   UNL     1       6.318   6.832  17.412  0.00  0.00    +0.000 OA
ATOM      2  S   UNL     1       5.925   5.820  16.436  0.00  0.00    +0.000 S 
ATOM      3  O   UNL     1       4.863   6.083  15.497  0.00  0.00    +0.000 OA
ENDROOT
BRANCH   2   4
ATOM      4  N   UNL     1       5.459   4.441  17.353  0.00  0.00    +0.000 NA
ATOM      5  C   UNL     1       5.752   4.495  18.824  0.00  0.00    +0.000 C 
ATOM      6  C   UNL     1       4.665   5.240  19.597  0.00  0.00    +0.000 C 
ATOM      7  C   UNL     1       3.254   4.725  19.288  0.00  0.00    +0.000 C 
ATOM      8  C   UNL     1       3.033   4.690  17.774  0.00  0.00    +0.000 C 
ATOM      9  C   UNL     1       4.116   3.870  17.090  0.00  0.00    +0.000 C 
ATOM     10  O   UNL     1       2.321   5.640  19.891  0.00  0.00    +0.000 OA
ATOM     11  C   UNL     1       1.219   4.921  20.453  0.00  0.00    +0.000 C 
ATOM     12  C   UNL     1       1.743   3.690  21.161  0.00  0.00    +0.000 C 
ATOM     13  S   UNL     1       2.968   3.063  20.014  0.00  0.00    +0.000 S 
ENDBRANCH   2   4
BRANCH   2  14
ATOM     14  C   UNL     1       7.378   5.244  15.554  0.00  0.00    +0.000 C 
BRANCH  14  15
ATOM     15  C   UNL     1       7.006   4.644  14.218  0.00  0.00    +0.000 A 
ATOM     16  C   UNL     1       5.950   3.716  14.164  0.00  0.00    +0.000 A 
ATOM     17  C   UNL     1       5.512   3.194  12.946  0.00  0.00    +0.000 A 
ATOM     18  C   UNL     1       6.091   3.614  11.754  0.00  0.00    +0.000 A 
ATOM     19  C   UNL     1       7.154   4.512  11.787  0.00  0.00    +0.000 A 
ATOM     20  C   UNL     1       7.636   4.996  13.011  0.00  0.00    +0.000 A 
ATOM     21 CL   UNL     1       9.029   6.011  12.954  0.00  0.00    +0.000 Cl
ENDBRANCH  14  15
ENDBRANCH   2  14
TORSDOF 3
ENDMDL
MODEL 6
REMARK VINA RESULT:      -6.8      2.810      6.468
REMARK  Name = 
REMARK  3 active torsions:
REMARK  status: ('A' for Active; 'I' for Inactive)
REMARK    1  A    between atoms: S_2  and  C_4
REMARK    2  A    between atoms: S_2  and  N_12
REMARK    3  A    between atoms: C_4  and  C_5
REMARK                            x       y       z     vdW  Elec       q    Type
REMARK                         _______ _______ _______ _____ _____    ______ ____
ROOT
ATOM      1  O   UNL     1       4.233   6.269  18.602  0.00  0.00    +0.000 OA
ATOM      2  S   UNL     1       5.322   5.298  18.549  0.00  0.00    +0.000 S 
ATOM      3  O   UNL     1       6.133   5.046  19.714  0.00  0.00    +0.000 OA
ENDROOT
BRANCH   2   4
ATOM      4  N   UNL     1       6.379   5.847  17.306  0.00  0.00    +0.000 NA
ATOM      5  C   UNL     1       7.486   4.912  16.919  0.00  0.00    +0.000 C 
ATOM      6  C   UNL     1       7.022   3.863  15.910  0.00  0.00    +0.000 C 
ATOM      7  C   UNL     1       6.307   4.474  14.699  0.00  0.00    +0.000 C 
ATOM      8  C   UNL     1       5.200   5.419  15.173  0.00  0.00    +0.000 C 
ATOM      9  C   UNL     1       5.758   6.474  16.114  0.00  0.00    +0.000 C 
ATOM     10  O   UNL     1       5.728   3.390  13.950  0.00  0.00    +0.000 OA
ATOM     11  C   UNL     1       5.862   3.635  12.546  0.00  0.00    +0.000 C 
ATOM     12  C   UNL     1       7.247   4.183  12.272  0.00  0.00    +0.000 C 
ATOM     13  S   UNL     1       7.478   5.362  13.600  0.00  0.00    +0.000 S 
ENDBRANCH   2   4
BRANCH   2  14
ATOM     14  C   UNL     1       4.707   3.744  17.897  0.00  0.00    +0.000 C 
BRANCH  14  15
ATOM     15  C   UNL     1       3.338   3.421  18.451  0.00  0.00    +0.000 A 
ATOM     16  C   UNL     1       2.203   3.876  17.757  0.00  0.00    +0.000 A 
ATOM     17  C   UNL     1       0.916   3.537  18.179  0.00  0.00    +0.000 A 
ATOM     18  C   UNL     1       0.736   2.707  19.280  0.00  0.00    +0.000 A 
ATOM     19  C   UNL     1       1.846   2.267  19.997  0.00  0.00    +0.000 A 
ATOM     20  C   UNL     1       3.136   2.651  19.611  0.00  0.00    +0.000 A 
ATOM     21 CL   UNL     1       4.436   2.152  20.629  0.00  0.00    +0.000 Cl
ENDBRANCH  14  15
ENDBRANCH   2  14
TORSDOF 3
ENDMDL
MODEL 7
REMARK VINA RESULT:      -6.8      1.907      2.350
REMARK  Name = 
REMARK  3 active torsions:
REMARK  status: ('A' for Active; 'I' for Inactive)
REMARK    1  A    between atoms: S_2  and  C_4
REMARK    2  A    between atoms: S_2  and  N_12
REMARK    3  A    between atoms: C_4  and  C_5
REMARK                            x       y       z     vdW  Elec       q    Type
REMARK                         _______ _______ _______ _____ _____    ______ ____
ROOT
ATOM      1  O   UNL     1       7.142   7.625  16.975  0.00  0.00    +0.000 OA
ATOM      2  S   UNL     1       6.113   6.625  16.702  0.00  0.00    +0.000 S 
ATOM      3  O   UNL     1       5.063   6.896  15.753  0.00  0.00    +0.000 OA
ENDROOT
BRANCH   2   4
ATOM      4  N   UNL     1       5.358   6.305  18.215  0.00  0.00    +0.000 NA
ATOM      5  C   UNL     1       3.886   6.582  18.290  0.00  0.00    +0.000 C 
ATOM      6  C   UNL     1       3.056   5.416  17.755  0.00  0.00    +0.000 C 
ATOM      7  C   UNL     1       3.444   4.071  18.381  0.00  0.00    +0.000 C 
ATOM      8  C   UNL     1       4.956   3.864  18.274  0.00  0.00    +0.000 C 
ATOM      9  C   UNL     1       5.705   5.033  18.894  0.00  0.00    +0.000 C 
ATOM     10  O   UNL     1       2.762   3.041  17.642  0.00  0.00    +0.000 OA
ATOM     11  C   UNL     1       2.301   2.019  18.532  0.00  0.00    +0.000 C 
ATOM     12  C   UNL     1       1.720   2.669  19.770  0.00  0.00    +0.000 C 
ATOM     13  S   UNL     1       2.906   3.962  20.133  0.00  0.00    +0.000 S 
ENDBRANCH   2   4
BRANCH   2  14
ATOM     14  C   UNL     1       6.894   5.059  16.305  0.00  0.00    +0.000 C 
BRANCH  14  15
ATOM     15  C   UNL     1       6.885   4.805  14.814  0.00  0.00    +0.000 A 
ATOM     16  C   UNL     1       7.871   5.415  14.019  0.00  0.00    +0.000 A 
ATOM     17  C   UNL     1       7.958   5.151  12.651  0.00  0.00    +0.000 A 
ATOM     18  C   UNL     1       7.088   4.244  12.056  0.00  0.00    +0.000 A 
ATOM     19  C   UNL     1       6.089   3.648  12.820  0.00  0.00    +0.000 A 
ATOM     20  C   UNL     1       5.961   3.954  14.181  0.00  0.00    +0.000 A 
ATOM     21 CL   UNL     1       4.621   3.257  15.015  0.00  0.00    +0.000 Cl
ENDBRANCH  14  15
ENDBRANCH   2  14
TORSDOF 3
ENDMDL
MODEL 8
REMARK VINA RESULT:      -6.8      2.721      6.643
REMARK  Name = 
REMARK  3 active torsions:
REMARK  status: ('A' for Active; 'I' for Inactive)
REMARK    1  A    between atoms: S_2  and  C_4
REMARK    2  A    between atoms: S_2  and  N_12
REMARK    3  A    between atoms: C_4  and  C_5
REMARK                            x       y       z     vdW  Elec       q    Type
REMARK                         _______ _______ _______ _____ _____    ______ ____
ROOT
ATOM      1  O   UNL     1       4.127   7.007  18.104  0.00  0.00    +0.000 OA
ATOM      2  S   UNL     1       4.834   5.744  18.297  0.00  0.00    +0.000 S 
ATOM      3  O   UNL     1       5.365   5.395  19.591  0.00  0.00    +0.000 OA
ENDROOT
BRANCH   2   4
ATOM      4  N   UNL     1       6.157   5.775  17.198  0.00  0.00    +0.000 NA
ATOM      5  C   UNL     1       6.826   4.459  16.932  0.00  0.00    +0.000 C 
ATOM      6  C   UNL     1       6.096   3.653  15.858  0.00  0.00    +0.000 C 
ATOM      7  C   UNL     1       5.836   4.460  14.581  0.00  0.00    +0.000 C 
ATOM      8  C   UNL     1       5.161   5.787  14.933  0.00  0.00    +0.000 C 
ATOM      9  C   UNL     1       5.987   6.558  15.950  0.00  0.00    +0.000 C 
ATOM     10  O   UNL     1       4.957   3.677  13.751  0.00  0.00    +0.000 OA
ATOM     11  C   UNL     1       5.340   3.798  12.377  0.00  0.00    +0.000 C 
ATOM     12  C   UNL     1       6.850   3.728  12.279  0.00  0.00    +0.000 C 
ATOM     13  S   UNL     1       7.385   4.759  13.643  0.00  0.00    +0.000 S 
ENDBRANCH   2   4
BRANCH   2  14
ATOM     14  C   UNL     1       3.826   4.396  17.676  0.00  0.00    +0.000 C 
BRANCH  14  15
ATOM     15  C   UNL     1       2.869   3.895  18.733  0.00  0.00    +0.000 A 
ATOM     16  C   UNL     1       2.082   4.830  19.430  0.00  0.00    +0.000 A 
ATOM     17  C   UNL     1       1.124   4.416  20.357  0.00  0.00    +0.000 A 
ATOM     18  C   UNL     1       0.905   3.062  20.581  0.00  0.00    +0.000 A 
ATOM     19  C   UNL     1       1.691   2.121  19.922  0.00  0.00    +0.000 A 
ATOM     20  C   UNL     1       2.692   2.532  19.033  0.00  0.00    +0.000 A 
ATOM     21 CL   UNL     1       3.689   1.298  18.355  0.00  0.00    +0.000 Cl
ENDBRANCH  14  15
ENDBRANCH   2  14
TORSDOF 3
ENDMDL
MODEL 9
REMARK VINA RESULT:      -6.7      2.434      6.613
REMARK  Name = 
REMARK  3 active torsions:
REMARK  status: ('A' for Active; 'I' for Inactive)
REMARK    1  A    between atoms: S_2  and  C_4
REMARK    2  A    between atoms: S_2  and  N_12
REMARK    3  A    between atoms: C_4  and  C_5
REMARK                            x       y       z     vdW  Elec       q    Type
REMARK                         _______ _______ _______ _____ _____    ______ ____
ROOT
ATOM      1  O   UNL     1       5.724   5.806  19.714  0.00  0.00    +0.000 OA
ATOM      2  S   UNL     1       5.287   5.133  18.495  0.00  0.00    +0.000 S 
ATOM      3  O   UNL     1       5.423   3.705  18.360  0.00  0.00    +0.000 OA
ENDROOT
BRANCH   2   4
ATOM      4  N   UNL     1       6.186   5.851  17.216  0.00  0.00    +0.000 NA
ATOM      5  C   UNL     1       7.458   5.154  16.830  0.00  0.00    +0.000 C 
ATOM      6  C   UNL     1       7.206   4.002  15.858  0.00  0.00    +0.000 C 
ATOM      7  C   UNL     1       6.360   4.415  14.648  0.00  0.00    +0.000 C 
ATOM      8  C   UNL     1       5.089   5.124  15.120  0.00  0.00    +0.000 C 
ATOM      9  C   UNL     1       5.431   6.300  16.021  0.00  0.00    +0.000 C 
ATOM     10  O   UNL     1       6.007   3.212  13.939  0.00  0.00    +0.000 OA
ATOM     11  C   UNL     1       6.066   3.438  12.527  0.00  0.00    +0.000 C 
ATOM     12  C   UNL     1       7.303   4.251  12.209  0.00  0.00    +0.000 C 
ATOM     13  S   UNL     1       7.305   5.493  13.501  0.00  0.00    +0.000 S 
ENDBRANCH   2   4
BRANCH   2  14
ATOM     14  C   UNL     1       3.600   5.614  18.119  0.00  0.00    +0.000 C 
BRANCH  14  15
ATOM     15  C   UNL     1       2.605   4.710  18.811  0.00  0.00    +0.000 A 
ATOM     16  C   UNL     1       2.154   5.060  20.096  0.00  0.00    +0.000 A 
ATOM     17  C   UNL     1       1.175   4.306  20.746  0.00  0.00    +0.000 A 
ATOM     18  C   UNL     1       0.600   3.210  20.112  0.00  0.00    +0.000 A 
ATOM     19  C   UNL     1       1.050   2.831  18.850  0.00  0.00    +0.000 A 
ATOM     20  C   UNL     1       2.073   3.551  18.218  0.00  0.00    +0.000 A 
ATOM     21 CL   UNL     1       2.643   2.935  16.711  0.00  0.00    +0.000 Cl
ENDBRANCH  14  15
ENDBRANCH   2  14
TORSDOF 3
ENDMDL
