MODEL 1
REMARK VINA RESULT:      -9.0      0.000      0.000
REMARK  Name = 
REMARK  6 active torsions:
REMARK  status: ('A' for Active; 'I' for Inactive)
REMARK    1  A    between atoms: C_1  and  C_2
REMARK    2  A    between atoms: N_4  and  C_5
REMARK    3  A    between atoms: N_8  and  C_9
REMARK    4  A    between atoms: C_9  and  C_10
REMARK    5  A    between atoms: C_14  and  C_15
REMARK    6  A    between atoms: C_23  and  C_24
REMARK                            x       y       z     vdW  Elec       q    Type
REMARK                         _______ _______ _______ _____ _____    ______ ____
ROOT
ATOM      1  C   UNL     1       1.493   8.781  18.949  0.00  0.00    +0.000 A 
ATOM      2  C   UNL     1       2.572   8.845  18.076  0.00  0.00    +0.000 A 
ATOM      3  C   UNL     1       3.398   7.738  17.913  0.00  0.00    +0.000 A 
ATOM      4  C   UNL     1       3.160   6.514  18.586  0.00  0.00    +0.000 A 
ATOM      5  C   UNL     1       3.877   5.299  18.339  0.00  0.00    +0.000 A 
ATOM      6  C   UNL     1       3.601   4.206  19.174  0.00  0.00    +0.000 A 
ATOM      7  C   UNL     1       2.650   4.330  20.168  0.00  0.00    +0.000 A 
ATOM      8  N   UNL     1       1.895   5.441  20.363  0.00  0.00    +0.000 NA
ATOM      9  C   UNL     1       2.137   6.498  19.571  0.00  0.00    +0.000 A 
ATOM     10  C   UNL     1       1.324   7.619  19.720  0.00  0.00    +0.000 A 
ENDROOT
BRANCH   5  11
ATOM     11  C   UNL     1       4.855   5.114  17.226  0.00  0.00    +0.000 A 
ATOM     12  C   UNL     1       6.141   5.693  17.277  0.00  0.00    +0.000 A 
ATOM     13  C   UNL     1       7.069   5.510  16.247  0.00  0.00    +0.000 A 
ATOM     14  C   UNL     1       6.715   4.771  15.128  0.00  0.00    +0.000 A 
ATOM     15  F   UNL     1       7.589   4.623  14.125  0.00  0.00    +0.000 F 
ATOM     16  C   UNL     1       5.467   4.174  15.043  0.00  0.00    +0.000 A 
ATOM     17  C   UNL     1       4.564   4.316  16.100  0.00  0.00    +0.000 A 
ENDBRANCH   5  11
BRANCH   7  18
ATOM     18  C   UNL     1       2.424   3.177  21.101  0.00  0.00    +0.000 C 
ATOM     19  N   UNL     1       1.122   2.905  21.408  0.00  0.00    +0.000 N 
ATOM     20  O   UNL     1       3.344   2.527  21.581  0.00  0.00    +0.000 OA
ATOM     21  H   UNL     1       0.380   3.480  21.030  0.00  0.00    +0.000 HD
ATOM     22  H   UNL     1       0.911   2.163  22.070  0.00  0.00    +0.000 HD
ENDBRANCH   7  18
BRANCH   1  23
ATOM     23  C   UNL     1       0.507   9.928  19.015  0.00  0.00    +0.000 C 
BRANCH  23  27
ATOM     24  C   UNL     1      -0.725  12.242  22.462  0.00  0.00    +0.000 C 
ATOM     25  C   UNL     1       0.265  12.844  21.466  0.00  0.00    +0.000 C 
ATOM     26  C   UNL     1       0.353  12.080  20.147  0.00  0.00    +0.000 C 
ATOM     27  N   UNL     1       0.533  10.629  20.323  0.00  0.00    +0.000 NA
ATOM     28  C   UNL     1      -0.475  10.037  21.213  0.00  0.00    +0.000 C 
ATOM     29  C   UNL     1      -0.525  10.727  22.576  0.00  0.00    +0.000 C 
BRANCH  24  33
ATOM     30  C   UNL     1      -5.208  12.882  20.348  0.00  0.00    +0.000 C 
ATOM     31  C   UNL     1      -4.093  12.788  21.315  0.00  0.00    +0.000 A 
ATOM     32  C   UNL     1      -2.744  12.980  21.099  0.00  0.00    +0.000 A 
ATOM     33  N   UNL     1      -2.129  12.579  22.252  0.00  0.00    +0.000 N 
ATOM     34  C   UNL     1      -3.124  12.309  23.157  0.00  0.00    +0.000 A 
ATOM     35  N   UNL     1      -4.316  12.412  22.614  0.00  0.00    +0.000 NA
ENDBRANCH  24  33
ENDBRANCH  23  27
ENDBRANCH   1  23
TORSDOF 5
ENDMDL
MODEL 2
REMARK VINA RESULT:      -8.9      1.218      1.499
REMARK  Name = 
REMARK  6 active torsions:
REMARK  status: ('A' for Active; 'I' for Inactive)
REMARK    1  A    between atoms: C_1  and  C_2
REMARK    2  A    between atoms: N_4  and  C_5
REMARK    3  A    between atoms: N_8  and  C_9
REMARK    4  A    between atoms: C_9  and  C_10
REMARK    5  A    between atoms: C_14  and  C_15
REMARK    6  A    between atoms: C_23  and  C_24
REMARK                            x       y       z     vdW  Elec       q    Type
REMARK                         _______ _______ _______ _____ _____    ______ ____
ROOT
ATOM      1  C   UNL     1       1.901   8.034  18.652  0.00  0.00    +0.000 A 
ATOM      2  C   UNL     1       2.810   8.244  17.622  0.00  0.00    +0.000 A 
ATOM      3  C   UNL     1       3.757   7.269  17.325  0.00  0.00    +0.000 A 
ATOM      4  C   UNL     1       3.812   6.035  18.020  0.00  0.00    +0.000 A 
ATOM      5  C   UNL     1       4.656   4.937  17.656  0.00  0.00    +0.000 A 
ATOM      6  C   UNL     1       4.680   3.829  18.516  0.00  0.00    +0.000 A 
ATOM      7  C   UNL     1       3.886   3.827  19.648  0.00  0.00    +0.000 A 
ATOM      8  N   UNL     1       3.013   4.816  19.964  0.00  0.00    +0.000 NA
ATOM      9  C   UNL     1       2.969   5.884  19.152  0.00  0.00    +0.000 A 
ATOM     10  C   UNL     1       2.030   6.874  19.432  0.00  0.00    +0.000 A 
ENDROOT
BRANCH   5  11
ATOM     11  C   UNL     1       5.466   4.881  16.402  0.00  0.00    +0.000 A 
ATOM     12  C   UNL     1       6.799   5.344  16.371  0.00  0.00    +0.000 A 
ATOM     13  C   UNL     1       7.569   5.279  15.205  0.00  0.00    +0.000 A 
ATOM     14  C   UNL     1       7.010   4.779  14.040  0.00  0.00    +0.000 A 
ATOM     15  F   UNL     1       7.735   4.747  12.915  0.00  0.00    +0.000 F 
ATOM     16  C   UNL     1       5.710   4.301  14.030  0.00  0.00    +0.000 A 
ATOM     17  C   UNL     1       4.962   4.318  15.211  0.00  0.00    +0.000 A 
ENDBRANCH   5  11
BRANCH   7  18
ATOM     18  C   UNL     1       3.984   2.669  20.597  0.00  0.00    +0.000 C 
ATOM     19  N   UNL     1       5.000   1.788  20.360  0.00  0.00    +0.000 N 
ATOM     20  O   UNL     1       3.194   2.502  21.518  0.00  0.00    +0.000 OA
ATOM     21  H   UNL     1       5.617   1.926  19.570  0.00  0.00    +0.000 HD
ATOM     22  H   UNL     1       5.089   0.962  20.944  0.00  0.00    +0.000 HD
ENDBRANCH   7  18
BRANCH   1  23
ATOM     23  C   UNL     1       0.777   9.023  18.879  0.00  0.00    +0.000 C 
BRANCH  23  27
ATOM     24  C   UNL     1      -0.163  11.451  22.340  0.00  0.00    +0.000 C 
ATOM     25  C   UNL     1       0.779  12.000  21.268  0.00  0.00    +0.000 C 
ATOM     26  C   UNL     1       0.759  11.203  19.965  0.00  0.00    +0.000 C 
ATOM     27  N   UNL     1       0.907   9.752  20.165  0.00  0.00    +0.000 NA
ATOM     28  C   UNL     1      -0.058   9.212  21.131  0.00  0.00    +0.000 C 
ATOM     29  C   UNL     1       0.000   9.933  22.478  0.00  0.00    +0.000 C 
BRANCH  24  33
ATOM     30  C   UNL     1      -4.767  13.103  23.361  0.00  0.00    +0.000 C 
ATOM     31  C   UNL     1      -3.553  12.613  22.674  0.00  0.00    +0.000 A 
ATOM     32  C   UNL     1      -2.541  11.819  23.171  0.00  0.00    +0.000 A 
ATOM     33  N   UNL     1      -1.567  11.826  22.211  0.00  0.00    +0.000 N 
ATOM     34  C   UNL     1      -2.085  12.489  21.128  0.00  0.00    +0.000 A 
ATOM     35  N   UNL     1      -3.273  12.987  21.386  0.00  0.00    +0.000 NA
ENDBRANCH  24  33
ENDBRANCH  23  27
ENDBRANCH   1  23
TORSDOF 5
ENDMDL
MODEL 3
REMARK VINA RESULT:      -8.9      0.579      1.018
REMARK  Name = 
REMARK  6 active torsions:
REMARK  status: ('A' for Active; 'I' for Inactive)
REMARK    1  A    between atoms: C_1  and  C_2
REMARK    2  A    between atoms: N_4  and  C_5
REMARK    3  A    between atoms: N_8  and  C_9
REMARK    4  A    between atoms: C_9  and  C_10
REMARK    5  A    between atoms: C_14  and  C_15
REMARK    6  A    between atoms: C_23  and  C_24
REMARK                            x       y       z     vdW  Elec       q    Type
REMARK                         _______ _______ _______ _____ _____    ______ ____
ROOT
ATOM      1  C   UNL     1       1.553   8.726  18.902  0.00  0.00    +0.000 A 
ATOM      2  C   UNL     1       2.573   8.807  17.961  0.00  0.00    +0.000 A 
ATOM      3  C   UNL     1       3.437   7.731  17.783  0.00  0.00    +0.000 A 
ATOM      4  C   UNL     1       3.298   6.523  18.511  0.00  0.00    +0.000 A 
ATOM      5  C   UNL     1       4.054   5.333  18.260  0.00  0.00    +0.000 A 
ATOM      6  C   UNL     1       3.881   4.261  19.147  0.00  0.00    +0.000 A 
ATOM      7  C   UNL     1       2.988   4.379  20.195  0.00  0.00    +0.000 A 
ATOM      8  N   UNL     1       2.196   5.461  20.399  0.00  0.00    +0.000 NA
ATOM      9  C   UNL     1       2.340   6.498  19.559  0.00  0.00    +0.000 A 
ATOM     10  C   UNL     1       1.487   7.587  19.721  0.00  0.00    +0.000 A 
ENDROOT
BRANCH   5  11
ATOM     11  C   UNL     1       4.969   5.151  17.094  0.00  0.00    +0.000 A 
ATOM     12  C   UNL     1       4.566   4.423  15.954  0.00  0.00    +0.000 A 
ATOM     13  C   UNL     1       5.411   4.263  14.851  0.00  0.00    +0.000 A 
ATOM     14  C   UNL     1       6.688   4.801  14.881  0.00  0.00    +0.000 A 
ATOM     15  F   UNL     1       7.511   4.620  13.840  0.00  0.00    +0.000 F 
ATOM     16  C   UNL     1       7.119   5.535  15.974  0.00  0.00    +0.000 A 
ATOM     17  C   UNL     1       6.251   5.738  17.052  0.00  0.00    +0.000 A 
ENDBRANCH   5  11
BRANCH   7  18
ATOM     18  C   UNL     1       2.875   3.252  21.179  0.00  0.00    +0.000 C 
ATOM     19  N   UNL     1       3.724   2.200  20.981  0.00  0.00    +0.000 N 
ATOM     20  O   UNL     1       2.061   3.254  22.094  0.00  0.00    +0.000 OA
ATOM     21  H   UNL     1       4.361   2.204  20.196  0.00  0.00    +0.000 HD
ATOM     22  H   UNL     1       3.662   1.389  21.590  0.00  0.00    +0.000 HD
ENDBRANCH   7  18
BRANCH   1  23
ATOM     23  C   UNL     1       0.522   9.830  18.992  0.00  0.00    +0.000 C 
BRANCH  23  27
ATOM     24  C   UNL     1      -0.696  12.173  22.425  0.00  0.00    +0.000 C 
ATOM     25  C   UNL     1       0.310  12.757  21.433  0.00  0.00    +0.000 C 
ATOM     26  C   UNL     1       0.393  11.988  20.117  0.00  0.00    +0.000 C 
ATOM     27  N   UNL     1       0.550  10.535  20.298  0.00  0.00    +0.000 NA
ATOM     28  C   UNL     1      -0.471   9.961  21.184  0.00  0.00    +0.000 C 
ATOM     29  C   UNL     1      -0.519  10.655  22.545  0.00  0.00    +0.000 C 
BRANCH  24  33
ATOM     30  C   UNL     1      -5.164  12.847  20.292  0.00  0.00    +0.000 C 
ATOM     31  C   UNL     1      -4.052  12.754  21.261  0.00  0.00    +0.000 A 
ATOM     32  C   UNL     1      -2.700  12.917  21.043  0.00  0.00    +0.000 A 
ATOM     33  N   UNL     1      -2.093  12.531  22.206  0.00  0.00    +0.000 N 
ATOM     34  C   UNL     1      -3.094  12.298  23.115  0.00  0.00    +0.000 A 
ATOM     35  N   UNL     1      -4.283  12.410  22.568  0.00  0.00    +0.000 NA
ENDBRANCH  24  33
ENDBRANCH  23  27
ENDBRANCH   1  23
TORSDOF 5
ENDMDL
MODEL 4
REMARK VINA RESULT:      -8.7      1.862      2.520
REMARK  Name = 
REMARK  6 active torsions:
REMARK  status: ('A' for Active; 'I' for Inactive)
REMARK    1  A    between atoms: C_1  and  C_2
REMARK    2  A    between atoms: N_4  and  C_5
REMARK    3  A    between atoms: N_8  and  C_9
REMARK    4  A    between atoms: C_9  and  C_10
REMARK    5  A    between atoms: C_14  and  C_15
REMARK    6  A    between atoms: C_23  and  C_24
REMARK                            x       y       z     vdW  Elec       q    Type
REMARK                         _______ _______ _______ _____ _____    ______ ____
ROOT
ATOM      1  C   UNL     1       1.134   8.541  20.093  0.00  0.00    +0.000 A 
ATOM      2  C   UNL     1       2.024   8.732  19.043  0.00  0.00    +0.000 A 
ATOM      3  C   UNL     1       2.834   7.682  18.622  0.00  0.00    +0.000 A 
ATOM      4  C   UNL     1       2.763   6.393  19.207  0.00  0.00    +0.000 A 
ATOM      5  C   UNL     1       3.453   5.240  18.715  0.00  0.00    +0.000 A 
ATOM      6  C   UNL     1       3.373   4.065  19.478  0.00  0.00    +0.000 A 
ATOM      7  C   UNL     1       2.626   4.057  20.641  0.00  0.00    +0.000 A 
ATOM      8  N   UNL     1       1.892   5.110  21.079  0.00  0.00    +0.000 NA
ATOM      9  C   UNL     1       1.949   6.244  20.361  0.00  0.00    +0.000 A 
ATOM     10  C   UNL     1       1.149   7.309  20.767  0.00  0.00    +0.000 A 
ENDROOT
BRANCH   5  11
ATOM     11  C   UNL     1       4.205   5.199  17.425  0.00  0.00    +0.000 A 
ATOM     12  C   UNL     1       4.634   6.384  16.790  0.00  0.00    +0.000 A 
ATOM     13  C   UNL     1       5.353   6.354  15.590  0.00  0.00    +0.000 A 
ATOM     14  C   UNL     1       5.628   5.137  14.986  0.00  0.00    +0.000 A 
ATOM     15  F   UNL     1       6.287   5.107  13.821  0.00  0.00    +0.000 F 
ATOM     16  C   UNL     1       5.238   3.949  15.583  0.00  0.00    +0.000 A 
ATOM     17  C   UNL     1       4.566   3.983  16.808  0.00  0.00    +0.000 A 
ENDBRANCH   5  11
BRANCH   7  18
ATOM     18  C   UNL     1       2.616   2.816  21.485  0.00  0.00    +0.000 C 
ATOM     19  N   UNL     1       1.438   2.536  22.116  0.00  0.00    +0.000 N 
ATOM     20  O   UNL     1       3.603   2.105  21.624  0.00  0.00    +0.000 OA
ATOM     21  H   UNL     1       0.648   3.159  22.017  0.00  0.00    +0.000 HD
ATOM     22  H   UNL     1       1.385   1.732  22.735  0.00  0.00    +0.000 HD
ENDBRANCH   7  18
BRANCH   1  23
ATOM     23  C   UNL     1       0.149   9.632  20.453  0.00  0.00    +0.000 C 
BRANCH  23  27
ATOM     24  C   UNL     1      -2.495  11.641  17.673  0.00  0.00    +0.000 C 
ATOM     25  C   UNL     1      -1.902  10.283  17.300  0.00  0.00    +0.000 C 
ATOM     26  C   UNL     1      -1.276   9.540  18.479  0.00  0.00    +0.000 C 
ATOM     27  N   UNL     1      -0.348  10.370  19.265  0.00  0.00    +0.000 NA
ATOM     28  C   UNL     1      -0.951  11.639  19.697  0.00  0.00    +0.000 C 
ATOM     29  C   UNL     1      -1.509  12.447  18.526  0.00  0.00    +0.000 C 
BRANCH  24  33
ATOM     30  C   UNL     1      -6.680  13.000  20.042  0.00  0.00    +0.000 C 
ATOM     31  C   UNL     1      -5.665  12.261  19.261  0.00  0.00    +0.000 A 
ATOM     32  C   UNL     1      -4.291  12.342  19.337  0.00  0.00    +0.000 A 
ATOM     33  N   UNL     1      -3.824  11.616  18.276  0.00  0.00    +0.000 N 
ATOM     34  C   UNL     1      -4.913  11.012  17.701  0.00  0.00    +0.000 A 
ATOM     35  N   UNL     1      -6.035  11.395  18.265  0.00  0.00    +0.000 NA
ENDBRANCH  24  33
ENDBRANCH  23  27
ENDBRANCH   1  23
TORSDOF 5
ENDMDL
MODEL 5
REMARK VINA RESULT:      -8.6      0.650      1.191
REMARK  Name = 
REMARK  6 active torsions:
REMARK  status: ('A' for Active; 'I' for Inactive)
REMARK    1  A    between atoms: C_1  and  C_2
REMARK    2  A    between atoms: N_4  and  C_5
REMARK    3  A    between atoms: N_8  and  C_9
REMARK    4  A    between atoms: C_9  and  C_10
REMARK    5  A    between atoms: C_14  and  C_15
REMARK    6  A    between atoms: C_23  and  C_24
REMARK                            x       y       z     vdW  Elec       q    Type
REMARK                         _______ _______ _______ _____ _____    ______ ____
ROOT
ATOM      1  C   UNL     1       1.500   8.763  18.895  0.00  0.00    +0.000 A 
ATOM      2  C   UNL     1       2.591   8.827  18.037  0.00  0.00    +0.000 A 
ATOM      3  C   UNL     1       3.424   7.722  17.891  0.00  0.00    +0.000 A 
ATOM      4  C   UNL     1       3.181   6.501  18.568  0.00  0.00    +0.000 A 
ATOM      5  C   UNL     1       3.907   5.288  18.337  0.00  0.00    +0.000 A 
ATOM      6  C   UNL     1       3.624   4.199  19.174  0.00  0.00    +0.000 A 
ATOM      7  C   UNL     1       2.659   4.324  20.155  0.00  0.00    +0.000 A 
ATOM      8  N   UNL     1       1.897   5.432  20.333  0.00  0.00    +0.000 NA
ATOM      9  C   UNL     1       2.145   6.486  19.539  0.00  0.00    +0.000 A 
ATOM     10  C   UNL     1       1.326   7.605  19.670  0.00  0.00    +0.000 A 
ENDROOT
BRANCH   5  11
ATOM     11  C   UNL     1       4.901   5.102  17.238  0.00  0.00    +0.000 A 
ATOM     12  C   UNL     1       4.565   4.403  16.058  0.00  0.00    +0.000 A 
ATOM     13  C   UNL     1       5.485   4.239  15.018  0.00  0.00    +0.000 A 
ATOM     14  C   UNL     1       6.770   4.743  15.151  0.00  0.00    +0.000 A 
ATOM     15  F   UNL     1       7.662   4.558  14.171  0.00  0.00    +0.000 F 
ATOM     16  C   UNL     1       7.136   5.448  16.287  0.00  0.00    +0.000 A 
ATOM     17  C   UNL     1       6.197   5.655  17.301  0.00  0.00    +0.000 A 
ENDBRANCH   5  11
BRANCH   7  18
ATOM     18  C   UNL     1       2.426   3.175  21.091  0.00  0.00    +0.000 C 
ATOM     19  N   UNL     1       1.120   2.903  21.387  0.00  0.00    +0.000 N 
ATOM     20  O   UNL     1       3.342   2.528  21.583  0.00  0.00    +0.000 OA
ATOM     21  H   UNL     1       0.382   3.476  20.999  0.00  0.00    +0.000 HD
ATOM     22  H   UNL     1       0.904   2.164  22.050  0.00  0.00    +0.000 HD
ENDBRANCH   7  18
BRANCH   1  23
ATOM     23  C   UNL     1       0.509   9.906  18.942  0.00  0.00    +0.000 C 
BRANCH  23  27
ATOM     24  C   UNL     1      -0.593  12.439  22.278  0.00  0.00    +0.000 C 
ATOM     25  C   UNL     1       0.411  12.949  21.245  0.00  0.00    +0.000 C 
ATOM     26  C   UNL     1       0.453  12.117  19.965  0.00  0.00    +0.000 C 
ATOM     27  N   UNL     1       0.577  10.671  20.212  0.00  0.00    +0.000 NA
ATOM     28  C   UNL     1      -0.445  10.166  21.140  0.00  0.00    +0.000 C 
ATOM     29  C   UNL     1      -0.452  10.924  22.467  0.00  0.00    +0.000 C 
BRANCH  24  33
ATOM     30  C   UNL     1      -5.450  13.359  23.009  0.00  0.00    +0.000 C 
ATOM     31  C   UNL     1      -4.090  13.273  22.433  0.00  0.00    +0.000 A 
ATOM     32  C   UNL     1      -3.104  12.342  22.683  0.00  0.00    +0.000 A 
ATOM     33  N   UNL     1      -1.984  12.822  22.063  0.00  0.00    +0.000 N 
ATOM     34  C   UNL     1      -2.370  13.928  21.350  0.00  0.00    +0.000 A 
ATOM     35  N   UNL     1      -3.630  14.230  21.567  0.00  0.00    +0.000 NA
ENDBRANCH  24  33
ENDBRANCH  23  27
ENDBRANCH   1  23
TORSDOF 5
ENDMDL
MODEL 6
REMARK VINA RESULT:      -8.3      4.592     10.669
REMARK  Name = 
REMARK  6 active torsions:
REMARK  status: ('A' for Active; 'I' for Inactive)
REMARK    1  A    between atoms: C_1  and  C_2
REMARK    2  A    between atoms: N_4  and  C_5
REMARK    3  A    between atoms: N_8  and  C_9
REMARK    4  A    between atoms: C_9  and  C_10
REMARK    5  A    between atoms: C_14  and  C_15
REMARK    6  A    between atoms: C_23  and  C_24
REMARK                            x       y       z     vdW  Elec       q    Type
REMARK                         _______ _______ _______ _____ _____    ______ ____
ROOT
ATOM      1  C   UNL     1       0.771   9.300  20.991  0.00  0.00    +0.000 A 
ATOM      2  C   UNL     1       0.651  10.241  22.007  0.00  0.00    +0.000 A 
ATOM      3  C   UNL     1      -0.297  11.254  21.905  0.00  0.00    +0.000 A 
ATOM      4  C   UNL     1      -1.185  11.347  20.803  0.00  0.00    +0.000 A 
ATOM      5  C   UNL     1      -2.279  12.267  20.720  0.00  0.00    +0.000 A 
ATOM      6  C   UNL     1      -2.989  12.315  19.511  0.00  0.00    +0.000 A 
ATOM      7  C   UNL     1      -2.631  11.474  18.475  0.00  0.00    +0.000 A 
ATOM      8  N   UNL     1      -1.658  10.533  18.563  0.00  0.00    +0.000 NA
ATOM      9  C   UNL     1      -0.968  10.465  19.713  0.00  0.00    +0.000 A 
ATOM     10  C   UNL     1      -0.011   9.460  19.836  0.00  0.00    +0.000 A 
ENDROOT
BRANCH   5  11
ATOM     11  C   UNL     1      -2.734  13.134  21.847  0.00  0.00    +0.000 A 
ATOM     12  C   UNL     1      -3.584  12.635  22.857  0.00  0.00    +0.000 A 
ATOM     13  C   UNL     1      -4.001  13.435  23.926  0.00  0.00    +0.000 A 
ATOM     14  C   UNL     1      -3.602  14.761  23.987  0.00  0.00    +0.000 A 
ATOM     15  F   UNL     1      -4.027  15.539  24.990  0.00  0.00    +0.000 F 
ATOM     16  C   UNL     1      -2.756  15.288  23.024  0.00  0.00    +0.000 A 
ATOM     17  C   UNL     1      -2.299  14.468  21.987  0.00  0.00    +0.000 A 
ENDBRANCH   5  11
BRANCH   7  18
ATOM     18  C   UNL     1      -3.351  11.595  17.164  0.00  0.00    +0.000 C 
ATOM     19  N   UNL     1      -2.574  11.485  16.046  0.00  0.00    +0.000 N 
ATOM     20  O   UNL     1      -4.556  11.801  17.089  0.00  0.00    +0.000 OA
ATOM     21  H   UNL     1      -1.575  11.353  16.133  0.00  0.00    +0.000 HD
ATOM     22  H   UNL     1      -3.000  11.602  15.131  0.00  0.00    +0.000 HD
ENDBRANCH   7  18
BRANCH   1  23
ATOM     23  C   UNL     1       1.694   8.114  21.168  0.00  0.00    +0.000 C 
BRANCH  23  27
ATOM     24  C   UNL     1       2.871   5.295  18.097  0.00  0.00    +0.000 C 
ATOM     25  C   UNL     1       2.434   6.704  17.698  0.00  0.00    +0.000 C 
ATOM     26  C   UNL     1       2.374   7.685  18.868  0.00  0.00    +0.000 C 
ATOM     27  N   UNL     1       1.631   7.165  20.028  0.00  0.00    +0.000 NA
ATOM     28  C   UNL     1       2.112   5.847  20.464  0.00  0.00    +0.000 C 
ATOM     29  C   UNL     1       2.100   4.819  19.333  0.00  0.00    +0.000 C 
BRANCH  24  33
ATOM     30  C   UNL     1       7.754   6.109  18.776  0.00  0.00    +0.000 C 
ATOM     31  C   UNL     1       6.428   5.476  18.615  0.00  0.00    +0.000 A 
ATOM     32  C   UNL     1       5.328   5.939  17.925  0.00  0.00    +0.000 A 
ATOM     33  N   UNL     1       4.307   5.091  18.253  0.00  0.00    +0.000 N 
ATOM     34  C   UNL     1       4.859   4.078  18.995  0.00  0.00    +0.000 A 
ATOM     35  N   UNL     1       6.131   4.293  19.241  0.00  0.00    +0.000 NA
ENDBRANCH  24  33
ENDBRANCH  23  27
ENDBRANCH   1  23
TORSDOF 5
ENDMDL
MODEL 7
REMARK VINA RESULT:      -8.3      1.389      1.832
REMARK  Name = 
REMARK  6 active torsions:
REMARK  status: ('A' for Active; 'I' for Inactive)
REMARK    1  A    between atoms: C_1  and  C_2
REMARK    2  A    between atoms: N_4  and  C_5
REMARK    3  A    between atoms: N_8  and  C_9
REMARK    4  A    between atoms: C_9  and  C_10
REMARK    5  A    between atoms: C_14  and  C_15
REMARK    6  A    between atoms: C_23  and  C_24
REMARK                            x       y       z     vdW  Elec       q    Type
REMARK                         _______ _______ _______ _____ _____    ______ ____
ROOT
ATOM      1  C   UNL     1       1.905   7.817  19.137  0.00  0.00    +0.000 A 
ATOM      2  C   UNL     1       2.768   8.091  18.084  0.00  0.00    +0.000 A 
ATOM      3  C   UNL     1       3.715   7.145  17.700  0.00  0.00    +0.000 A 
ATOM      4  C   UNL     1       3.813   5.879  18.330  0.00  0.00    +0.000 A 
ATOM      5  C   UNL     1       4.656   4.813  17.879  0.00  0.00    +0.000 A 
ATOM      6  C   UNL     1       4.729   3.665  18.682  0.00  0.00    +0.000 A 
ATOM      7  C   UNL     1       3.983   3.596  19.843  0.00  0.00    +0.000 A 
ATOM      8  N   UNL     1       3.111   4.555  20.243  0.00  0.00    +0.000 NA
ATOM      9  C   UNL     1       3.019   5.661  19.487  0.00  0.00    +0.000 A 
ATOM     10  C   UNL     1       2.081   6.622  19.854  0.00  0.00    +0.000 A 
ENDROOT
BRANCH   5  11
ATOM     11  C   UNL     1       5.414   4.830  16.592  0.00  0.00    +0.000 A 
ATOM     12  C   UNL     1       6.752   5.277  16.537  0.00  0.00    +0.000 A 
ATOM     13  C   UNL     1       7.474   5.280  15.339  0.00  0.00    +0.000 A 
ATOM     14  C   UNL     1       6.861   4.866  14.167  0.00  0.00    +0.000 A 
ATOM     15  F   UNL     1       7.540   4.900  13.014  0.00  0.00    +0.000 F 
ATOM     16  C   UNL     1       5.554   4.406  14.179  0.00  0.00    +0.000 A 
ATOM     17  C   UNL     1       4.854   4.355  15.388  0.00  0.00    +0.000 A 
ENDBRANCH   5  11
BRANCH   7  18
ATOM     18  C   UNL     1       4.134   2.395  20.729  0.00  0.00    +0.000 C 
ATOM     19  N   UNL     1       5.141   1.533  20.398  0.00  0.00    +0.000 N 
ATOM     20  O   UNL     1       3.393   2.178  21.680  0.00  0.00    +0.000 OA
ATOM     21  H   UNL     1       5.716   1.713  19.586  0.00  0.00    +0.000 HD
ATOM     22  H   UNL     1       5.263   0.680  20.936  0.00  0.00    +0.000 HD
ENDBRANCH   7  18
BRANCH   1  23
ATOM     23  C   UNL     1       0.779   8.777  19.458  0.00  0.00    +0.000 C 
BRANCH  23  27
ATOM     24  C   UNL     1       0.762  13.084  19.913  0.00  0.00    +0.000 C 
ATOM     25  C   UNL     1       0.796  12.475  18.512  0.00  0.00    +0.000 C 
ATOM     26  C   UNL     1       0.461  10.985  18.480  0.00  0.00    +0.000 C 
ATOM     27  N   UNL     1       1.219  10.194  19.463  0.00  0.00    +0.000 NA
ATOM     28  C   UNL     1       1.112  10.733  20.826  0.00  0.00    +0.000 C 
ATOM     29  C   UNL     1       1.527  12.202  20.906  0.00  0.00    +0.000 C 
BRANCH  24  33
ATOM     30  C   UNL     1      -4.162  13.141  20.765  0.00  0.00    +0.000 C 
ATOM     31  C   UNL     1      -2.707  13.397  20.822  0.00  0.00    +0.000 A 
ATOM     32  C   UNL     1      -1.773  13.300  19.812  0.00  0.00    +0.000 A 
ATOM     33  N   UNL     1      -0.558  13.439  20.424  0.00  0.00    +0.000 N 
ATOM     34  C   UNL     1      -0.810  13.760  21.733  0.00  0.00    +0.000 A 
ATOM     35  N   UNL     1      -2.095  13.726  22.003  0.00  0.00    +0.000 NA
ENDBRANCH  24  33
ENDBRANCH  23  27
ENDBRANCH   1  23
TORSDOF 5
ENDMDL
MODEL 8
REMARK VINA RESULT:      -8.3      1.844      2.358
REMARK  Name = 
REMARK  6 active torsions:
REMARK  status: ('A' for Active; 'I' for Inactive)
REMARK    1  A    between atoms: C_1  and  C_2
REMARK    2  A    between atoms: N_4  and  C_5
REMARK    3  A    between atoms: N_8  and  C_9
REMARK    4  A    between atoms: C_9  and  C_10
REMARK    5  A    between atoms: C_14  and  C_15
REMARK    6  A    between atoms: C_23  and  C_24
REMARK                            x       y       z     vdW  Elec       q    Type
REMARK                         _______ _______ _______ _____ _____    ______ ____
ROOT
ATOM      1  C   UNL     1       1.484   8.818  18.865  0.00  0.00    +0.000 A 
ATOM      2  C   UNL     1       2.571   8.875  18.001  0.00  0.00    +0.000 A 
ATOM      3  C   UNL     1       3.397   7.765  17.853  0.00  0.00    +0.000 A 
ATOM      4  C   UNL     1       3.152   6.546  18.534  0.00  0.00    +0.000 A 
ATOM      5  C   UNL     1       3.869   5.329  18.303  0.00  0.00    +0.000 A 
ATOM      6  C   UNL     1       3.586   4.243  19.144  0.00  0.00    +0.000 A 
ATOM      7  C   UNL     1       2.627   4.376  20.130  0.00  0.00    +0.000 A 
ATOM      8  N   UNL     1       1.871   5.489  20.309  0.00  0.00    +0.000 NA
ATOM      9  C   UNL     1       2.121   6.539  19.511  0.00  0.00    +0.000 A 
ATOM     10  C   UNL     1       1.308   7.663  19.644  0.00  0.00    +0.000 A 
ENDROOT
BRANCH   5  11
ATOM     11  C   UNL     1       4.856   5.135  17.199  0.00  0.00    +0.000 A 
ATOM     12  C   UNL     1       6.154   5.684  17.272  0.00  0.00    +0.000 A 
ATOM     13  C   UNL     1       7.090   5.492  16.250  0.00  0.00    +0.000 A 
ATOM     14  C   UNL     1       6.733   4.773  15.120  0.00  0.00    +0.000 A 
ATOM     15  F   UNL     1       7.615   4.616  14.125  0.00  0.00    +0.000 F 
ATOM     16  C   UNL     1       5.474   4.204  15.013  0.00  0.00    +0.000 A 
ATOM     17  C   UNL     1       4.561   4.354  16.062  0.00  0.00    +0.000 A 
ENDBRANCH   5  11
BRANCH   7  18
ATOM     18  C   UNL     1       2.393   3.231  21.070  0.00  0.00    +0.000 C 
ATOM     19  N   UNL     1       1.087   2.961  21.367  0.00  0.00    +0.000 N 
ATOM     20  O   UNL     1       3.308   2.585  21.564  0.00  0.00    +0.000 OA
ATOM     21  H   UNL     1       0.349   3.533  20.978  0.00  0.00    +0.000 HD
ATOM     22  H   UNL     1       0.870   2.224  22.033  0.00  0.00    +0.000 HD
ENDBRANCH   7  18
BRANCH   1  23
ATOM     23  C   UNL     1       0.500   9.966  18.915  0.00  0.00    +0.000 C 
BRANCH  23  27
ATOM     24  C   UNL     1       0.843  13.771  20.955  0.00  0.00    +0.000 C 
ATOM     25  C   UNL     1       2.059  13.192  20.233  0.00  0.00    +0.000 C 
ATOM     26  C   UNL     1       1.722  12.040  19.287  0.00  0.00    +0.000 C 
ATOM     27  N   UNL     1       0.879  11.004  19.906  0.00  0.00    +0.000 NA
ATOM     28  C   UNL     1      -0.334  11.555  20.524  0.00  0.00    +0.000 C 
ATOM     29  C   UNL     1      -0.023  12.651  21.542  0.00  0.00    +0.000 C 
BRANCH  24  33
ATOM     30  C   UNL     1      -2.317  17.450  19.748  0.00  0.00    +0.000 C 
ATOM     31  C   UNL     1      -1.300  16.377  19.702  0.00  0.00    +0.000 A 
ATOM     32  C   UNL     1      -1.161  15.284  20.530  0.00  0.00    +0.000 A 
ATOM     33  N   UNL     1       0.039  14.722  20.193  0.00  0.00    +0.000 N 
ATOM     34  C   UNL     1       0.496  15.398  19.091  0.00  0.00    +0.000 A 
ATOM     35  N   UNL     1      -0.283  16.409  18.783  0.00  0.00    +0.000 NA
ENDBRANCH  24  33
ENDBRANCH  23  27
ENDBRANCH   1  23
TORSDOF 5
ENDMDL
MODEL 9
REMARK VINA RESULT:      -8.3      4.514     10.699
REMARK  Name = 
REMARK  6 active torsions:
REMARK  status: ('A' for Active; 'I' for Inactive)
REMARK    1  A    between atoms: C_1  and  C_2
REMARK    2  A    between atoms: N_4  and  C_5
REMARK    3  A    between atoms: N_8  and  C_9
REMARK    4  A    between atoms: C_9  and  C_10
REMARK    5  A    between atoms: C_14  and  C_15
REMARK    6  A    between atoms: C_23  and  C_24
REMARK                            x       y       z     vdW  Elec       q    Type
REMARK                         _______ _______ _______ _____ _____    ______ ____
ROOT
ATOM      1  C   UNL     1       1.820   8.772  18.263  0.00  0.00    +0.000 A 
ATOM      2  C   UNL     1       0.967   8.641  19.352  0.00  0.00    +0.000 A 
ATOM      3  C   UNL     1       0.500   9.776  20.007  0.00  0.00    +0.000 A 
ATOM      4  C   UNL     1       0.838  11.085  19.581  0.00  0.00    +0.000 A 
ATOM      5  C   UNL     1       0.266  12.284  20.114  0.00  0.00    +0.000 A 
ATOM      6  C   UNL     1       0.795  13.504  19.668  0.00  0.00    +0.000 A 
ATOM      7  C   UNL     1       1.812  13.506  18.732  0.00  0.00    +0.000 A 
ATOM      8  N   UNL     1       2.307  12.386  18.148  0.00  0.00    +0.000 NA
ATOM      9  C   UNL     1       1.811  11.207  18.555  0.00  0.00    +0.000 A 
ATOM     10  C   UNL     1       2.267  10.056  17.915  0.00  0.00    +0.000 A 
ENDROOT
BRANCH   5  11
ATOM     11  C   UNL     1      -0.882  12.314  21.069  0.00  0.00    +0.000 A 
ATOM     12  C   UNL     1      -0.714  11.970  22.427  0.00  0.00    +0.000 A 
ATOM     13  C   UNL     1      -1.781  12.012  23.331  0.00  0.00    +0.000 A 
ATOM     14  C   UNL     1      -3.044  12.367  22.885  0.00  0.00    +0.000 A 
ATOM     15  F   UNL     1      -4.074  12.375  23.741  0.00  0.00    +0.000 F 
ATOM     16  C   UNL     1      -3.251  12.725  21.563  0.00  0.00    +0.000 A 
ATOM     17  C   UNL     1      -2.171  12.733  20.675  0.00  0.00    +0.000 A 
ENDBRANCH   5  11
BRANCH   7  18
ATOM     18  C   UNL     1       2.419  14.817  18.326  0.00  0.00    +0.000 C 
ATOM     19  N   UNL     1       3.567  14.739  17.590  0.00  0.00    +0.000 N 
ATOM     20  O   UNL     1       1.936  15.895  18.648  0.00  0.00    +0.000 OA
ATOM     21  H   UNL     1       3.968  13.837  17.370  0.00  0.00    +0.000 HD
ATOM     22  H   UNL     1       4.046  15.594  17.324  0.00  0.00    +0.000 HD
ENDBRANCH   7  18
BRANCH   1  23
ATOM     23  C   UNL     1       2.208   7.550  17.458  0.00  0.00    +0.000 C 
BRANCH  23  27
ATOM     24  C   UNL     1       5.219   4.589  18.418  0.00  0.00    +0.000 C 
ATOM     25  C   UNL     1       3.740   4.210  18.492  0.00  0.00    +0.000 C 
ATOM     26  C   UNL     1       2.812   5.217  17.815  0.00  0.00    +0.000 C 
ATOM     27  N   UNL     1       3.065   6.609  18.222  0.00  0.00    +0.000 NA
ATOM     28  C   UNL     1       4.473   6.998  18.067  0.00  0.00    +0.000 C 
ATOM     29  C   UNL     1       5.422   6.057  18.808  0.00  0.00    +0.000 C 
BRANCH  24  33
ATOM     30  C   UNL     1       6.181   3.863  13.568  0.00  0.00    +0.000 C 
ATOM     31  C   UNL     1       6.303   4.023  15.033  0.00  0.00    +0.000 A 
ATOM     32  C   UNL     1       5.364   3.772  16.010  0.00  0.00    +0.000 A 
ATOM     33  N   UNL     1       5.899   4.271  17.166  0.00  0.00    +0.000 N 
ATOM     34  C   UNL     1       7.181   4.660  16.873  0.00  0.00    +0.000 A 
ATOM     35  N   UNL     1       7.445   4.536  15.592  0.00  0.00    +0.000 NA
ENDBRANCH  24  33
ENDBRANCH  23  27
ENDBRANCH   1  23
TORSDOF 5
ENDMDL
