MODEL 1
REMARK VINA RESULT:      -7.0      0.000      0.000
REMARK  Name = 
REMARK  3 active torsions:
REMARK  status: ('A' for Active; 'I' for Inactive)
REMARK    1  A    between atoms: C_1  and  C_2
REMARK    2  A    between atoms: C_6  and  O_7
REMARK    3  A    between atoms: C_13  and  N_14
REMARK                            x       y       z     vdW  Elec       q    Type
REMARK                         _______ _______ _______ _____ _____    ______ ____
ROOT
ATOM      1  C   UNL     1       5.411  15.614  20.350  0.00  0.00    +0.000 C 
ATOM      2  C   UNL     1       5.680  14.685  21.468  0.00  0.00    +0.000 A 
ATOM      3  C   UNL     1       4.766  14.119  22.351  0.00  0.00    +0.000 A 
ATOM      4  O   UNL     1       5.351  13.197  23.189  0.00  0.00    +0.000 OA
ATOM      5  C   UNL     1       6.673  13.119  22.820  0.00  0.00    +0.000 A 
ATOM      6  C   UNL     1       7.629  12.188  23.220  0.00  0.00    +0.000 A 
ATOM      7  C   UNL     1       8.825  12.138  22.491  0.00  0.00    +0.000 A 
ATOM      8  C   UNL     1       8.965  13.053  21.438  0.00  0.00    +0.000 A 
ATOM      9  C   UNL     1       8.067  14.095  21.142  0.00  0.00    +0.000 A 
ATOM     10  C   UNL     1       6.859  14.062  21.859  0.00  0.00    +0.000 A 
ATOM     11  O   UNL     1       8.347  14.827  20.008  0.00  0.00    +0.000 OA
ATOM     12  C   UNL     1       9.470  14.158  19.373  0.00  0.00    +0.000 C 
ATOM     13  C   UNL     1       8.980  13.500  18.030  0.00  0.00    +0.000 C 
ATOM     14  O   UNL     1       7.807  13.305  17.729  0.00  0.00    +0.000 OA
ATOM     15  N   UNL     1      10.045  13.012  17.268  0.00  0.00    +0.000 N 
ATOM     16  C   UNL     1      10.558  11.705  17.639  0.00  0.00    +0.000 C 
ATOM     17  C   UNL     1      11.606  11.766  18.772  0.00  0.00    +0.000 C 
ATOM     18  C   UNL     1      11.170  12.260  20.180  0.00  0.00    +0.000 C 
ATOM     19  C   UNL     1       9.777  12.844  20.210  0.00  0.00    +0.000 C 
ATOM     20  H   UNL     1      10.797  13.694  17.262  0.00  0.00    +0.000 HD
ENDROOT
BRANCH  12  21
ATOM     21  N   UNL     1      10.585  15.113  19.014  0.00  0.00    +0.000 NA
ATOM     22  C   UNL     1      10.094  16.110  18.026  0.00  0.00    +0.000 C 
ATOM     23  C   UNL     1      11.232  16.983  17.494  0.00  0.00    +0.000 C 
ATOM     24  C   UNL     1      11.921  17.724  18.628  0.00  0.00    +0.000 C 
ATOM     25  C   UNL     1      12.333  16.738  19.716  0.00  0.00    +0.000 C 
ATOM     26  C   UNL     1      11.156  15.844  20.162  0.00  0.00    +0.000 C 
ENDBRANCH  12  21
BRANCH   6  27
ATOM     27  O   UNL     1       7.359  11.230  24.163  0.00  0.00    +0.000 OA
ATOM     28  H   UNL     1       7.733  11.568  25.001  0.00  0.00    +0.000 HD
ENDBRANCH   6  27
TORSDOF 2
ENDMDL
MODEL 2
REMARK VINA RESULT:      -6.5     10.824     14.402
REMARK  Name = 
REMARK  3 active torsions:
REMARK  status: ('A' for Active; 'I' for Inactive)
REMARK    1  A    between atoms: C_1  and  C_2
REMARK    2  A    between atoms: C_6  and  O_7
REMARK    3  A    between atoms: C_13  and  N_14
REMARK                            x       y       z     vdW  Elec       q    Type
REMARK                         _______ _______ _______ _____ _____    ______ ____
ROOT
ATOM      1  C   UNL     1      -0.493  12.674  21.911  0.00  0.00    +0.000 C 
ATOM      2  C   UNL     1      -1.150  12.271  20.649  0.00  0.00    +0.000 A 
ATOM      3  C   UNL     1      -0.665  11.414  19.666  0.00  0.00    +0.000 A 
ATOM      4  O   UNL     1      -1.599  11.163  18.686  0.00  0.00    +0.000 OA
ATOM      5  C   UNL     1      -2.741  11.832  19.056  0.00  0.00    +0.000 A 
ATOM      6  C   UNL     1      -4.019  11.727  18.511  0.00  0.00    +0.000 A 
ATOM      7  C   UNL     1      -5.078  12.290  19.237  0.00  0.00    +0.000 A 
ATOM      8  C   UNL     1      -4.751  12.935  20.438  0.00  0.00    +0.000 A 
ATOM      9  C   UNL     1      -3.445  13.177  20.902  0.00  0.00    +0.000 A 
ATOM     10  C   UNL     1      -2.426  12.540  20.172  0.00  0.00    +0.000 A 
ATOM     11  O   UNL     1      -3.346  13.749  22.152  0.00  0.00    +0.000 OA
ATOM     12  C   UNL     1      -4.701  13.794  22.675  0.00  0.00    +0.000 C 
ATOM     13  C   UNL     1      -4.821  12.779  23.872  0.00  0.00    +0.000 C 
ATOM     14  O   UNL     1      -4.021  11.881  24.115  0.00  0.00    +0.000 OA
ATOM     15  N   UNL     1      -6.035  12.912  24.551  0.00  0.00    +0.000 N 
ATOM     16  C   UNL     1      -7.181  12.243  23.961  0.00  0.00    +0.000 C 
ATOM     17  C   UNL     1      -7.880  13.087  22.873  0.00  0.00    +0.000 C 
ATOM     18  C   UNL     1      -7.107  13.431  21.569  0.00  0.00    +0.000 C 
ATOM     19  C   UNL     1      -5.642  13.068  21.622  0.00  0.00    +0.000 C 
ATOM     20  H   UNL     1      -6.238  13.897  24.689  0.00  0.00    +0.000 HD
ENDROOT
BRANCH  12  21
ATOM     21  N   UNL     1      -5.068  15.157  23.214  0.00  0.00    +0.000 NA
ATOM     22  C   UNL     1      -4.077  15.574  24.242  0.00  0.00    +0.000 C 
ATOM     23  C   UNL     1      -4.507  16.860  24.950  0.00  0.00    +0.000 C 
ATOM     24  C   UNL     1      -4.676  17.994  23.952  0.00  0.00    +0.000 C 
ATOM     25  C   UNL     1      -5.597  17.555  22.819  0.00  0.00    +0.000 C 
ATOM     26  C   UNL     1      -5.147  16.218  22.193  0.00  0.00    +0.000 C 
ENDBRANCH  12  21
BRANCH   6  27
ATOM     27  O   UNL     1      -4.278  10.954  17.409  0.00  0.00    +0.000 OA
ATOM     28  H   UNL     1      -5.186  11.185  17.128  0.00  0.00    +0.000 HD
ENDBRANCH   6  27
TORSDOF 2
ENDMDL
MODEL 3
REMARK VINA RESULT:      -6.4      7.422     10.557
REMARK  Name = 
REMARK  3 active torsions:
REMARK  status: ('A' for Active; 'I' for Inactive)
REMARK    1  A    between atoms: C_1  and  C_2
REMARK    2  A    between atoms: C_6  and  O_7
REMARK    3  A    between atoms: C_13  and  N_14
REMARK                            x       y       z     vdW  Elec       q    Type
REMARK                         _______ _______ _______ _____ _____    ______ ____
ROOT
ATOM      1  C   UNL     1      -0.730  16.594  20.124  0.00  0.00    +0.000 C 
ATOM      2  C   UNL     1       0.553  16.372  19.422  0.00  0.00    +0.000 A 
ATOM      3  C   UNL     1       1.618  17.257  19.286  0.00  0.00    +0.000 A 
ATOM      4  O   UNL     1       2.707  16.672  18.680  0.00  0.00    +0.000 OA
ATOM      5  C   UNL     1       2.369  15.359  18.454  0.00  0.00    +0.000 A 
ATOM      6  C   UNL     1       3.195  14.309  18.058  0.00  0.00    +0.000 A 
ATOM      7  C   UNL     1       2.685  13.008  18.173  0.00  0.00    +0.000 A 
ATOM      8  C   UNL     1       1.373  12.882  18.652  0.00  0.00    +0.000 A 
ATOM      9  C   UNL     1       0.491  13.949  18.897  0.00  0.00    +0.000 A 
ATOM     10  C   UNL     1       1.068  15.228  18.827  0.00  0.00    +0.000 A 
ATOM     11  O   UNL     1      -0.726  13.610  19.451  0.00  0.00    +0.000 OA
ATOM     12  C   UNL     1      -0.644  12.190  19.745  0.00  0.00    +0.000 C 
ATOM     13  C   UNL     1      -0.622  11.992  21.306  0.00  0.00    +0.000 C 
ATOM     14  O   UNL     1      -0.389  12.876  22.124  0.00  0.00    +0.000 OA
ATOM     15  N   UNL     1      -0.745  10.647  21.665  0.00  0.00    +0.000 N 
ATOM     16  C   UNL     1       0.469   9.852  21.619  0.00  0.00    +0.000 C 
ATOM     17  C   UNL     1       0.767   9.285  20.214  0.00  0.00    +0.000 C 
ATOM     18  C   UNL     1       1.079  10.268  19.051  0.00  0.00    +0.000 C 
ATOM     19  C   UNL     1       0.833  11.717  19.402  0.00  0.00    +0.000 C 
ATOM     20  H   UNL     1      -1.469  10.212  21.102  0.00  0.00    +0.000 HD
ENDROOT
BRANCH  12  21
ATOM     21  N   UNL     1      -1.834  11.420  19.221  0.00  0.00    +0.000 NA
ATOM     22  C   UNL     1      -3.049  12.275  19.277  0.00  0.00    +0.000 C 
ATOM     23  C   UNL     1      -4.311  11.483  18.932  0.00  0.00    +0.000 C 
ATOM     24  C   UNL     1      -4.207  10.881  17.540  0.00  0.00    +0.000 C 
ATOM     25  C   UNL     1      -2.908  10.092  17.413  0.00  0.00    +0.000 C 
ATOM     26  C   UNL     1      -1.681  10.926  17.839  0.00  0.00    +0.000 C 
ENDBRANCH  12  21
BRANCH   6  27
ATOM     27  O   UNL     1       4.515  14.503  17.742  0.00  0.00    +0.000 OA
ATOM     28  H   UNL     1       4.680  15.459  17.865  0.00  0.00    +0.000 HD
ENDBRANCH   6  27
TORSDOF 2
ENDMDL
MODEL 4
REMARK VINA RESULT:      -6.4      9.025     12.026
REMARK  Name = 
REMARK  3 active torsions:
REMARK  status: ('A' for Active; 'I' for Inactive)
REMARK    1  A    between atoms: C_1  and  C_2
REMARK    2  A    between atoms: C_6  and  O_7
REMARK    3  A    between atoms: C_13  and  N_14
REMARK                            x       y       z     vdW  Elec       q    Type
REMARK                         _______ _______ _______ _____ _____    ______ ____
ROOT
ATOM      1  C   UNL     1      -5.059  13.361  20.021  0.00  0.00    +0.000 C 
ATOM      2  C   UNL     1      -5.135  12.599  18.755  0.00  0.00    +0.000 A 
ATOM      3  C   UNL     1      -6.074  12.722  17.736  0.00  0.00    +0.000 A 
ATOM      4  O   UNL     1      -5.764  11.942  16.645  0.00  0.00    +0.000 OA
ATOM      5  C   UNL     1      -4.569  11.326  16.932  0.00  0.00    +0.000 A 
ATOM      6  C   UNL     1      -3.739  10.606  16.076  0.00  0.00    +0.000 A 
ATOM      7  C   UNL     1      -2.441  10.321  16.523  0.00  0.00    +0.000 A 
ATOM      8  C   UNL     1      -2.103  10.764  17.810  0.00  0.00    +0.000 A 
ATOM      9  C   UNL     1      -2.993  11.348  18.729  0.00  0.00    +0.000 A 
ATOM     10  C   UNL     1      -4.260  11.667  18.211  0.00  0.00    +0.000 A 
ATOM     11  O   UNL     1      -2.436  11.793  19.908  0.00  0.00    +0.000 OA
ATOM     12  C   UNL     1      -1.000  11.630  19.753  0.00  0.00    +0.000 C 
ATOM     13  C   UNL     1      -0.330  13.051  19.666  0.00  0.00    +0.000 C 
ATOM     14  O   UNL     1      -0.929  14.099  19.443  0.00  0.00    +0.000 OA
ATOM     15  N   UNL     1       1.064  12.976  19.716  0.00  0.00    +0.000 N 
ATOM     16  C   UNL     1       1.739  12.660  18.470  0.00  0.00    +0.000 C 
ATOM     17  C   UNL     1       1.827  11.142  18.199  0.00  0.00    +0.000 C 
ATOM     18  C   UNL     1       0.518  10.337  17.973  0.00  0.00    +0.000 C 
ATOM     19  C   UNL     1      -0.736  11.126  18.270  0.00  0.00    +0.000 C 
ATOM     20  H   UNL     1       1.341  12.321  20.440  0.00  0.00    +0.000 HD
ENDROOT
BRANCH  12  21
ATOM     21  N   UNL     1      -0.368  10.917  20.926  0.00  0.00    +0.000 NA
ATOM     22  C   UNL     1      -1.222  11.080  22.133  0.00  0.00    +0.000 C 
ATOM     23  C   UNL     1      -0.536  10.535  23.386  0.00  0.00    +0.000 C 
ATOM     24  C   UNL     1      -0.206   9.061  23.224  0.00  0.00    +0.000 C 
ATOM     25  C   UNL     1       0.572   8.844  21.930  0.00  0.00    +0.000 C 
ATOM     26  C   UNL     1      -0.141   9.475  20.714  0.00  0.00    +0.000 C 
ENDBRANCH  12  21
BRANCH   6  27
ATOM     27  O   UNL     1      -4.092  10.339  14.778  0.00  0.00    +0.000 OA
ATOM     28  H   UNL     1      -3.469  10.849  14.222  0.00  0.00    +0.000 HD
ENDBRANCH   6  27
TORSDOF 2
ENDMDL
MODEL 5
REMARK VINA RESULT:      -6.3      9.301     11.801
REMARK  Name = 
REMARK  3 active torsions:
REMARK  status: ('A' for Active; 'I' for Inactive)
REMARK    1  A    between atoms: C_1  and  C_2
REMARK    2  A    between atoms: C_6  and  O_7
REMARK    3  A    between atoms: C_13  and  N_14
REMARK                            x       y       z     vdW  Elec       q    Type
REMARK                         _______ _______ _______ _____ _____    ______ ____
ROOT
ATOM      1  C   UNL     1       7.375   5.756  19.978  0.00  0.00    +0.000 C 
ATOM      2  C   UNL     1       7.376   5.237  18.593  0.00  0.00    +0.000 A 
ATOM      3  C   UNL     1       8.433   4.663  17.895  0.00  0.00    +0.000 A 
ATOM      4  O   UNL     1       8.044   4.173  16.668  0.00  0.00    +0.000 OA
ATOM      5  C   UNL     1       6.690   4.388  16.575  0.00  0.00    +0.000 A 
ATOM      6  C   UNL     1       5.798   3.890  15.627  0.00  0.00    +0.000 A 
ATOM      7  C   UNL     1       4.429   4.010  15.903  0.00  0.00    +0.000 A 
ATOM      8  C   UNL     1       4.078   4.649  17.101  0.00  0.00    +0.000 A 
ATOM      9  C   UNL     1       4.974   5.289  17.975  0.00  0.00    +0.000 A 
ATOM     10  C   UNL     1       6.335   5.087  17.686  0.00  0.00    +0.000 A 
ATOM     11  O   UNL     1       4.432   5.778  19.144  0.00  0.00    +0.000 OA
ATOM     12  C   UNL     1       3.051   5.325  19.158  0.00  0.00    +0.000 C 
ATOM     13  C   UNL     1       2.877   4.254  20.298  0.00  0.00    +0.000 C 
ATOM     14  O   UNL     1       3.797   3.668  20.859  0.00  0.00    +0.000 OA
ATOM     15  N   UNL     1       1.535   3.921  20.502  0.00  0.00    +0.000 N 
ATOM     16  C   UNL     1       0.967   2.942  19.593  0.00  0.00    +0.000 C 
ATOM     17  C   UNL     1       0.447   3.566  18.280  0.00  0.00    +0.000 C 
ATOM     18  C   UNL     1       1.458   4.238  17.308  0.00  0.00    +0.000 C 
ATOM     19  C   UNL     1       2.843   4.392  17.890  0.00  0.00    +0.000 C 
ATOM     20  H   UNL     1       0.973   4.767  20.501  0.00  0.00    +0.000 HD
ENDROOT
BRANCH  12  21
ATOM     21  N   UNL     1       2.078   6.443  19.451  0.00  0.00    +0.000 NA
ATOM     22  C   UNL     1       2.141   6.798  20.895  0.00  0.00    +0.000 C 
ATOM     23  C   UNL     1       1.045   7.794  21.277  0.00  0.00    +0.000 C 
ATOM     24  C   UNL     1       1.166   9.070  20.460  0.00  0.00    +0.000 C 
ATOM     25  C   UNL     1       1.222   8.729  18.974  0.00  0.00    +0.000 C 
ATOM     26  C   UNL     1       2.302   7.670  18.664  0.00  0.00    +0.000 C 
ENDBRANCH  12  21
BRANCH   6  27
ATOM     27  O   UNL     1       6.219   3.149  14.553  0.00  0.00    +0.000 OA
ATOM     28  H   UNL     1       5.485   2.536  14.349  0.00  0.00    +0.000 HD
ENDBRANCH   6  27
TORSDOF 2
ENDMDL
MODEL 6
REMARK VINA RESULT:      -6.3      9.187     11.013
REMARK  Name = 
REMARK  3 active torsions:
REMARK  status: ('A' for Active; 'I' for Inactive)
REMARK    1  A    between atoms: C_1  and  C_2
REMARK    2  A    between atoms: C_6  and  O_7
REMARK    3  A    between atoms: C_13  and  N_14
REMARK                            x       y       z     vdW  Elec       q    Type
REMARK                         _______ _______ _______ _____ _____    ______ ____
ROOT
ATOM      1  C   UNL     1       3.562   1.446  18.966  0.00  0.00    +0.000 C 
ATOM      2  C   UNL     1       2.722   2.548  19.485  0.00  0.00    +0.000 A 
ATOM      3  C   UNL     1       1.869   2.530  20.584  0.00  0.00    +0.000 A 
ATOM      4  O   UNL     1       1.342   3.773  20.855  0.00  0.00    +0.000 OA
ATOM      5  C   UNL     1       1.897   4.639  19.943  0.00  0.00    +0.000 A 
ATOM      6  C   UNL     1       1.847   6.031  19.930  0.00  0.00    +0.000 A 
ATOM      7  C   UNL     1       2.725   6.701  19.067  0.00  0.00    +0.000 A 
ATOM      8  C   UNL     1       3.559   5.906  18.270  0.00  0.00    +0.000 A 
ATOM      9  C   UNL     1       3.494   4.504  18.170  0.00  0.00    +0.000 A 
ATOM     10  C   UNL     1       2.644   3.880  19.098  0.00  0.00    +0.000 A 
ATOM     11  O   UNL     1       4.466   3.909  17.395  0.00  0.00    +0.000 OA
ATOM     12  C   UNL     1       5.380   4.976  17.021  0.00  0.00    +0.000 C 
ATOM     13  C   UNL     1       6.755   4.750  17.752  0.00  0.00    +0.000 C 
ATOM     14  O   UNL     1       6.929   4.003  18.710  0.00  0.00    +0.000 OA
ATOM     15  N   UNL     1       7.744   5.621  17.287  0.00  0.00    +0.000 N 
ATOM     16  C   UNL     1       7.744   6.959  17.852  0.00  0.00    +0.000 C 
ATOM     17  C   UNL     1       6.780   7.921  17.125  0.00  0.00    +0.000 C 
ATOM     18  C   UNL     1       5.252   7.641  17.173  0.00  0.00    +0.000 C 
ATOM     19  C   UNL     1       4.903   6.295  17.764  0.00  0.00    +0.000 C 
ATOM     20  H   UNL     1       7.703   5.669  16.274  0.00  0.00    +0.000 HD
ENDROOT
BRANCH  12  21
ATOM     21  N   UNL     1       5.669   4.997  15.538  0.00  0.00    +0.000 NA
ATOM     22  C   UNL     1       7.094   4.643  15.298  0.00  0.00    +0.000 C 
ATOM     23  C   UNL     1       7.481   4.831  13.830  0.00  0.00    +0.000 C 
ATOM     24  C   UNL     1       6.612   3.971  12.928  0.00  0.00    +0.000 C 
ATOM     25  C   UNL     1       5.139   4.226  13.233  0.00  0.00    +0.000 C 
ATOM     26  C   UNL     1       4.828   4.086  14.738  0.00  0.00    +0.000 C 
ENDBRANCH  12  21
BRANCH   6  27
ATOM     27  O   UNL     1       1.110   6.739  20.845  0.00  0.00    +0.000 OA
ATOM     28  H   UNL     1       0.962   6.130  21.597  0.00  0.00    +0.000 HD
ENDBRANCH   6  27
TORSDOF 2
ENDMDL
MODEL 7
REMARK VINA RESULT:      -6.2     10.459     13.331
REMARK  Name = 
REMARK  3 active torsions:
REMARK  status: ('A' for Active; 'I' for Inactive)
REMARK    1  A    between atoms: C_1  and  C_2
REMARK    2  A    between atoms: C_6  and  O_7
REMARK    3  A    between atoms: C_13  and  N_14
REMARK                            x       y       z     vdW  Elec       q    Type
REMARK                         _______ _______ _______ _____ _____    ______ ____
ROOT
ATOM      1  C   UNL     1      -0.079  11.294  19.862  0.00  0.00    +0.000 C 
ATOM      2  C   UNL     1      -1.272  11.223  18.990  0.00  0.00    +0.000 A 
ATOM      3  C   UNL     1      -1.481  10.394  17.892  0.00  0.00    +0.000 A 
ATOM      4  O   UNL     1      -2.759  10.505  17.392  0.00  0.00    +0.000 OA
ATOM      5  C   UNL     1      -3.421  11.392  18.206  0.00  0.00    +0.000 A 
ATOM      6  C   UNL     1      -4.784  11.678  18.246  0.00  0.00    +0.000 A 
ATOM      7  C   UNL     1      -5.260  12.400  19.349  0.00  0.00    +0.000 A 
ATOM      8  C   UNL     1      -4.313  12.795  20.305  0.00  0.00    +0.000 A 
ATOM      9  C   UNL     1      -2.921  12.642  20.181  0.00  0.00    +0.000 A 
ATOM     10  C   UNL     1      -2.501  11.860  19.090  0.00  0.00    +0.000 A 
ATOM     11  O   UNL     1      -2.173  13.019  21.276  0.00  0.00    +0.000 OA
ATOM     12  C   UNL     1      -3.134  13.342  22.317  0.00  0.00    +0.000 C 
ATOM     13  C   UNL     1      -3.041  12.256  23.453  0.00  0.00    +0.000 C 
ATOM     14  O   UNL     1      -2.497  11.163  23.338  0.00  0.00    +0.000 OA
ATOM     15  N   UNL     1      -3.792  12.609  24.577  0.00  0.00    +0.000 N 
ATOM     16  C   UNL     1      -5.215  12.326  24.519  0.00  0.00    +0.000 C 
ATOM     17  C   UNL     1      -6.026  13.441  23.825  0.00  0.00    +0.000 C 
ATOM     18  C   UNL     1      -5.778  13.731  22.318  0.00  0.00    +0.000 C 
ATOM     19  C   UNL     1      -4.579  13.006  21.752  0.00  0.00    +0.000 C 
ATOM     20  H   UNL     1      -3.639  13.590  24.790  0.00  0.00    +0.000 HD
ENDROOT
BRANCH  12  21
ATOM     21  N   UNL     1      -2.858  14.679  22.964  0.00  0.00    +0.000 NA
ATOM     22  C   UNL     1      -1.467  14.706  23.490  0.00  0.00    +0.000 C 
ATOM     23  C   UNL     1      -1.201  15.967  24.315  0.00  0.00    +0.000 C 
ATOM     24  C   UNL     1      -1.427  17.216  23.480  0.00  0.00    +0.000 C 
ATOM     25  C   UNL     1      -2.805  17.163  22.830  0.00  0.00    +0.000 C 
ATOM     26  C   UNL     1      -3.036  15.839  22.069  0.00  0.00    +0.000 C 
ENDBRANCH  12  21
BRANCH   6  27
ATOM     27  O   UNL     1      -5.667  11.131  17.350  0.00  0.00    +0.000 OA
ATOM     28  H   UNL     1      -5.347  10.222  17.183  0.00  0.00    +0.000 HD
ENDBRANCH   6  27
TORSDOF 2
ENDMDL
MODEL 8
REMARK VINA RESULT:      -6.2      9.315     11.383
REMARK  Name = 
REMARK  3 active torsions:
REMARK  status: ('A' for Active; 'I' for Inactive)
REMARK    1  A    between atoms: C_1  and  C_2
REMARK    2  A    between atoms: C_6  and  O_7
REMARK    3  A    between atoms: C_13  and  N_14
REMARK                            x       y       z     vdW  Elec       q    Type
REMARK                         _______ _______ _______ _____ _____    ______ ____
ROOT
ATOM      1  C   UNL     1       1.572   8.628  18.245  0.00  0.00    +0.000 C 
ATOM      2  C   UNL     1       1.378   8.517  19.707  0.00  0.00    +0.000 A 
ATOM      3  C   UNL     1       2.167   7.834  20.626  0.00  0.00    +0.000 A 
ATOM      4  O   UNL     1       1.762   8.052  21.924  0.00  0.00    +0.000 OA
ATOM      5  C   UNL     1       0.712   8.935  21.862  0.00  0.00    +0.000 A 
ATOM      6  C   UNL     1       0.097   9.624  22.906  0.00  0.00    +0.000 A 
ATOM      7  C   UNL     1      -0.758  10.682  22.567  0.00  0.00    +0.000 A 
ATOM      8  C   UNL     1      -0.940  10.936  21.200  0.00  0.00    +0.000 A 
ATOM      9  C   UNL     1      -0.445  10.140  20.152  0.00  0.00    +0.000 A 
ATOM     10  C   UNL     1       0.454   9.132  20.542  0.00  0.00    +0.000 A 
ATOM     11  O   UNL     1      -0.663  10.618  18.877  0.00  0.00    +0.000 OA
ATOM     12  C   UNL     1      -1.249  11.937  19.045  0.00  0.00    +0.000 C 
ATOM     13  C   UNL     1      -0.214  13.020  18.565  0.00  0.00    +0.000 C 
ATOM     14  O   UNL     1       0.983  12.820  18.386  0.00  0.00    +0.000 OA
ATOM     15  N   UNL     1      -0.780  14.297  18.510  0.00  0.00    +0.000 N 
ATOM     16  C   UNL     1      -0.854  15.025  19.763  0.00  0.00    +0.000 C 
ATOM     17  C   UNL     1      -2.110  14.678  20.592  0.00  0.00    +0.000 C 
ATOM     18  C   UNL     1      -2.278  13.235  21.143  0.00  0.00    +0.000 C 
ATOM     19  C   UNL     1      -1.261  12.258  20.600  0.00  0.00    +0.000 C 
ATOM     20  H   UNL     1      -1.700  14.240  18.084  0.00  0.00    +0.000 HD
ENDROOT
BRANCH  12  21
ATOM     21  N   UNL     1      -2.499  12.124  18.217  0.00  0.00    +0.000 NA
ATOM     22  C   UNL     1      -2.442  11.250  17.016  0.00  0.00    +0.000 C 
ATOM     23  C   UNL     1      -3.595  11.540  16.053  0.00  0.00    +0.000 C 
ATOM     24  C   UNL     1      -4.936  11.332  16.739  0.00  0.00    +0.000 C 
ATOM     25  C   UNL     1      -4.981  12.127  18.040  0.00  0.00    +0.000 C 
ATOM     26  C   UNL     1      -3.756  11.840  18.936  0.00  0.00    +0.000 C 
ENDBRANCH  12  21
BRANCH   6  27
ATOM     27  O   UNL     1       0.441   9.412  24.217  0.00  0.00    +0.000 OA
ATOM     28  H   UNL     1       1.013  10.165  24.467  0.00  0.00    +0.000 HD
ENDBRANCH   6  27
TORSDOF 2
ENDMDL
MODEL 9
REMARK VINA RESULT:      -6.2     10.646     13.834
REMARK  Name = 
REMARK  3 active torsions:
REMARK  status: ('A' for Active; 'I' for Inactive)
REMARK    1  A    between atoms: C_1  and  C_2
REMARK    2  A    between atoms: C_6  and  O_7
REMARK    3  A    between atoms: C_13  and  N_14
REMARK                            x       y       z     vdW  Elec       q    Type
REMARK                         _______ _______ _______ _____ _____    ______ ____
ROOT
ATOM      1  C   UNL     1      -0.219  11.703  21.064  0.00  0.00    +0.000 C 
ATOM      2  C   UNL     1      -1.144  11.513  19.925  0.00  0.00    +0.000 A 
ATOM      3  C   UNL     1      -1.025  10.620  18.865  0.00  0.00    +0.000 A 
ATOM      4  O   UNL     1      -2.137  10.624  18.053  0.00  0.00    +0.000 OA
ATOM      5  C   UNL     1      -3.028  11.506  18.616  0.00  0.00    +0.000 A 
ATOM      6  C   UNL     1      -4.368  11.706  18.292  0.00  0.00    +0.000 A 
ATOM      7  C   UNL     1      -5.145  12.449  19.191  0.00  0.00    +0.000 A 
ATOM      8  C   UNL     1      -4.494  12.950  20.328  0.00  0.00    +0.000 A 
ATOM      9  C   UNL     1      -3.111  12.881  20.569  0.00  0.00    +0.000 A 
ATOM     10  C   UNL     1      -2.389  12.075  19.672  0.00  0.00    +0.000 A 
ATOM     11  O   UNL     1      -2.687  13.357  21.791  0.00  0.00    +0.000 OA
ATOM     12  C   UNL     1      -3.897  13.669  22.534  0.00  0.00    +0.000 C 
ATOM     13  C   UNL     1      -4.044  12.648  23.723  0.00  0.00    +0.000 C 
ATOM     14  O   UNL     1      -3.435  11.587  23.819  0.00  0.00    +0.000 OA
ATOM     15  N   UNL     1      -5.073  13.007  24.597  0.00  0.00    +0.000 N 
ATOM     16  C   UNL     1      -6.418  12.631  24.200  0.00  0.00    +0.000 C 
ATOM     17  C   UNL     1      -7.079  13.657  23.254  0.00  0.00    +0.000 C 
ATOM     18  C   UNL     1      -6.469  13.888  21.843  0.00  0.00    +0.000 C 
ATOM     19  C   UNL     1      -5.132  13.215  21.645  0.00  0.00    +0.000 C 
ATOM     20  H   UNL     1      -5.029  14.005  24.778  0.00  0.00    +0.000 HD
ENDROOT
BRANCH  12  21
ATOM     21  N   UNL     1      -3.862  15.051  23.143  0.00  0.00    +0.000 NA
ATOM     22  C   UNL     1      -2.672  15.181  24.026  0.00  0.00    +0.000 C 
ATOM     23  C   UNL     1      -2.693  16.495  24.809  0.00  0.00    +0.000 C 
ATOM     24  C   UNL     1      -2.726  17.686  23.864  0.00  0.00    +0.000 C 
ATOM     25  C   UNL     1      -3.869  17.524  22.867  0.00  0.00    +0.000 C 
ATOM     26  C   UNL     1      -3.829  16.151  22.161  0.00  0.00    +0.000 C 
ENDBRANCH  12  21
BRANCH   6  27
ATOM     27  O   UNL     1      -4.965  11.061  17.240  0.00  0.00    +0.000 OA
ATOM     28  H   UNL     1      -5.235  10.186  17.583  0.00  0.00    +0.000 HD
ENDBRANCH   6  27
TORSDOF 2
ENDMDL
