MODEL 1
REMARK VINA RESULT:      -6.6      0.000      0.000
REMARK  Name = 
REMARK  6 active torsions:
REMARK  status: ('A' for Active; 'I' for Inactive)
REMARK    1  A    between atoms: N_1  and  CA_2
REMARK    2  A    between atoms: CA_2  and  C_3
REMARK    3  A    between atoms: CA_2  and  C_19
REMARK    4  A    between atoms: N_5  and  CA_6
REMARK    5  A    between atoms: CA_10  and  C_11
REMARK    6  A    between atoms: C_11  and  OXT_13
REMARK                            x       y       z     vdW  Elec       q    Type
REMARK                         _______ _______ _______ _____ _____    ______ ____
ROOT
ATOM      1  C   UNL     1       2.528   7.891  18.206  0.00  0.00    +0.000 C 
ATOM      2  O   UNL     1       2.631   8.166  17.010  0.00  0.00    +0.000 OA
ATOM      3  N   UNL     1       1.660   8.585  19.023  0.00  0.00    +0.000 N 
ATOM      4  H   UNL     1       1.408   8.150  19.905  0.00  0.00    +0.000 HD
ENDROOT
BRANCH   3   5
ATOM      5  CA  UNL     1       0.836   9.694  18.480  0.00  0.00    +0.000 C 
ATOM      6  C   UNL     1       1.548  11.056  18.507  0.00  0.00    +0.000 C 
ATOM      7  O   UNL     1       2.565  11.527  18.052  0.00  0.00    +0.000 OA
ATOM      8  N   UNL     1       0.709  11.517  19.450  0.00  0.00    +0.000 N 
ATOM      9  CA  UNL     1       0.614  12.592  20.288  0.00  0.00    +0.000 C 
ATOM     10  C   UNL     1      -0.124  12.469  21.420  0.00  0.00    +0.000 C 
ATOM     11 CL   UNL     1      -0.319  13.737  22.602  0.00  0.00    +0.000 Cl
ATOM     12  C   UNL     1      -0.807  11.204  21.899  0.00  0.00    +0.000 C 
ATOM     13  S   UNL     1      -0.166   9.688  21.157  0.00  0.00    +0.000 S 
ATOM     14  C   UNL     1      -0.162  10.355  19.471  0.00  0.00    +0.000 C 
BRANCH   9  15
ATOM     15  C   UNL     1       1.317  13.871  19.926  0.00  0.00    +0.000 C 
ATOM     16  O   UNL     1       0.741  14.850  19.443  0.00  0.00    +0.000 OA
BRANCH  15  17
ATOM     17  OXT UNL     1       2.654  13.894  20.053  0.00  0.00    +0.000 OA
ATOM     18  HXT UNL     1       3.136  13.040  20.115  0.00  0.00    +0.000 HD
ENDBRANCH  15  17
ENDBRANCH   9  15
ENDBRANCH   3   5
BRANCH   1  19
ATOM     19  CA  UNL     1       3.298   6.721  18.891  0.00  0.00    +0.000 C 
BRANCH  19  20
ATOM     20  C   UNL     1       2.368   5.539  19.157  0.00  0.00    +0.000 A 
ATOM     21  C   UNL     1       1.910   5.205  20.442  0.00  0.00    +0.000 A 
ATOM     22  C   UNL     1       1.188   4.030  20.657  0.00  0.00    +0.000 A 
ATOM     23  C   UNL     1       0.896   3.184  19.590  0.00  0.00    +0.000 A 
ATOM     24  C   UNL     1       1.296   3.521  18.302  0.00  0.00    +0.000 A 
ATOM     25  C   UNL     1       2.015   4.697  18.083  0.00  0.00    +0.000 A 
ENDBRANCH  19  20
BRANCH  19  26
ATOM     26  N   UNL     1       4.464   6.361  18.059  0.00  0.00    +0.000 NA
ATOM     27  H1  UNL     1       4.491   6.968  17.240  0.00  0.00    +0.000 HD
ATOM     28  H2  UNL     1       4.358   5.412  17.703  0.00  0.00    +0.000 HD
ENDBRANCH  19  26
ENDBRANCH   1  19
TORSDOF 6
ENDMDL
MODEL 2
REMARK VINA RESULT:      -6.1      4.039      5.357
REMARK  Name = 
REMARK  6 active torsions:
REMARK  status: ('A' for Active; 'I' for Inactive)
REMARK    1  A    between atoms: N_1  and  CA_2
REMARK    2  A    between atoms: CA_2  and  C_3
REMARK    3  A    between atoms: CA_2  and  C_19
REMARK    4  A    between atoms: N_5  and  CA_6
REMARK    5  A    between atoms: CA_10  and  C_11
REMARK    6  A    between atoms: C_11  and  OXT_13
REMARK                            x       y       z     vdW  Elec       q    Type
REMARK                         _______ _______ _______ _____ _____    ______ ____
ROOT
ATOM      1  C   UNL     1       0.385  10.580  21.146  0.00  0.00    +0.000 C 
ATOM      2  O   UNL     1       0.967  11.583  21.559  0.00  0.00    +0.000 OA
ATOM      3  N   UNL     1      -0.748  10.687  20.366  0.00  0.00    +0.000 N 
ATOM      4  H   UNL     1      -1.019   9.868  19.830  0.00  0.00    +0.000 HD
ENDROOT
BRANCH   3   5
ATOM      5  CA  UNL     1      -1.301  12.020  20.016  0.00  0.00    +0.000 C 
ATOM      6  C   UNL     1      -2.530  12.412  20.852  0.00  0.00    +0.000 C 
ATOM      7  O   UNL     1      -2.786  12.562  22.024  0.00  0.00    +0.000 OA
ATOM      8  N   UNL     1      -3.335  12.315  19.780  0.00  0.00    +0.000 N 
ATOM      9  CA  UNL     1      -4.675  12.300  19.514  0.00  0.00    +0.000 C 
ATOM     10  C   UNL     1      -5.103  11.715  18.368  0.00  0.00    +0.000 C 
ATOM     11 CL   UNL     1      -6.779  11.592  17.899  0.00  0.00    +0.000 Cl
ATOM     12  C   UNL     1      -4.230  10.989  17.364  0.00  0.00    +0.000 C 
ATOM     13  S   UNL     1      -2.628  10.468  18.016  0.00  0.00    +0.000 S 
ATOM     14  C   UNL     1      -2.283  12.060  18.812  0.00  0.00    +0.000 C 
BRANCH   9  15
ATOM     15  C   UNL     1      -5.625  12.940  20.489  0.00  0.00    +0.000 C 
ATOM     16  O   UNL     1      -6.107  14.065  20.329  0.00  0.00    +0.000 OA
BRANCH  15  17
ATOM     17  OXT UNL     1      -5.873  12.277  21.630  0.00  0.00    +0.000 OA
ATOM     18  HXT UNL     1      -5.318  11.496  21.851  0.00  0.00    +0.000 HD
ENDBRANCH  15  17
ENDBRANCH   9  15
ENDBRANCH   3   5
BRANCH   1  19
ATOM     19  CA  UNL     1       0.885   9.126  21.399  0.00  0.00    +0.000 C 
BRANCH  19  20
ATOM     20  C   UNL     1       1.472   8.522  20.124  0.00  0.00    +0.000 A 
ATOM     21  C   UNL     1       2.066   7.250  20.088  0.00  0.00    +0.000 A 
ATOM     22  C   UNL     1       2.722   6.803  18.941  0.00  0.00    +0.000 A 
ATOM     23  C   UNL     1       2.777   7.611  17.807  0.00  0.00    +0.000 A 
ATOM     24  C   UNL     1       2.151   8.852  17.805  0.00  0.00    +0.000 A 
ATOM     25  C   UNL     1       1.491   9.300  18.950  0.00  0.00    +0.000 A 
ENDBRANCH  19  20
BRANCH  19  26
ATOM     26  N   UNL     1       1.841   9.137  22.525  0.00  0.00    +0.000 NA
ATOM     27  H1  UNL     1       2.168   8.186  22.695  0.00  0.00    +0.000 HD
ATOM     28  H2  UNL     1       1.369   9.430  23.379  0.00  0.00    +0.000 HD
ENDBRANCH  19  26
ENDBRANCH   1  19
TORSDOF 6
ENDMDL
MODEL 3
REMARK VINA RESULT:      -6.1      4.303      8.158
REMARK  Name = 
REMARK  6 active torsions:
REMARK  status: ('A' for Active; 'I' for Inactive)
REMARK    1  A    between atoms: N_1  and  CA_2
REMARK    2  A    between atoms: CA_2  and  C_3
REMARK    3  A    between atoms: CA_2  and  C_19
REMARK    4  A    between atoms: N_5  and  CA_6
REMARK    5  A    between atoms: CA_10  and  C_11
REMARK    6  A    between atoms: C_11  and  OXT_13
REMARK                            x       y       z     vdW  Elec       q    Type
REMARK                         _______ _______ _______ _____ _____    ______ ____
ROOT
ATOM      1  C   UNL     1       1.001   8.155  21.134  0.00  0.00    +0.000 C 
ATOM      2  O   UNL     1      -0.120   7.666  21.277  0.00  0.00    +0.000 OA
ATOM      3  N   UNL     1       1.930   7.571  20.298  0.00  0.00    +0.000 N 
ATOM      4  H   UNL     1       2.711   8.147  20.002  0.00  0.00    +0.000 HD
ENDROOT
BRANCH   3   5
ATOM      5  CA  UNL     1       1.602   6.326  19.558  0.00  0.00    +0.000 C 
ATOM      6  C   UNL     1       2.364   5.092  20.066  0.00  0.00    +0.000 C 
ATOM      7  O   UNL     1       2.477   4.496  21.112  0.00  0.00    +0.000 OA
ATOM      8  N   UNL     1       3.081   5.023  18.931  0.00  0.00    +0.000 N 
ATOM      9  CA  UNL     1       4.179   4.358  18.462  0.00  0.00    +0.000 C 
ATOM     10  C   UNL     1       4.876   4.901  17.432  0.00  0.00    +0.000 C 
ATOM     11 CL   UNL     1       6.311   4.191  16.740  0.00  0.00    +0.000 Cl
ATOM     12  C   UNL     1       4.597   6.243  16.785  0.00  0.00    +0.000 C 
ATOM     13  S   UNL     1       3.598   7.360  17.793  0.00  0.00    +0.000 S 
ATOM     14  C   UNL     1       2.383   6.089  18.235  0.00  0.00    +0.000 C 
BRANCH   9  15
ATOM     15  C   UNL     1       4.569   3.049  19.090  0.00  0.00    +0.000 C 
ATOM     16  O   UNL     1       5.229   2.964  20.130  0.00  0.00    +0.000 OA
BRANCH  15  17
ATOM     17  OXT UNL     1       4.256   1.929  18.419  0.00  0.00    +0.000 OA
ATOM     18  HXT UNL     1       4.362   1.063  18.872  0.00  0.00    +0.000 HD
ENDBRANCH  15  17
ENDBRANCH   9  15
ENDBRANCH   3   5
BRANCH   1  19
ATOM     19  CA  UNL     1       1.456   9.482  21.813  0.00  0.00    +0.000 C 
BRANCH  19  20
ATOM     20  C   UNL     1       0.309  10.491  21.862  0.00  0.00    +0.000 A 
ATOM     21  C   UNL     1       0.152  11.511  20.910  0.00  0.00    +0.000 A 
ATOM     22  C   UNL     1      -0.819  12.499  21.079  0.00  0.00    +0.000 A 
ATOM     23  C   UNL     1      -1.658  12.471  22.190  0.00  0.00    +0.000 A 
ATOM     24  C   UNL     1      -1.553  11.441  23.118  0.00  0.00    +0.000 A 
ATOM     25  C   UNL     1      -0.586  10.449  22.949  0.00  0.00    +0.000 A 
ENDBRANCH  19  20
BRANCH  19  26
ATOM     26  N   UNL     1       2.009   9.174  23.148  0.00  0.00    +0.000 NA
ATOM     27  H1  UNL     1       2.996   8.938  23.054  0.00  0.00    +0.000 HD
ATOM     28  H2  UNL     1       1.556   8.344  23.529  0.00  0.00    +0.000 HD
ENDBRANCH  19  26
ENDBRANCH   1  19
TORSDOF 6
ENDMDL
MODEL 4
REMARK VINA RESULT:      -6.0      4.278      8.175
REMARK  Name = 
REMARK  6 active torsions:
REMARK  status: ('A' for Active; 'I' for Inactive)
REMARK    1  A    between atoms: N_1  and  CA_2
REMARK    2  A    between atoms: CA_2  and  C_3
REMARK    3  A    between atoms: CA_2  and  C_19
REMARK    4  A    between atoms: N_5  and  CA_6
REMARK    5  A    between atoms: CA_10  and  C_11
REMARK    6  A    between atoms: C_11  and  OXT_13
REMARK                            x       y       z     vdW  Elec       q    Type
REMARK                         _______ _______ _______ _____ _____    ______ ____
ROOT
ATOM      1  C   UNL     1       0.842   8.172  21.194  0.00  0.00    +0.000 C 
ATOM      2  O   UNL     1      -0.353   7.932  21.022  0.00  0.00    +0.000 OA
ATOM      3  N   UNL     1       1.813   7.294  20.757  0.00  0.00    +0.000 N 
ATOM      4  H   UNL     1       2.757   7.656  20.667  0.00  0.00    +0.000 HD
ENDROOT
BRANCH   3   5
ATOM      5  CA  UNL     1       1.435   6.028  20.080  0.00  0.00    +0.000 C 
ATOM      6  C   UNL     1       2.267   4.818  20.535  0.00  0.00    +0.000 C 
ATOM      7  O   UNL     1       2.494   4.247  21.576  0.00  0.00    +0.000 OA
ATOM      8  N   UNL     1       2.868   4.734  19.335  0.00  0.00    +0.000 N 
ATOM      9  CA  UNL     1       3.925   4.077  18.773  0.00  0.00    +0.000 C 
ATOM     10  C   UNL     1       4.506   4.608  17.667  0.00  0.00    +0.000 C 
ATOM     11 CL   UNL     1       5.877   3.904  16.849  0.00  0.00    +0.000 Cl
ATOM     12  C   UNL     1       4.140   5.930  17.023  0.00  0.00    +0.000 C 
ATOM     13  S   UNL     1       3.226   7.053  18.102  0.00  0.00    +0.000 S 
ATOM     14  C   UNL     1       2.084   5.774  18.691  0.00  0.00    +0.000 C 
BRANCH   9  15
ATOM     15  C   UNL     1       4.400   2.789  19.385  0.00  0.00    +0.000 C 
ATOM     16  O   UNL     1       5.178   2.737  20.342  0.00  0.00    +0.000 OA
BRANCH  15  17
ATOM     17  OXT UNL     1       4.021   1.648  18.786  0.00  0.00    +0.000 OA
ATOM     18  HXT UNL     1       3.479   1.005  19.295  0.00  0.00    +0.000 HD
ENDBRANCH  15  17
ENDBRANCH   9  15
ENDBRANCH   3   5
BRANCH   1  19
ATOM     19  CA  UNL     1       1.374   9.484  21.845  0.00  0.00    +0.000 C 
BRANCH  19  20
ATOM     20  C   UNL     1       0.242  10.489  22.050  0.00  0.00    +0.000 A 
ATOM     21  C   UNL     1      -0.649  10.423  23.133  0.00  0.00    +0.000 A 
ATOM     22  C   UNL     1      -1.757  11.269  23.196  0.00  0.00    +0.000 A 
ATOM     23  C   UNL     1      -1.979  12.206  22.191  0.00  0.00    +0.000 A 
ATOM     24  C   UNL     1      -1.081  12.323  21.136  0.00  0.00    +0.000 A 
ATOM     25  C   UNL     1       0.030  11.481  21.072  0.00  0.00    +0.000 A 
ENDBRANCH  19  20
BRANCH  19  26
ATOM     26  N   UNL     1       2.079   9.146  23.099  0.00  0.00    +0.000 NA
ATOM     27  H1  UNL     1       1.394   8.890  23.809  0.00  0.00    +0.000 HD
ATOM     28  H2  UNL     1       2.563   9.968  23.458  0.00  0.00    +0.000 HD
ENDBRANCH  19  26
ENDBRANCH   1  19
TORSDOF 6
ENDMDL
MODEL 5
REMARK VINA RESULT:      -6.0      4.154      7.553
REMARK  Name = 
REMARK  6 active torsions:
REMARK  status: ('A' for Active; 'I' for Inactive)
REMARK    1  A    between atoms: N_1  and  CA_2
REMARK    2  A    between atoms: CA_2  and  C_3
REMARK    3  A    between atoms: CA_2  and  C_19
REMARK    4  A    between atoms: N_5  and  CA_6
REMARK    5  A    between atoms: CA_10  and  C_11
REMARK    6  A    between atoms: C_11  and  OXT_13
REMARK                            x       y       z     vdW  Elec       q    Type
REMARK                         _______ _______ _______ _____ _____    ______ ____
ROOT
ATOM      1  C   UNL     1      -3.477  13.564  21.261  0.00  0.00    +0.000 C 
ATOM      2  O   UNL     1      -3.172  14.652  20.772  0.00  0.00    +0.000 OA
ATOM      3  N   UNL     1      -2.529  12.581  21.455  0.00  0.00    +0.000 N 
ATOM      4  H   UNL     1      -2.762  11.835  22.102  0.00  0.00    +0.000 HD
ENDROOT
BRANCH   3   5
ATOM      5  CA  UNL     1      -1.115  12.808  21.062  0.00  0.00    +0.000 C 
ATOM      6  C   UNL     1      -0.763  12.232  19.681  0.00  0.00    +0.000 C 
ATOM      7  O   UNL     1      -1.150  12.372  18.544  0.00  0.00    +0.000 OA
ATOM      8  N   UNL     1       0.029  11.297  20.233  0.00  0.00    +0.000 N 
ATOM      9  CA  UNL     1       0.681  10.160  19.845  0.00  0.00    +0.000 C 
ATOM     10  C   UNL     1       0.991   9.236  20.789  0.00  0.00    +0.000 C 
ATOM     11 CL   UNL     1       1.794   7.725  20.451  0.00  0.00    +0.000 Cl
ATOM     12  C   UNL     1       0.609   9.304  22.254  0.00  0.00    +0.000 C 
ATOM     13  S   UNL     1      -0.751  10.436  22.614  0.00  0.00    +0.000 S 
ATOM     14  C   UNL     1      -0.081  11.779  21.598  0.00  0.00    +0.000 C 
BRANCH   9  15
ATOM     15  C   UNL     1       1.041   9.977  18.397  0.00  0.00    +0.000 C 
ATOM     16  O   UNL     1       2.186  10.117  17.958  0.00  0.00    +0.000 OA
BRANCH  15  17
ATOM     17  OXT UNL     1       0.035   9.742  17.539  0.00  0.00    +0.000 OA
ATOM     18  HXT UNL     1       0.145   9.034  16.865  0.00  0.00    +0.000 HD
ENDBRANCH  15  17
ENDBRANCH   9  15
ENDBRANCH   3   5
BRANCH   1  19
ATOM     19  CA  UNL     1      -4.911  13.214  21.760  0.00  0.00    +0.000 C 
BRANCH  19  20
ATOM     20  C   UNL     1      -5.678  12.421  20.703  0.00  0.00    +0.000 A 
ATOM     21  C   UNL     1      -6.846  11.698  20.992  0.00  0.00    +0.000 A 
ATOM     22  C   UNL     1      -7.426  10.868  20.032  0.00  0.00    +0.000 A 
ATOM     23  C   UNL     1      -6.859  10.763  18.764  0.00  0.00    +0.000 A 
ATOM     24  C   UNL     1      -5.731  11.510  18.441  0.00  0.00    +0.000 A 
ATOM     25  C   UNL     1      -5.152  12.344  19.398  0.00  0.00    +0.000 A 
ENDBRANCH  19  20
BRANCH  19  26
ATOM     26  N   UNL     1      -4.811  12.506  23.052  0.00  0.00    +0.000 NA
ATOM     27  H1  UNL     1      -5.549  11.805  23.108  0.00  0.00    +0.000 HD
ATOM     28  H2  UNL     1      -4.982  13.155  23.819  0.00  0.00    +0.000 HD
ENDBRANCH  19  26
ENDBRANCH   1  19
TORSDOF 6
ENDMDL
MODEL 6
REMARK VINA RESULT:      -5.9      6.100      8.318
REMARK  Name = 
REMARK  6 active torsions:
REMARK  status: ('A' for Active; 'I' for Inactive)
REMARK    1  A    between atoms: N_1  and  CA_2
REMARK    2  A    between atoms: CA_2  and  C_3
REMARK    3  A    between atoms: CA_2  and  C_19
REMARK    4  A    between atoms: N_5  and  CA_6
REMARK    5  A    between atoms: CA_10  and  C_11
REMARK    6  A    between atoms: C_11  and  OXT_13
REMARK                            x       y       z     vdW  Elec       q    Type
REMARK                         _______ _______ _______ _____ _____    ______ ____
ROOT
ATOM      1  C   UNL     1       6.636   4.482  15.803  0.00  0.00    +0.000 C 
ATOM      2  O   UNL     1       7.691   4.286  16.406  0.00  0.00    +0.000 OA
ATOM      3  N   UNL     1       5.419   4.204  16.390  0.00  0.00    +0.000 N 
ATOM      4  H   UNL     1       4.597   4.634  15.978  0.00  0.00    +0.000 HD
ENDROOT
BRANCH   3   5
ATOM      5  CA  UNL     1       5.354   3.645  17.764  0.00  0.00    +0.000 C 
ATOM      6  C   UNL     1       4.089   2.813  18.029  0.00  0.00    +0.000 C 
ATOM      7  O   UNL     1       3.566   1.831  17.556  0.00  0.00    +0.000 OA
ATOM      8  N   UNL     1       3.618   3.737  18.885  0.00  0.00    +0.000 N 
ATOM      9  CA  UNL     1       2.449   4.015  19.536  0.00  0.00    +0.000 C 
ATOM     10  C   UNL     1       2.219   5.290  19.939  0.00  0.00    +0.000 C 
ATOM     11 CL   UNL     1       0.768   5.810  20.756  0.00  0.00    +0.000 Cl
ATOM     12  C   UNL     1       3.115   6.481  19.665  0.00  0.00    +0.000 C 
ATOM     13  S   UNL     1       4.277   6.237  18.304  0.00  0.00    +0.000 S 
ATOM     14  C   UNL     1       4.792   4.591  18.862  0.00  0.00    +0.000 C 
BRANCH   9  15
ATOM     15  C   UNL     1       1.469   2.905  19.794  0.00  0.00    +0.000 C 
ATOM     16  O   UNL     1       1.363   2.330  20.881  0.00  0.00    +0.000 OA
BRANCH  15  17
ATOM     17  OXT UNL     1       0.748   2.468  18.749  0.00  0.00    +0.000 OA
ATOM     18  HXT UNL     1       0.128   1.717  18.885  0.00  0.00    +0.000 HD
ENDBRANCH  15  17
ENDBRANCH   9  15
ENDBRANCH   3   5
BRANCH   1  19
ATOM     19  CA  UNL     1       6.560   5.107  14.377  0.00  0.00    +0.000 C 
BRANCH  19  20
ATOM     20  C   UNL     1       6.234   4.043  13.331  0.00  0.00    +0.000 A 
ATOM     21  C   UNL     1       7.223   3.320  12.646  0.00  0.00    +0.000 A 
ATOM     22  C   UNL     1       6.883   2.469  11.593  0.00  0.00    +0.000 A 
ATOM     23  C   UNL     1       5.549   2.312  11.224  0.00  0.00    +0.000 A 
ATOM     24  C   UNL     1       4.549   2.980  11.923  0.00  0.00    +0.000 A 
ATOM     25  C   UNL     1       4.886   3.829  12.978  0.00  0.00    +0.000 A 
ENDBRANCH  19  20
BRANCH  19  26
ATOM     26  N   UNL     1       5.588   6.220  14.391  0.00  0.00    +0.000 NA
ATOM     27  H1  UNL     1       5.982   7.015  13.890  0.00  0.00    +0.000 HD
ATOM     28  H2  UNL     1       5.436   6.536  15.347  0.00  0.00    +0.000 HD
ENDBRANCH  19  26
ENDBRANCH   1  19
TORSDOF 6
ENDMDL
MODEL 7
REMARK VINA RESULT:      -5.9      5.180      7.299
REMARK  Name = 
REMARK  6 active torsions:
REMARK  status: ('A' for Active; 'I' for Inactive)
REMARK    1  A    between atoms: N_1  and  CA_2
REMARK    2  A    between atoms: CA_2  and  C_3
REMARK    3  A    between atoms: CA_2  and  C_19
REMARK    4  A    between atoms: N_5  and  CA_6
REMARK    5  A    between atoms: CA_10  and  C_11
REMARK    6  A    between atoms: C_11  and  OXT_13
REMARK                            x       y       z     vdW  Elec       q    Type
REMARK                         _______ _______ _______ _____ _____    ______ ____
ROOT
ATOM      1  C   UNL     1      -0.757  11.608  22.733  0.00  0.00    +0.000 C 
ATOM      2  O   UNL     1      -0.067  12.627  22.745  0.00  0.00    +0.000 OA
ATOM      3  N   UNL     1      -2.095  11.652  23.067  0.00  0.00    +0.000 N 
ATOM      4  H   UNL     1      -2.670  10.868  22.777  0.00  0.00    +0.000 HD
ENDROOT
BRANCH   3   5
ATOM      5  CA  UNL     1      -2.732  12.933  23.464  0.00  0.00    +0.000 C 
ATOM      6  C   UNL     1      -4.068  12.751  24.202  0.00  0.00    +0.000 C 
ATOM      7  O   UNL     1      -4.452  12.197  25.205  0.00  0.00    +0.000 OA
ATOM      8  N   UNL     1      -4.751  13.272  23.167  0.00  0.00    +0.000 N 
ATOM      9  CA  UNL     1      -6.051  13.386  22.763  0.00  0.00    +0.000 C 
ATOM     10  C   UNL     1      -6.308  13.557  21.442  0.00  0.00    +0.000 C 
ATOM     11 CL   UNL     1      -7.911  13.692  20.766  0.00  0.00    +0.000 Cl
ATOM     12  C   UNL     1      -5.276  13.555  20.332  0.00  0.00    +0.000 C 
ATOM     13  S   UNL     1      -3.705  12.785  20.781  0.00  0.00    +0.000 S 
ATOM     14  C   UNL     1      -3.589  13.638  22.376  0.00  0.00    +0.000 C 
BRANCH   9  15
ATOM     15  C   UNL     1      -7.148  13.333  23.790  0.00  0.00    +0.000 C 
ATOM     16  O   UNL     1      -7.909  12.371  23.923  0.00  0.00    +0.000 OA
BRANCH  15  17
ATOM     17  OXT UNL     1      -7.352  14.437  24.528  0.00  0.00    +0.000 OA
ATOM     18  HXT UNL     1      -6.812  14.570  25.338  0.00  0.00    +0.000 HD
ENDBRANCH  15  17
ENDBRANCH   9  15
ENDBRANCH   3   5
BRANCH   1  19
ATOM     19  CA  UNL     1      -0.227  10.211  22.291  0.00  0.00    +0.000 C 
BRANCH  19  20
ATOM     20  C   UNL     1       0.475  10.298  20.937  0.00  0.00    +0.000 A 
ATOM     21  C   UNL     1       0.608  11.501  20.224  0.00  0.00    +0.000 A 
ATOM     22  C   UNL     1       1.121  11.506  18.926  0.00  0.00    +0.000 A 
ATOM     23  C   UNL     1       1.525  10.314  18.329  0.00  0.00    +0.000 A 
ATOM     24  C   UNL     1       1.450   9.120  19.036  0.00  0.00    +0.000 A 
ATOM     25  C   UNL     1       0.941   9.112  20.336  0.00  0.00    +0.000 A 
ENDBRANCH  19  20
BRANCH  19  26
ATOM     26  N   UNL     1       0.641   9.667  23.356  0.00  0.00    +0.000 NA
ATOM     27  H1  UNL     1       0.624   8.649  23.313  0.00  0.00    +0.000 HD
ATOM     28  H2  UNL     1       0.267   9.917  24.270  0.00  0.00    +0.000 HD
ENDBRANCH  19  26
ENDBRANCH   1  19
TORSDOF 6
ENDMDL
MODEL 8
REMARK VINA RESULT:      -5.8      3.910      5.647
REMARK  Name = 
REMARK  6 active torsions:
REMARK  status: ('A' for Active; 'I' for Inactive)
REMARK    1  A    between atoms: N_1  and  CA_2
REMARK    2  A    between atoms: CA_2  and  C_3
REMARK    3  A    between atoms: CA_2  and  C_19
REMARK    4  A    between atoms: N_5  and  CA_6
REMARK    5  A    between atoms: CA_10  and  C_11
REMARK    6  A    between atoms: C_11  and  OXT_13
REMARK                            x       y       z     vdW  Elec       q    Type
REMARK                         _______ _______ _______ _____ _____    ______ ____
ROOT
ATOM      1  C   UNL     1       0.903  11.999  20.375  0.00  0.00    +0.000 C 
ATOM      2  O   UNL     1       1.899  12.395  20.980  0.00  0.00    +0.000 OA
ATOM      3  N   UNL     1      -0.354  12.096  20.934  0.00  0.00    +0.000 N 
ATOM      4  H   UNL     1      -1.147  12.022  20.305  0.00  0.00    +0.000 HD
ENDROOT
BRANCH   3   5
ATOM      5  CA  UNL     1      -0.534  12.670  22.292  0.00  0.00    +0.000 C 
ATOM      6  C   UNL     1      -1.684  12.026  23.083  0.00  0.00    +0.000 C 
ATOM      7  O   UNL     1      -1.978  10.917  23.463  0.00  0.00    +0.000 OA
ATOM      8  N   UNL     1      -2.409  13.156  23.018  0.00  0.00    +0.000 N 
ATOM      9  CA  UNL     1      -3.689  13.558  23.279  0.00  0.00    +0.000 C 
ATOM     10  C   UNL     1      -4.165  14.659  22.645  0.00  0.00    +0.000 C 
ATOM     11 CL   UNL     1      -5.782  15.282  22.850  0.00  0.00    +0.000 Cl
ATOM     12  C   UNL     1      -3.429  15.462  21.591  0.00  0.00    +0.000 C 
ATOM     13  S   UNL     1      -2.057  14.583  20.813  0.00  0.00    +0.000 S 
ATOM     14  C   UNL     1      -1.387  13.967  22.380  0.00  0.00    +0.000 C 
BRANCH   9  15
ATOM     15  C   UNL     1      -4.517  12.780  24.263  0.00  0.00    +0.000 C 
ATOM     16  O   UNL     1      -5.478  12.077  23.937  0.00  0.00    +0.000 OA
BRANCH  15  17
ATOM     17  OXT UNL     1      -4.239  12.946  25.567  0.00  0.00    +0.000 OA
ATOM     18  HXT UNL     1      -4.980  12.930  26.212  0.00  0.00    +0.000 HD
ENDBRANCH  15  17
ENDBRANCH   9  15
ENDBRANCH   3   5
BRANCH   1  19
ATOM     19  CA  UNL     1       0.946  11.421  18.928  0.00  0.00    +0.000 C 
BRANCH  19  20
ATOM     20  C   UNL     1       1.351   9.948  18.941  0.00  0.00    +0.000 A 
ATOM     21  C   UNL     1       1.191   9.124  20.066  0.00  0.00    +0.000 A 
ATOM     22  C   UNL     1       1.713   7.830  20.081  0.00  0.00    +0.000 A 
ATOM     23  C   UNL     1       2.385   7.334  18.967  0.00  0.00    +0.000 A 
ATOM     24  C   UNL     1       2.510   8.116  17.824  0.00  0.00    +0.000 A 
ATOM     25  C   UNL     1       1.985   9.409  17.804  0.00  0.00    +0.000 A 
ENDBRANCH  19  20
BRANCH  19  26
ATOM     26  N   UNL     1      -0.361  11.654  18.279  0.00  0.00    +0.000 NA
ATOM     27  H1  UNL     1      -1.076  11.762  18.996  0.00  0.00    +0.000 HD
ATOM     28  H2  UNL     1      -0.629  10.835  17.734  0.00  0.00    +0.000 HD
ENDBRANCH  19  26
ENDBRANCH   1  19
TORSDOF 6
ENDMDL
MODEL 9
REMARK VINA RESULT:      -5.8      0.908      1.219
REMARK  Name = 
REMARK  6 active torsions:
REMARK  status: ('A' for Active; 'I' for Inactive)
REMARK    1  A    between atoms: N_1  and  CA_2
REMARK    2  A    between atoms: CA_2  and  C_3
REMARK    3  A    between atoms: CA_2  and  C_19
REMARK    4  A    between atoms: N_5  and  CA_6
REMARK    5  A    between atoms: CA_10  and  C_11
REMARK    6  A    between atoms: C_11  and  OXT_13
REMARK                            x       y       z     vdW  Elec       q    Type
REMARK                         _______ _______ _______ _____ _____    ______ ____
ROOT
ATOM      1  C   UNL     1       2.492   7.078  18.580  0.00  0.00    +0.000 C 
ATOM      2  O   UNL     1       1.970   6.770  17.508  0.00  0.00    +0.000 OA
ATOM      3  N   UNL     1       2.136   8.238  19.237  0.00  0.00    +0.000 N 
ATOM      4  H   UNL     1       2.375   8.303  20.221  0.00  0.00    +0.000 HD
ENDROOT
BRANCH   3   5
ATOM      5  CA  UNL     1       1.121   9.152  18.657  0.00  0.00    +0.000 C 
ATOM      6  C   UNL     1       1.626  10.593  18.475  0.00  0.00    +0.000 C 
ATOM      7  O   UNL     1       2.526  11.142  17.884  0.00  0.00    +0.000 OA
ATOM      8  N   UNL     1       0.800  11.042  19.436  0.00  0.00    +0.000 N 
ATOM      9  CA  UNL     1       0.613  12.184  20.162  0.00  0.00    +0.000 C 
ATOM     10  C   UNL     1      -0.013  12.095  21.362  0.00  0.00    +0.000 C 
ATOM     11 CL   UNL     1      -0.303  13.454  22.417  0.00  0.00    +0.000 Cl
ATOM     12  C   UNL     1      -0.467  10.813  22.032  0.00  0.00    +0.000 C 
ATOM     13  S   UNL     1       0.333   9.323  21.399  0.00  0.00    +0.000 S 
ATOM     14  C   UNL     1       0.113   9.782  19.659  0.00  0.00    +0.000 C 
BRANCH   9  15
ATOM     15  C   UNL     1       1.091  13.496  19.605  0.00  0.00    +0.000 C 
ATOM     16  O   UNL     1       0.351  14.304  19.037  0.00  0.00    +0.000 OA
BRANCH  15  17
ATOM     17  OXT UNL     1       2.412  13.738  19.653  0.00  0.00    +0.000 OA
ATOM     18  HXT UNL     1       2.743  14.609  19.339  0.00  0.00    +0.000 HD
ENDBRANCH  15  17
ENDBRANCH   9  15
ENDBRANCH   3   5
BRANCH   1  19
ATOM     19  CA  UNL     1       3.534   6.186  19.320  0.00  0.00    +0.000 C 
BRANCH  19  20
ATOM     20  C   UNL     1       2.918   4.845  19.719  0.00  0.00    +0.000 A 
ATOM     21  C   UNL     1       3.410   3.614  19.257  0.00  0.00    +0.000 A 
ATOM     22  C   UNL     1       2.725   2.428  19.525  0.00  0.00    +0.000 A 
ATOM     23  C   UNL     1       1.551   2.453  20.273  0.00  0.00    +0.000 A 
ATOM     24  C   UNL     1       1.074   3.655  20.782  0.00  0.00    +0.000 A 
ATOM     25  C   UNL     1       1.759   4.842  20.520  0.00  0.00    +0.000 A 
ENDBRANCH  19  20
BRANCH  19  26
ATOM     26  N   UNL     1       4.732   6.039  18.469  0.00  0.00    +0.000 NA
ATOM     27  H1  UNL     1       4.791   6.834  17.834  0.00  0.00    +0.000 HD
ATOM     28  H2  UNL     1       4.640   5.214  17.878  0.00  0.00    +0.000 HD
ENDBRANCH  19  26
ENDBRANCH   1  19
TORSDOF 6
ENDMDL
