MODEL 1
REMARK VINA RESULT:      -9.1      0.000      0.000
REMARK  Name = 
REMARK  6 active torsions:
REMARK  status: ('A' for Active; 'I' for Inactive)
REMARK    1  A    between atoms: C_1  and  O_2
REMARK    2  A    between atoms: O_2  and  C_3
REMARK    3  A    between atoms: C_3  and  C_5
REMARK    4  A    between atoms: C_8  and  N_9
REMARK    5  A    between atoms: C_10  and  C_12
REMARK    6  A    between atoms: C_12  and  N_13
REMARK                            x       y       z     vdW  Elec       q    Type
REMARK                         _______ _______ _______ _____ _____    ______ ____
ROOT
ATOM      1  N   UNL     1       6.788   5.714  17.672  0.00  0.00    +0.000 N 
ATOM      2  C   UNL     1       5.843   4.941  18.341  0.00  0.00    +0.000 C 
ATOM      3  O   UNL     1       5.938   4.551  19.490  0.00  0.00    +0.000 OA
ATOM      4  C   UNL     1       4.690   4.702  17.320  0.00  0.00    +0.000 C 
ATOM      5  O   UNL     1       3.802   3.647  17.609  0.00  0.00    +0.000 OA
ATOM      6  C   UNL     1       3.109   3.936  18.828  0.00  0.00    +0.000 C 
ATOM      7  C   UNL     1       2.463   5.324  18.838  0.00  0.00    +0.000 C 
ATOM      8  C   UNL     1       3.361   6.394  18.249  0.00  0.00    +0.000 C 
ATOM      9  O   UNL     1       3.941   5.898  17.059  0.00  0.00    +0.000 OA
ATOM     10  C   UNL     1       5.535   4.579  16.087  0.00  0.00    +0.000 A 
ATOM     11  C   UNL     1       5.226   3.910  14.904  0.00  0.00    +0.000 A 
ATOM     12  C   UNL     1       6.113   4.068  13.848  0.00  0.00    +0.000 A 
ATOM     13 BR   UNL     1       5.800   3.112  12.244  0.00  0.00    +0.000 Br
ATOM     14  C   UNL     1       7.227   4.922  13.973  0.00  0.00    +0.000 A 
ATOM     15  C   UNL     1       7.540   5.575  15.197  0.00  0.00    +0.000 A 
ATOM     16  C   UNL     1       6.707   5.356  16.281  0.00  0.00    +0.000 A 
ENDROOT
BRANCH   1  17
ATOM     17  C   UNL     1       7.827   6.300  18.501  0.00  0.00    +0.000 C 
BRANCH  17  19
ATOM     18  N   UNL     1       8.889   8.596  19.067  0.00  0.00    +0.000 N 
ATOM     19  C   UNL     1       8.030   7.874  18.202  0.00  0.00    +0.000 C 
ATOM     20  O   UNL     1       7.388   8.396  17.292  0.00  0.00    +0.000 OA
ATOM     21  H   UNL     1       9.161   8.098  19.911  0.00  0.00    +0.000 HD
BRANCH  18  25
ATOM     22  C   UNL     1       9.808  12.844  19.162  0.00  0.00    +0.000 A 
ATOM     23  C   UNL     1       9.706  12.147  17.947  0.00  0.00    +0.000 A 
ATOM     24  C   UNL     1       9.417  10.756  17.901  0.00  0.00    +0.000 A 
ATOM     25  C   UNL     1       9.205  10.005  19.055  0.00  0.00    +0.000 A 
ATOM     26  C   UNL     1       9.317  10.719  20.280  0.00  0.00    +0.000 A 
ATOM     27  C   UNL     1       9.615  12.108  20.331  0.00  0.00    +0.000 A 
BRANCH  22  28
ATOM     28  C   UNL     1      10.100  14.318  19.102  0.00  0.00    +0.000 C 
ATOM     29  O   UNL     1      10.539  14.952  20.068  0.00  0.00    +0.000 OA
BRANCH  28  31
ATOM     30  C   UNL     1      10.870  15.733  17.371  0.00  0.00    +0.000 C 
ATOM     31  O   UNL     1       9.841  14.872  17.882  0.00  0.00    +0.000 OA
ENDBRANCH  28  31
ENDBRANCH  22  28
ENDBRANCH  18  25
ENDBRANCH  17  19
ENDBRANCH   1  17
TORSDOF 5
ENDMDL
MODEL 2
REMARK VINA RESULT:      -8.9      0.469      1.052
REMARK  Name = 
REMARK  6 active torsions:
REMARK  status: ('A' for Active; 'I' for Inactive)
REMARK    1  A    between atoms: C_1  and  O_2
REMARK    2  A    between atoms: O_2  and  C_3
REMARK    3  A    between atoms: C_3  and  C_5
REMARK    4  A    between atoms: C_8  and  N_9
REMARK    5  A    between atoms: C_10  and  C_12
REMARK    6  A    between atoms: C_12  and  N_13
REMARK                            x       y       z     vdW  Elec       q    Type
REMARK                         _______ _______ _______ _____ _____    ______ ____
ROOT
ATOM      1  N   UNL     1       6.791   5.722  17.670  0.00  0.00    +0.000 N 
ATOM      2  C   UNL     1       5.826   4.977  18.343  0.00  0.00    +0.000 C 
ATOM      3  O   UNL     1       5.912   4.589  19.493  0.00  0.00    +0.000 OA
ATOM      4  C   UNL     1       4.666   4.764  17.324  0.00  0.00    +0.000 C 
ATOM      5  O   UNL     1       3.750   3.735  17.619  0.00  0.00    +0.000 OA
ATOM      6  C   UNL     1       3.067   4.046  18.838  0.00  0.00    +0.000 C 
ATOM      7  C   UNL     1       2.458   5.451  18.842  0.00  0.00    +0.000 C 
ATOM      8  C   UNL     1       3.384   6.495  18.248  0.00  0.00    +0.000 C 
ATOM      9  O   UNL     1       3.948   5.979  17.059  0.00  0.00    +0.000 OA
ATOM     10  C   UNL     1       5.506   4.614  16.091  0.00  0.00    +0.000 A 
ATOM     11  C   UNL     1       5.178   3.948  14.911  0.00  0.00    +0.000 A 
ATOM     12  C   UNL     1       6.067   4.078  13.853  0.00  0.00    +0.000 A 
ATOM     13 BR   UNL     1       5.727   3.125  12.253  0.00  0.00    +0.000 Br
ATOM     14  C   UNL     1       7.203   4.904  13.973  0.00  0.00    +0.000 A 
ATOM     15  C   UNL     1       7.536   5.553  15.194  0.00  0.00    +0.000 A 
ATOM     16  C   UNL     1       6.698   5.361  16.280  0.00  0.00    +0.000 A 
ENDROOT
BRANCH   1  17
ATOM     17  C   UNL     1       7.845   6.284  18.494  0.00  0.00    +0.000 C 
BRANCH  17  19
ATOM     18  N   UNL     1       8.896   8.570  19.117  0.00  0.00    +0.000 N 
ATOM     19  C   UNL     1       8.061   7.861  18.220  0.00  0.00    +0.000 C 
ATOM     20  O   UNL     1       7.446   8.394  17.298  0.00  0.00    +0.000 OA
ATOM     21  H   UNL     1       9.143   8.062  19.962  0.00  0.00    +0.000 HD
BRANCH  18  25
ATOM     22  C   UNL     1       9.895  12.800  19.031  0.00  0.00    +0.000 A 
ATOM     23  C   UNL     1       9.616  12.141  20.239  0.00  0.00    +0.000 A 
ATOM     24  C   UNL     1       9.277  10.762  20.281  0.00  0.00    +0.000 A 
ATOM     25  C   UNL     1       9.215   9.979  19.130  0.00  0.00    +0.000 A 
ATOM     26  C   UNL     1       9.493  10.657  17.912  0.00  0.00    +0.000 A 
ATOM     27  C   UNL     1       9.823  12.039  17.864  0.00  0.00    +0.000 A 
BRANCH  22  28
ATOM     28  C   UNL     1      10.262  14.257  19.095  0.00  0.00    +0.000 C 
ATOM     29  O   UNL     1      11.180  14.686  19.802  0.00  0.00    +0.000 OA
BRANCH  28  31
ATOM     30  C   UNL     1       8.170  15.315  18.785  0.00  0.00    +0.000 C 
ATOM     31  O   UNL     1       9.490  15.046  18.291  0.00  0.00    +0.000 OA
ENDBRANCH  28  31
ENDBRANCH  22  28
ENDBRANCH  18  25
ENDBRANCH  17  19
ENDBRANCH   1  17
TORSDOF 5
ENDMDL
MODEL 3
REMARK VINA RESULT:      -8.2      7.333     11.274
REMARK  Name = 
REMARK  6 active torsions:
REMARK  status: ('A' for Active; 'I' for Inactive)
REMARK    1  A    between atoms: C_1  and  O_2
REMARK    2  A    between atoms: O_2  and  C_3
REMARK    3  A    between atoms: C_3  and  C_5
REMARK    4  A    between atoms: C_8  and  N_9
REMARK    5  A    between atoms: C_10  and  C_12
REMARK    6  A    between atoms: C_12  and  N_13
REMARK                            x       y       z     vdW  Elec       q    Type
REMARK                         _______ _______ _______ _____ _____    ______ ____
ROOT
ATOM      1  N   UNL     1      -0.053  11.028  21.133  0.00  0.00    +0.000 N 
ATOM      2  C   UNL     1      -0.843  11.507  22.174  0.00  0.00    +0.000 C 
ATOM      3  O   UNL     1      -0.785  11.133  23.331  0.00  0.00    +0.000 OA
ATOM      4  C   UNL     1      -1.775  12.583  21.540  0.00  0.00    +0.000 C 
ATOM      5  O   UNL     1      -2.916  12.944  22.284  0.00  0.00    +0.000 OA
ATOM      6  C   UNL     1      -2.505  13.547  23.515  0.00  0.00    +0.000 C 
ATOM      7  C   UNL     1      -1.495  14.682  23.320  0.00  0.00    +0.000 C 
ATOM      8  C   UNL     1      -0.433  14.353  22.290  0.00  0.00    +0.000 C 
ATOM      9  O   UNL     1      -1.058  13.768  21.164  0.00  0.00    +0.000 OA
ATOM     10  C   UNL     1      -1.993  11.908  20.219  0.00  0.00    +0.000 A 
ATOM     11  C   UNL     1      -3.070  12.064  19.349  0.00  0.00    +0.000 A 
ATOM     12  C   UNL     1      -2.969  11.440  18.113  0.00  0.00    +0.000 A 
ATOM     13 BR   UNL     1      -4.436  11.536  16.920  0.00  0.00    +0.000 Br
ATOM     14  C   UNL     1      -1.794  10.747  17.757  0.00  0.00    +0.000 A 
ATOM     15  C   UNL     1      -0.717  10.575  18.669  0.00  0.00    +0.000 A 
ATOM     16  C   UNL     1      -0.845  11.123  19.935  0.00  0.00    +0.000 A 
ENDROOT
BRANCH   1  17
ATOM     17  C   UNL     1       1.085  10.215  21.523  0.00  0.00    +0.000 C 
BRANCH  17  19
ATOM     18  N   UNL     1       1.882   7.969  20.506  0.00  0.00    +0.000 N 
ATOM     19  C   UNL     1       0.855   8.649  21.205  0.00  0.00    +0.000 C 
ATOM     20  O   UNL     1      -0.216   8.129  21.514  0.00  0.00    +0.000 OA
ATOM     21  H   UNL     1       2.597   8.571  20.106  0.00  0.00    +0.000 HD
BRANCH  18  25
ATOM     22  C   UNL     1       1.989   3.881  19.030  0.00  0.00    +0.000 A 
ATOM     23  C   UNL     1       1.589   4.171  20.344  0.00  0.00    +0.000 A 
ATOM     24  C   UNL     1       1.559   5.501  20.843  0.00  0.00    +0.000 A 
ATOM     25  C   UNL     1       1.912   6.596  20.057  0.00  0.00    +0.000 A 
ATOM     26  C   UNL     1       2.323   6.291  18.731  0.00  0.00    +0.000 A 
ATOM     27  C   UNL     1       2.363   4.961  18.229  0.00  0.00    +0.000 A 
BRANCH  22  28
ATOM     28  C   UNL     1       1.968   2.443  18.591  0.00  0.00    +0.000 C 
ATOM     29  O   UNL     1       0.931   1.771  18.550  0.00  0.00    +0.000 OA
BRANCH  28  31
ATOM     30  C   UNL     1       4.161   1.912  19.299  0.00  0.00    +0.000 C 
ATOM     31  O   UNL     1       3.197   1.966  18.237  0.00  0.00    +0.000 OA
ENDBRANCH  28  31
ENDBRANCH  22  28
ENDBRANCH  18  25
ENDBRANCH  17  19
ENDBRANCH   1  17
TORSDOF 5
ENDMDL
MODEL 4
REMARK VINA RESULT:      -8.2      0.889      1.344
REMARK  Name = 
REMARK  6 active torsions:
REMARK  status: ('A' for Active; 'I' for Inactive)
REMARK    1  A    between atoms: C_1  and  O_2
REMARK    2  A    between atoms: O_2  and  C_3
REMARK    3  A    between atoms: C_3  and  C_5
REMARK    4  A    between atoms: C_8  and  N_9
REMARK    5  A    between atoms: C_10  and  C_12
REMARK    6  A    between atoms: C_12  and  N_13
REMARK                            x       y       z     vdW  Elec       q    Type
REMARK                         _______ _______ _______ _____ _____    ______ ____
ROOT
ATOM      1  N   UNL     1       6.791   6.171  17.369  0.00  0.00    +0.000 N 
ATOM      2  C   UNL     1       5.675   5.720  18.068  0.00  0.00    +0.000 C 
ATOM      3  O   UNL     1       5.637   5.494  19.263  0.00  0.00    +0.000 OA
ATOM      4  C   UNL     1       4.541   5.574  17.009  0.00  0.00    +0.000 C 
ATOM      5  O   UNL     1       3.435   4.783  17.376  0.00  0.00    +0.000 OA
ATOM      6  C   UNL     1       2.771   5.387  18.491  0.00  0.00    +0.000 C 
ATOM      7  C   UNL     1       2.440   6.865  18.263  0.00  0.00    +0.000 C 
ATOM      8  C   UNL     1       3.571   7.625  17.600  0.00  0.00    +0.000 C 
ATOM      9  O   UNL     1       4.078   6.848  16.533  0.00  0.00    +0.000 OA
ATOM     10  C   UNL     1       5.389   5.097  15.869  0.00  0.00    +0.000 A 
ATOM     11  C   UNL     1       4.992   4.336  14.770  0.00  0.00    +0.000 A 
ATOM     12  C   UNL     1       5.934   4.147  13.769  0.00  0.00    +0.000 A 
ATOM     13 BR   UNL     1       5.489   3.048  12.293  0.00  0.00    +0.000 Br
ATOM     14  C   UNL     1       7.200   4.762  13.854  0.00  0.00    +0.000 A 
ATOM     15  C   UNL     1       7.597   5.510  14.996  0.00  0.00    +0.000 A 
ATOM     16  C   UNL     1       6.692   5.634  16.037  0.00  0.00    +0.000 A 
ENDROOT
BRANCH   1  17
ATOM     17  C   UNL     1       7.897   6.646  18.181  0.00  0.00    +0.000 C 
BRANCH  17  19
ATOM     18  N   UNL     1       8.952   8.848  19.051  0.00  0.00    +0.000 N 
ATOM     19  C   UNL     1       8.018   8.256  18.166  0.00  0.00    +0.000 C 
ATOM     20  O   UNL     1       7.258   8.905  17.448  0.00  0.00    +0.000 OA
ATOM     21  H   UNL     1       9.337   8.217  19.749  0.00  0.00    +0.000 HD
BRANCH  18  25
ATOM     22  C   UNL     1       9.799  13.078  19.587  0.00  0.00    +0.000 A 
ATOM     23  C   UNL     1       9.631  12.223  20.687  0.00  0.00    +0.000 A 
ATOM     24  C   UNL     1       9.343  10.841  20.528  0.00  0.00    +0.000 A 
ATOM     25  C   UNL     1       9.224  10.249  19.272  0.00  0.00    +0.000 A 
ATOM     26  C   UNL     1       9.389  11.125  18.164  0.00  0.00    +0.000 A 
ATOM     27  C   UNL     1       9.668  12.511  18.319  0.00  0.00    +0.000 A 
BRANCH  22  28
ATOM     28  C   UNL     1      10.120  14.522  19.862  0.00  0.00    +0.000 C 
ATOM     29  O   UNL     1       9.270  15.417  19.813  0.00  0.00    +0.000 OA
BRANCH  28  31
ATOM     30  C   UNL     1      12.332  14.761  19.061  0.00  0.00    +0.000 C 
ATOM     31  O   UNL     1      11.431  14.734  20.178  0.00  0.00    +0.000 OA
ENDBRANCH  28  31
ENDBRANCH  22  28
ENDBRANCH  18  25
ENDBRANCH  17  19
ENDBRANCH   1  17
TORSDOF 5
ENDMDL
MODEL 5
REMARK VINA RESULT:      -8.2      6.210      9.641
REMARK  Name = 
REMARK  6 active torsions:
REMARK  status: ('A' for Active; 'I' for Inactive)
REMARK    1  A    between atoms: C_1  and  O_2
REMARK    2  A    between atoms: O_2  and  C_3
REMARK    3  A    between atoms: C_3  and  C_5
REMARK    4  A    between atoms: C_8  and  N_9
REMARK    5  A    between atoms: C_10  and  C_12
REMARK    6  A    between atoms: C_12  and  N_13
REMARK                            x       y       z     vdW  Elec       q    Type
REMARK                         _______ _______ _______ _____ _____    ______ ____
ROOT
ATOM      1  N   UNL     1       0.378  10.061  19.437  0.00  0.00    +0.000 N 
ATOM      2  C   UNL     1       0.522  11.131  20.317  0.00  0.00    +0.000 C 
ATOM      3  O   UNL     1       1.045  11.074  21.414  0.00  0.00    +0.000 OA
ATOM      4  C   UNL     1      -0.118  12.359  19.602  0.00  0.00    +0.000 C 
ATOM      5  O   UNL     1      -0.444  13.461  20.416  0.00  0.00    +0.000 OA
ATOM      6  C   UNL     1       0.754  13.998  20.986  0.00  0.00    +0.000 C 
ATOM      7  C   UNL     1       1.839  14.283  19.944  0.00  0.00    +0.000 C 
ATOM      8  C   UNL     1       1.964  13.183  18.909  0.00  0.00    +0.000 C 
ATOM      9  O   UNL     1       0.668  12.806  18.487  0.00  0.00    +0.000 OA
ATOM     10  C   UNL     1      -1.245  11.635  18.928  0.00  0.00    +0.000 A 
ATOM     11  C   UNL     1      -2.467  12.160  18.512  0.00  0.00    +0.000 A 
ATOM     12  C   UNL     1      -3.289  11.318  17.774  0.00  0.00    +0.000 A 
ATOM     13 BR   UNL     1      -5.001  11.938  17.256  0.00  0.00    +0.000 Br
ATOM     14  C   UNL     1      -2.854  10.024  17.422  0.00  0.00    +0.000 A 
ATOM     15  C   UNL     1      -1.615   9.497  17.881  0.00  0.00    +0.000 A 
ATOM     16  C   UNL     1      -0.827  10.301  18.687  0.00  0.00    +0.000 A 
ENDROOT
BRANCH   1  17
ATOM     17  C   UNL     1       1.142   8.869  19.759  0.00  0.00    +0.000 C 
BRANCH  17  19
ATOM     18  N   UNL     1       2.821   7.200  18.706  0.00  0.00    +0.000 N 
ATOM     19  C   UNL     1       2.073   8.389  18.530  0.00  0.00    +0.000 C 
ATOM     20  O   UNL     1       2.151   9.099  17.529  0.00  0.00    +0.000 OA
ATOM     21  H   UNL     1       2.847   6.848  19.659  0.00  0.00    +0.000 HD
BRANCH  18  25
ATOM     22  C   UNL     1       5.686   5.456  15.940  0.00  0.00    +0.000 A 
ATOM     23  C   UNL     1       4.651   4.689  16.497  0.00  0.00    +0.000 A 
ATOM     24  C   UNL     1       3.714   5.242  17.411  0.00  0.00    +0.000 A 
ATOM     25  C   UNL     1       3.758   6.580  17.797  0.00  0.00    +0.000 A 
ATOM     26  C   UNL     1       4.814   7.347  17.232  0.00  0.00    +0.000 A 
ATOM     27  C   UNL     1       5.759   6.795  16.325  0.00  0.00    +0.000 A 
BRANCH  22  28
ATOM     28  C   UNL     1       6.615   4.781  14.968  0.00  0.00    +0.000 C 
ATOM     29  O   UNL     1       7.738   5.222  14.701  0.00  0.00    +0.000 OA
BRANCH  28  31
ATOM     30  C   UNL     1       6.103   3.586  12.993  0.00  0.00    +0.000 C 
ATOM     31  O   UNL     1       6.097   3.640  14.427  0.00  0.00    +0.000 OA
ENDBRANCH  28  31
ENDBRANCH  22  28
ENDBRANCH  18  25
ENDBRANCH  17  19
ENDBRANCH   1  17
TORSDOF 5
ENDMDL
MODEL 6
REMARK VINA RESULT:      -8.0      5.717      7.528
REMARK  Name = 
REMARK  6 active torsions:
REMARK  status: ('A' for Active; 'I' for Inactive)
REMARK    1  A    between atoms: C_1  and  O_2
REMARK    2  A    between atoms: O_2  and  C_3
REMARK    3  A    between atoms: C_3  and  C_5
REMARK    4  A    between atoms: C_8  and  N_9
REMARK    5  A    between atoms: C_10  and  C_12
REMARK    6  A    between atoms: C_12  and  N_13
REMARK                            x       y       z     vdW  Elec       q    Type
REMARK                         _______ _______ _______ _____ _____    ______ ____
ROOT
ATOM      1  N   UNL     1       3.707   5.772  18.546  0.00  0.00    +0.000 N 
ATOM      2  C   UNL     1       3.550   4.489  19.064  0.00  0.00    +0.000 C 
ATOM      3  O   UNL     1       3.615   4.193  20.243  0.00  0.00    +0.000 OA
ATOM      4  C   UNL     1       3.288   3.564  17.838  0.00  0.00    +0.000 C 
ATOM      5  O   UNL     1       3.473   2.182  18.040  0.00  0.00    +0.000 OA
ATOM      6  C   UNL     1       2.530   1.718  19.013  0.00  0.00    +0.000 C 
ATOM      7  C   UNL     1       1.088   2.120  18.690  0.00  0.00    +0.000 C 
ATOM      8  C   UNL     1       0.972   3.550  18.200  0.00  0.00    +0.000 C 
ATOM      9  O   UNL     1       1.996   3.791  17.255  0.00  0.00    +0.000 OA
ATOM     10  C   UNL     1       4.201   4.252  16.868  0.00  0.00    +0.000 A 
ATOM     11  C   UNL     1       4.816   3.707  15.742  0.00  0.00    +0.000 A 
ATOM     12  C   UNL     1       5.499   4.589  14.915  0.00  0.00    +0.000 A 
ATOM     13 BR   UNL     1       6.433   3.900  13.419  0.00  0.00    +0.000 Br
ATOM     14  C   UNL     1       5.497   5.971  15.190  0.00  0.00    +0.000 A 
ATOM     15  C   UNL     1       4.888   6.505  16.359  0.00  0.00    +0.000 A 
ATOM     16  C   UNL     1       4.277   5.621  17.233  0.00  0.00    +0.000 A 
ENDROOT
BRANCH   1  17
ATOM     17  C   UNL     1       3.687   6.853  19.515  0.00  0.00    +0.000 C 
BRANCH  17  19
ATOM     18  N   UNL     1       1.936   8.668  18.919  0.00  0.00    +0.000 N 
ATOM     19  C   UNL     1       2.218   7.504  19.673  0.00  0.00    +0.000 C 
ATOM     20  O   UNL     1       1.432   7.013  20.483  0.00  0.00    +0.000 OA
ATOM     21  H   UNL     1       2.746   9.099  18.480  0.00  0.00    +0.000 HD
BRANCH  18  25
ATOM     22  C   UNL     1      -1.669  11.095  19.021  0.00  0.00    +0.000 A 
ATOM     23  C   UNL     1      -1.319  10.358  17.879  0.00  0.00    +0.000 A 
ATOM     24  C   UNL     1      -0.138   9.569  17.827  0.00  0.00    +0.000 A 
ATOM     25  C   UNL     1       0.734   9.469  18.909  0.00  0.00    +0.000 A 
ATOM     26  C   UNL     1       0.374  10.225  20.058  0.00  0.00    +0.000 A 
ATOM     27  C   UNL     1      -0.801  11.023  20.111  0.00  0.00    +0.000 A 
BRANCH  22  28
ATOM     28  C   UNL     1      -2.950  11.884  18.982  0.00  0.00    +0.000 C 
ATOM     29  O   UNL     1      -3.304  12.629  19.902  0.00  0.00    +0.000 OA
BRANCH  28  31
ATOM     30  C   UNL     1      -5.081  11.558  18.011  0.00  0.00    +0.000 C 
ATOM     31  O   UNL     1      -3.664  11.700  17.833  0.00  0.00    +0.000 OA
ENDBRANCH  28  31
ENDBRANCH  22  28
ENDBRANCH  18  25
ENDBRANCH  17  19
ENDBRANCH   1  17
TORSDOF 5
ENDMDL
MODEL 7
REMARK VINA RESULT:      -7.8      7.797     11.662
REMARK  Name = 
REMARK  6 active torsions:
REMARK  status: ('A' for Active; 'I' for Inactive)
REMARK    1  A    between atoms: C_1  and  O_2
REMARK    2  A    between atoms: O_2  and  C_3
REMARK    3  A    between atoms: C_3  and  C_5
REMARK    4  A    between atoms: C_8  and  N_9
REMARK    5  A    between atoms: C_10  and  C_12
REMARK    6  A    between atoms: C_12  and  N_13
REMARK                            x       y       z     vdW  Elec       q    Type
REMARK                         _______ _______ _______ _____ _____    ______ ____
ROOT
ATOM      1  N   UNL     1      -0.749  11.148  22.212  0.00  0.00    +0.000 N 
ATOM      2  C   UNL     1      -0.090  11.958  21.291  0.00  0.00    +0.000 C 
ATOM      3  O   UNL     1       1.114  11.989  21.117  0.00  0.00    +0.000 OA
ATOM      4  C   UNL     1      -1.202  12.779  20.572  0.00  0.00    +0.000 C 
ATOM      5  O   UNL     1      -0.785  13.930  19.877  0.00  0.00    +0.000 OA
ATOM      6  C   UNL     1       0.085  13.545  18.807  0.00  0.00    +0.000 C 
ATOM      7  C   UNL     1      -0.507  12.451  17.915  0.00  0.00    +0.000 C 
ATOM      8  C   UNL     1      -1.202  11.360  18.706  0.00  0.00    +0.000 C 
ATOM      9  O   UNL     1      -2.002  11.961  19.704  0.00  0.00    +0.000 OA
ATOM     10  C   UNL     1      -2.106  12.970  21.753  0.00  0.00    +0.000 A 
ATOM     11  C   UNL     1      -3.039  13.986  21.958  0.00  0.00    +0.000 A 
ATOM     12  C   UNL     1      -3.864  13.861  23.067  0.00  0.00    +0.000 A 
ATOM     13 BR   UNL     1      -5.090  15.252  23.453  0.00  0.00    +0.000 Br
ATOM     14  C   UNL     1      -3.786  12.720  23.890  0.00  0.00    +0.000 A 
ATOM     15  C   UNL     1      -2.809  11.708  23.682  0.00  0.00    +0.000 A 
ATOM     16  C   UNL     1      -1.927  11.866  22.626  0.00  0.00    +0.000 A 
ENDROOT
BRANCH   1  17
ATOM     17  C   UNL     1       0.046  10.092  22.811  0.00  0.00    +0.000 C 
BRANCH  17  19
ATOM     18  N   UNL     1       1.399   8.404  21.382  0.00  0.00    +0.000 N 
ATOM     19  C   UNL     1       0.124   8.780  21.873  0.00  0.00    +0.000 C 
ATOM     20  O   UNL     1      -0.918   8.203  21.566  0.00  0.00    +0.000 OA
ATOM     21  H   UNL     1       2.129   9.099  21.515  0.00  0.00    +0.000 HD
BRANCH  18  25
ATOM     22  C   UNL     1       2.434   5.216  18.614  0.00  0.00    +0.000 A 
ATOM     23  C   UNL     1       1.963   4.935  19.907  0.00  0.00    +0.000 A 
ATOM     24  C   UNL     1       1.631   5.967  20.826  0.00  0.00    +0.000 A 
ATOM     25  C   UNL     1       1.740   7.316  20.496  0.00  0.00    +0.000 A 
ATOM     26  C   UNL     1       2.224   7.590  19.187  0.00  0.00    +0.000 A 
ATOM     27  C   UNL     1       2.566   6.561  18.268  0.00  0.00    +0.000 A 
BRANCH  22  28
ATOM     28  C   UNL     1       2.740   4.053  17.710  0.00  0.00    +0.000 C 
ATOM     29  O   UNL     1       1.891   3.536  16.975  0.00  0.00    +0.000 OA
BRANCH  28  31
ATOM     30  C   UNL     1       4.842   3.959  16.632  0.00  0.00    +0.000 C 
ATOM     31  O   UNL     1       4.039   3.641  17.779  0.00  0.00    +0.000 OA
ENDBRANCH  28  31
ENDBRANCH  22  28
ENDBRANCH  18  25
ENDBRANCH  17  19
ENDBRANCH   1  17
TORSDOF 5
ENDMDL
MODEL 8
REMARK VINA RESULT:      -7.7      7.243     11.041
REMARK  Name = 
REMARK  6 active torsions:
REMARK  status: ('A' for Active; 'I' for Inactive)
REMARK    1  A    between atoms: C_1  and  O_2
REMARK    2  A    between atoms: O_2  and  C_3
REMARK    3  A    between atoms: C_3  and  C_5
REMARK    4  A    between atoms: C_8  and  N_9
REMARK    5  A    between atoms: C_10  and  C_12
REMARK    6  A    between atoms: C_12  and  N_13
REMARK                            x       y       z     vdW  Elec       q    Type
REMARK                         _______ _______ _______ _____ _____    ______ ____
ROOT
ATOM      1  N   UNL     1      -0.612  11.095  20.982  0.00  0.00    +0.000 N 
ATOM      2  C   UNL     1      -1.598  11.809  21.657  0.00  0.00    +0.000 C 
ATOM      3  O   UNL     1      -1.874  11.686  22.836  0.00  0.00    +0.000 OA
ATOM      4  C   UNL     1      -2.240  12.755  20.597  0.00  0.00    +0.000 C 
ATOM      5  O   UNL     1      -3.498  13.300  20.919  0.00  0.00    +0.000 OA
ATOM      6  C   UNL     1      -3.367  14.137  22.074  0.00  0.00    +0.000 C 
ATOM      7  C   UNL     1      -2.247  15.172  21.941  0.00  0.00    +0.000 C 
ATOM      8  C   UNL     1      -0.988  14.600  21.320  0.00  0.00    +0.000 C 
ATOM      9  O   UNL     1      -1.349  13.810  20.205  0.00  0.00    +0.000 OA
ATOM     10  C   UNL     1      -2.166  11.823  19.425  0.00  0.00    +0.000 A 
ATOM     11  C   UNL     1      -2.965  11.825  18.282  0.00  0.00    +0.000 A 
ATOM     12  C   UNL     1      -2.603  10.952  17.266  0.00  0.00    +0.000 A 
ATOM     13 BR   UNL     1      -3.699  10.839  15.726  0.00  0.00    +0.000 Br
ATOM     14  C   UNL     1      -1.441  10.162  17.383  0.00  0.00    +0.000 A 
ATOM     15  C   UNL     1      -0.654  10.154  18.568  0.00  0.00    +0.000 A 
ATOM     16  C   UNL     1      -1.057  10.960  19.620  0.00  0.00    +0.000 A 
ENDROOT
BRANCH   1  17
ATOM     17  C   UNL     1       0.313  10.349  21.816  0.00  0.00    +0.000 C 
BRANCH  17  19
ATOM     18  N   UNL     1       1.516   8.375  20.646  0.00  0.00    +0.000 N 
ATOM     19  C   UNL     1       0.391   8.791  21.398  0.00  0.00    +0.000 C 
ATOM     20  O   UNL     1      -0.548   8.049  21.683  0.00  0.00    +0.000 OA
ATOM     21  H   UNL     1       2.089   9.131  20.279  0.00  0.00    +0.000 HD
BRANCH  18  25
ATOM     22  C   UNL     1       2.371   4.385  19.145  0.00  0.00    +0.000 A 
ATOM     23  C   UNL     1       2.666   5.529  18.385  0.00  0.00    +0.000 A 
ATOM     24  C   UNL     1       2.383   6.838  18.858  0.00  0.00    +0.000 A 
ATOM     25  C   UNL     1       1.808   7.066  20.107  0.00  0.00    +0.000 A 
ATOM     26  C   UNL     1       1.507   5.902  20.865  0.00  0.00    +0.000 A 
ATOM     27  C   UNL     1       1.781   4.589  20.392  0.00  0.00    +0.000 A 
BRANCH  22  28
ATOM     28  C   UNL     1       2.728   3.045  18.563  0.00  0.00    +0.000 C 
ATOM     29  O   UNL     1       2.702   2.815  17.349  0.00  0.00    +0.000 OA
BRANCH  28  31
ATOM     30  C   UNL     1       4.465   2.175  19.911  0.00  0.00    +0.000 C 
ATOM     31  O   UNL     1       3.089   2.125  19.504  0.00  0.00    +0.000 OA
ENDBRANCH  28  31
ENDBRANCH  22  28
ENDBRANCH  18  25
ENDBRANCH  17  19
ENDBRANCH   1  17
TORSDOF 5
ENDMDL
MODEL 9
REMARK VINA RESULT:      -7.6      7.905     11.184
REMARK  Name = 
REMARK  6 active torsions:
REMARK  status: ('A' for Active; 'I' for Inactive)
REMARK    1  A    between atoms: C_1  and  O_2
REMARK    2  A    between atoms: O_2  and  C_3
REMARK    3  A    between atoms: C_3  and  C_5
REMARK    4  A    between atoms: C_8  and  N_9
REMARK    5  A    between atoms: C_10  and  C_12
REMARK    6  A    between atoms: C_12  and  N_13
REMARK                            x       y       z     vdW  Elec       q    Type
REMARK                         _______ _______ _______ _____ _____    ______ ____
ROOT
ATOM      1  N   UNL     1      -1.634  12.282  19.801  0.00  0.00    +0.000 N 
ATOM      2  C   UNL     1      -1.805  12.282  18.420  0.00  0.00    +0.000 C 
ATOM      3  O   UNL     1      -1.009  12.726  17.612  0.00  0.00    +0.000 OA
ATOM      4  C   UNL     1      -3.190  11.617  18.162  0.00  0.00    +0.000 C 
ATOM      5  O   UNL     1      -3.768  11.834  16.896  0.00  0.00    +0.000 OA
ATOM      6  C   UNL     1      -2.930  11.256  15.889  0.00  0.00    +0.000 C 
ATOM      7  C   UNL     1      -2.571   9.795  16.175  0.00  0.00    +0.000 C 
ATOM      8  C   UNL     1      -2.224   9.548  17.630  0.00  0.00    +0.000 C 
ATOM      9  O   UNL     1      -3.174  10.208  18.442  0.00  0.00    +0.000 OA
ATOM     10  C   UNL     1      -3.906  12.172  19.357  0.00  0.00    +0.000 A 
ATOM     11  C   UNL     1      -5.276  12.373  19.513  0.00  0.00    +0.000 A 
ATOM     12  C   UNL     1      -5.711  12.761  20.773  0.00  0.00    +0.000 A 
ATOM     13 BR   UNL     1      -7.548  13.140  21.028  0.00  0.00    +0.000 Br
ATOM     14  C   UNL     1      -4.797  12.873  21.840  0.00  0.00    +0.000 A 
ATOM     15  C   UNL     1      -3.399  12.691  21.654  0.00  0.00    +0.000 A 
ATOM     16  C   UNL     1      -2.947  12.386  20.381  0.00  0.00    +0.000 A 
ENDROOT
BRANCH   1  17
ATOM     17  C   UNL     1      -0.298  12.599  20.274  0.00  0.00    +0.000 C 
BRANCH  17  19
ATOM     18  N   UNL     1       0.711  10.416  19.311  0.00  0.00    +0.000 N 
ATOM     19  C   UNL     1       0.624  11.283  20.427  0.00  0.00    +0.000 C 
ATOM     20  O   UNL     1       1.153  11.048  21.512  0.00  0.00    +0.000 OA
ATOM     21  H   UNL     1       0.040  10.603  18.570  0.00  0.00    +0.000 HD
BRANCH  18  25
ATOM     22  C   UNL     1       2.824   6.622  19.094  0.00  0.00    +0.000 A 
ATOM     23  C   UNL     1       2.816   7.515  18.011  0.00  0.00    +0.000 A 
ATOM     24  C   UNL     1       2.121   8.753  18.063  0.00  0.00    +0.000 A 
ATOM     25  C   UNL     1       1.418   9.161  19.195  0.00  0.00    +0.000 A 
ATOM     26  C   UNL     1       1.427   8.247  20.284  0.00  0.00    +0.000 A 
ATOM     27  C   UNL     1       2.113   7.003  20.232  0.00  0.00    +0.000 A 
BRANCH  22  28
ATOM     28  C   UNL     1       3.605   5.345  18.946  0.00  0.00    +0.000 C 
ATOM     29  O   UNL     1       3.153   4.347  18.374  0.00  0.00    +0.000 OA
BRANCH  28  31
ATOM     30  C   UNL     1       5.936   5.387  18.549  0.00  0.00    +0.000 C 
ATOM     31  O   UNL     1       4.854   5.409  19.492  0.00  0.00    +0.000 OA
ENDBRANCH  28  31
ENDBRANCH  22  28
ENDBRANCH  18  25
ENDBRANCH  17  19
ENDBRANCH   1  17
TORSDOF 5
ENDMDL
