MODEL 1
REMARK VINA RESULT:      -7.3      0.000      0.000
REMARK  Name = 
REMARK  5 active torsions:
REMARK  status: ('A' for Active; 'I' for Inactive)
REMARK    1  A    between atoms: C_1  and  C_2
REMARK    2  A    between atoms: C_10  and  N_11
REMARK    3  A    between atoms: N_11  and  C_12
REMARK    4  A    between atoms: N_11  and  C_13
REMARK    5  A    between atoms: C_17  and  C_19
REMARK                            x       y       z     vdW  Elec       q    Type
REMARK                         _______ _______ _______ _____ _____    ______ ____
ROOT
ATOM      1  C   UNL     1      -6.315  11.777  17.590  0.00  0.00    +0.000 C 
ATOM      2  C   UNL     1      -4.846  12.152  17.771  0.00  0.00    +0.000 C 
ATOM      3  C   UNL     1      -3.946  11.246  16.915  0.00  0.00    +0.000 C 
ATOM      4  C   UNL     1      -2.464  11.542  17.154  0.00  0.00    +0.000 C 
ATOM      5  N   UNL     1      -2.193  11.459  18.579  0.00  0.00    +0.000 N 
ATOM      6  C   UNL     1      -1.141  10.716  19.055  0.00  0.00    +0.000 A 
ATOM      7  N   UNL     1      -0.377  10.065  18.181  0.00  0.00    +0.000 NA
ATOM      8  C   UNL     1       0.591   9.270  18.663  0.00  0.00    +0.000 A 
ATOM      9  C   UNL     1       0.823   9.077  20.026  0.00  0.00    +0.000 A 
ATOM     10  C   UNL     1       0.034   9.828  20.893  0.00  0.00    +0.000 A 
ATOM     11  N   UNL     1      -0.932  10.627  20.377  0.00  0.00    +0.000 NA
ATOM     12  C   UNL     1       1.857   8.074  20.466  0.00  0.00    +0.000 C 
ATOM     13  N   UNL     1       2.440   7.304  19.373  0.00  0.00    +0.000 N 
ATOM     14  C   UNL     1       2.846   5.985  19.633  0.00  0.00    +0.000 C 
ATOM     15  O   UNL     1       2.749   5.546  20.780  0.00  0.00    +0.000 OA
ATOM     16  C   UNL     1       2.720   8.095  18.183  0.00  0.00    +0.000 C 
ATOM     17  C   UNL     1       1.389   8.548  17.609  0.00  0.00    +0.000 C 
ATOM     18  C   UNL     1      -2.950  12.335  19.452  0.00  0.00    +0.000 C 
ATOM     19  C   UNL     1      -4.445  12.070  19.253  0.00  0.00    +0.000 C 
ENDROOT
BRANCH  14  20
ATOM     20  C   UNL     1       3.373   5.168  18.542  0.00  0.00    +0.000 A 
ATOM     21  C   UNL     1       2.758   4.291  17.666  0.00  0.00    +0.000 A 
ATOM     22  C   UNL     1       3.656   3.746  16.703  0.00  0.00    +0.000 A 
ATOM     23  C   UNL     1       4.953   4.136  16.938  0.00  0.00    +0.000 A 
ATOM     24  S   UNL     1       5.076   5.185  18.277  0.00  0.00    +0.000 S 
ENDBRANCH  14  20
BRANCH  10  25
ATOM     25  N   UNL     1       0.137   9.836  22.271  0.00  0.00    +0.000 N 
ATOM     26  C   UNL     1      -0.975  10.386  23.044  0.00  0.00    +0.000 C 
ATOM     27  C   UNL     1       1.211   9.276  23.072  0.00  0.00    +0.000 C 
ENDBRANCH  10  25
TORSDOF 2
ENDMDL
MODEL 2
REMARK VINA RESULT:      -6.7      4.112      8.543
REMARK  Name = 
REMARK  5 active torsions:
REMARK  status: ('A' for Active; 'I' for Inactive)
REMARK    1  A    between atoms: C_1  and  C_2
REMARK    2  A    between atoms: C_10  and  N_11
REMARK    3  A    between atoms: N_11  and  C_12
REMARK    4  A    between atoms: N_11  and  C_13
REMARK    5  A    between atoms: C_17  and  C_19
REMARK                            x       y       z     vdW  Elec       q    Type
REMARK                         _______ _______ _______ _____ _____    ______ ____
ROOT
ATOM      1  C   UNL     1       1.637   3.347  18.176  0.00  0.00    +0.000 C 
ATOM      2  C   UNL     1       2.156   4.498  19.035  0.00  0.00    +0.000 C 
ATOM      3  C   UNL     1       1.149   4.843  20.144  0.00  0.00    +0.000 C 
ATOM      4  C   UNL     1       1.605   6.056  20.958  0.00  0.00    +0.000 C 
ATOM      5  N   UNL     1       1.874   7.156  20.048  0.00  0.00    +0.000 N 
ATOM      6  C   UNL     1       1.343   8.404  20.273  0.00  0.00    +0.000 A 
ATOM      7  N   UNL     1       0.570   8.580  21.341  0.00  0.00    +0.000 NA
ATOM      8  C   UNL     1      -0.016   9.778  21.500  0.00  0.00    +0.000 A 
ATOM      9  C   UNL     1       0.127  10.833  20.598  0.00  0.00    +0.000 A 
ATOM     10  C   UNL     1       0.994  10.612  19.532  0.00  0.00    +0.000 A 
ATOM     11  N   UNL     1       1.576   9.394  19.400  0.00  0.00    +0.000 NA
ATOM     12  C   UNL     1      -0.664  12.097  20.805  0.00  0.00    +0.000 C 
ATOM     13  N   UNL     1      -1.618  12.026  21.907  0.00  0.00    +0.000 N 
ATOM     14  C   UNL     1      -2.806  12.767  21.804  0.00  0.00    +0.000 C 
ATOM     15  O   UNL     1      -2.977  13.490  20.822  0.00  0.00    +0.000 OA
ATOM     16  C   UNL     1      -1.103  11.343  23.085  0.00  0.00    +0.000 C 
ATOM     17  C   UNL     1      -0.898   9.884  22.718  0.00  0.00    +0.000 C 
ATOM     18  C   UNL     1       2.866   6.938  19.013  0.00  0.00    +0.000 C 
ATOM     19  C   UNL     1       2.447   5.733  18.166  0.00  0.00    +0.000 C 
ENDROOT
BRANCH  14  20
ATOM     20  C   UNL     1      -3.809  12.665  22.863  0.00  0.00    +0.000 A 
ATOM     21  C   UNL     1      -3.719  12.259  24.183  0.00  0.00    +0.000 A 
ATOM     22  C   UNL     1      -4.953  12.376  24.885  0.00  0.00    +0.000 A 
ATOM     23  C   UNL     1      -5.978  12.764  24.056  0.00  0.00    +0.000 A 
ATOM     24  S   UNL     1      -5.444  13.028  22.458  0.00  0.00    +0.000 S 
ENDBRANCH  14  20
BRANCH  10  25
ATOM     25  N   UNL     1       1.328  11.537  18.560  0.00  0.00    +0.000 N 
ATOM     26  C   UNL     1       2.548  11.318  17.787  0.00  0.00    +0.000 C 
ATOM     27  C   UNL     1       0.549  12.691  18.147  0.00  0.00    +0.000 C 
ENDBRANCH  10  25
TORSDOF 2
ENDMDL
MODEL 3
REMARK VINA RESULT:      -6.3      2.916      5.162
REMARK  Name = 
REMARK  5 active torsions:
REMARK  status: ('A' for Active; 'I' for Inactive)
REMARK    1  A    between atoms: C_1  and  C_2
REMARK    2  A    between atoms: C_10  and  N_11
REMARK    3  A    between atoms: N_11  and  C_12
REMARK    4  A    between atoms: N_11  and  C_13
REMARK    5  A    between atoms: C_17  and  C_19
REMARK                            x       y       z     vdW  Elec       q    Type
REMARK                         _______ _______ _______ _____ _____    ______ ____
ROOT
ATOM      1  C   UNL     1      -2.178  11.049  18.832  0.00  0.00    +0.000 C 
ATOM      2  C   UNL     1      -0.782  10.698  19.342  0.00  0.00    +0.000 C 
ATOM      3  C   UNL     1       0.229  10.679  18.184  0.00  0.00    +0.000 C 
ATOM      4  C   UNL     1       1.616  10.237  18.658  0.00  0.00    +0.000 C 
ATOM      5  N   UNL     1       1.490   8.964  19.347  0.00  0.00    +0.000 N 
ATOM      6  C   UNL     1       2.310   7.907  19.031  0.00  0.00    +0.000 A 
ATOM      7  N   UNL     1       3.218   8.074  18.073  0.00  0.00    +0.000 NA
ATOM      8  C   UNL     1       3.950   7.008  17.711  0.00  0.00    +0.000 A 
ATOM      9  C   UNL     1       3.794   5.739  18.270  0.00  0.00    +0.000 A 
ATOM     10  C   UNL     1       2.873   5.638  19.309  0.00  0.00    +0.000 A 
ATOM     11  N   UNL     1       2.153   6.732  19.657  0.00  0.00    +0.000 NA
ATOM     12  C   UNL     1       4.583   4.583  17.714  0.00  0.00    +0.000 C 
ATOM     13  N   UNL     1       5.365   4.915  16.527  0.00  0.00    +0.000 N 
ATOM     14  C   UNL     1       5.570   3.911  15.567  0.00  0.00    +0.000 C 
ATOM     15  O   UNL     1       5.135   2.779  15.783  0.00  0.00    +0.000 OA
ATOM     16  C   UNL     1       6.018   6.214  16.600  0.00  0.00    +0.000 C 
ATOM     17  C   UNL     1       4.933   7.275  16.599  0.00  0.00    +0.000 C 
ATOM     18  C   UNL     1       0.609   8.913  20.498  0.00  0.00    +0.000 C 
ATOM     19  C   UNL     1      -0.796   9.343  20.070  0.00  0.00    +0.000 C 
ENDROOT
BRANCH  14  20
ATOM     20  C   UNL     1       6.294   4.231  14.338  0.00  0.00    +0.000 A 
ATOM     21  C   UNL     1       7.326   5.117  14.080  0.00  0.00    +0.000 A 
ATOM     22  C   UNL     1       7.779   5.062  12.730  0.00  0.00    +0.000 A 
ATOM     23  C   UNL     1       7.010   4.217  11.966  0.00  0.00    +0.000 A 
ATOM     24  S   UNL     1       5.785   3.463  12.883  0.00  0.00    +0.000 S 
ENDBRANCH  14  20
BRANCH  10  25
ATOM     25  N   UNL     1       2.608   4.495  20.040  0.00  0.00    +0.000 N 
ATOM     26  C   UNL     1       1.219   4.204  20.387  0.00  0.00    +0.000 C 
ATOM     27  C   UNL     1       3.560   3.477  20.449  0.00  0.00    +0.000 C 
ENDBRANCH  10  25
TORSDOF 2
ENDMDL
MODEL 4
REMARK VINA RESULT:      -6.2      2.540      4.591
REMARK  Name = 
REMARK  5 active torsions:
REMARK  status: ('A' for Active; 'I' for Inactive)
REMARK    1  A    between atoms: C_1  and  C_2
REMARK    2  A    between atoms: C_10  and  N_11
REMARK    3  A    between atoms: N_11  and  C_12
REMARK    4  A    between atoms: N_11  and  C_13
REMARK    5  A    between atoms: C_17  and  C_19
REMARK                            x       y       z     vdW  Elec       q    Type
REMARK                         _______ _______ _______ _____ _____    ______ ____
ROOT
ATOM      1  C   UNL     1      -2.333  11.581  18.942  0.00  0.00    +0.000 C 
ATOM      2  C   UNL     1      -0.980  11.150  19.504  0.00  0.00    +0.000 C 
ATOM      3  C   UNL     1       0.060  11.026  18.379  0.00  0.00    +0.000 C 
ATOM      4  C   UNL     1       1.398  10.504  18.908  0.00  0.00    +0.000 C 
ATOM      5  N   UNL     1       1.165   9.265  19.629  0.00  0.00    +0.000 N 
ATOM      6  C   UNL     1       1.917   8.145  19.370  0.00  0.00    +0.000 A 
ATOM      7  N   UNL     1       2.862   8.219  18.435  0.00  0.00    +0.000 NA
ATOM      8  C   UNL     1       3.528   7.095  18.126  0.00  0.00    +0.000 A 
ATOM      9  C   UNL     1       3.268   5.857  18.718  0.00  0.00    +0.000 A 
ATOM     10  C   UNL     1       2.313   5.852  19.730  0.00  0.00    +0.000 A 
ATOM     11  N   UNL     1       1.661   7.003  20.024  0.00  0.00    +0.000 NA
ATOM     12  C   UNL     1       3.989   4.633  18.220  0.00  0.00    +0.000 C 
ATOM     13  N   UNL     1       4.826   4.872  17.048  0.00  0.00    +0.000 N 
ATOM     14  C   UNL     1       4.988   3.827  16.124  0.00  0.00    +0.000 C 
ATOM     15  O   UNL     1       4.469   2.736  16.360  0.00  0.00    +0.000 OA
ATOM     16  C   UNL     1       5.566   6.125  17.103  0.00  0.00    +0.000 C 
ATOM     17  C   UNL     1       4.558   7.258  17.039  0.00  0.00    +0.000 C 
ATOM     18  C   UNL     1       0.250   9.311  20.753  0.00  0.00    +0.000 C 
ATOM     19  C   UNL     1      -1.109   9.823  20.270  0.00  0.00    +0.000 C 
ENDROOT
BRANCH  14  20
ATOM     20  C   UNL     1       5.767   4.059  14.910  0.00  0.00    +0.000 A 
ATOM     21  C   UNL     1       5.563   3.674  13.595  0.00  0.00    +0.000 A 
ATOM     22  C   UNL     1       6.559   4.177  12.709  0.00  0.00    +0.000 A 
ATOM     23  C   UNL     1       7.557   4.838  13.384  0.00  0.00    +0.000 A 
ATOM     24  S   UNL     1       7.267   4.892  15.064  0.00  0.00    +0.000 S 
ENDBRANCH  14  20
BRANCH  10  25
ATOM     25  N   UNL     1       1.948   4.754  20.486  0.00  0.00    +0.000 N 
ATOM     26  C   UNL     1       0.813   3.951  20.036  0.00  0.00    +0.000 C 
ATOM     27  C   UNL     1       2.624   4.238  21.664  0.00  0.00    +0.000 C 
ENDBRANCH  10  25
TORSDOF 2
ENDMDL
MODEL 5
REMARK VINA RESULT:      -6.1      4.282      8.126
REMARK  Name = 
REMARK  5 active torsions:
REMARK  status: ('A' for Active; 'I' for Inactive)
REMARK    1  A    between atoms: C_1  and  C_2
REMARK    2  A    between atoms: C_10  and  N_11
REMARK    3  A    between atoms: N_11  and  C_12
REMARK    4  A    between atoms: N_11  and  C_13
REMARK    5  A    between atoms: C_17  and  C_19
REMARK                            x       y       z     vdW  Elec       q    Type
REMARK                         _______ _______ _______ _____ _____    ______ ____
ROOT
ATOM      1  C   UNL     1       5.726   4.832  18.396  0.00  0.00    +0.000 C 
ATOM      2  C   UNL     1       4.293   5.350  18.299  0.00  0.00    +0.000 C 
ATOM      3  C   UNL     1       4.251   6.692  17.551  0.00  0.00    +0.000 C 
ATOM      4  C   UNL     1       2.836   7.276  17.525  0.00  0.00    +0.000 C 
ATOM      5  N   UNL     1       2.335   7.348  18.887  0.00  0.00    +0.000 N 
ATOM      6  C   UNL     1       1.775   8.505  19.372  0.00  0.00    +0.000 A 
ATOM      7  N   UNL     1       1.710   9.563  18.568  0.00  0.00    +0.000 NA
ATOM      8  C   UNL     1       1.245  10.713  19.081  0.00  0.00    +0.000 A 
ATOM      9  C   UNL     1       0.849  10.860  20.412  0.00  0.00    +0.000 A 
ATOM     10  C   UNL     1       0.883   9.706  21.190  0.00  0.00    +0.000 A 
ATOM     11  N   UNL     1       1.351   8.558  20.643  0.00  0.00    +0.000 NA
ATOM     12  C   UNL     1       0.453  12.221  20.921  0.00  0.00    +0.000 C 
ATOM     13  N   UNL     1       0.649  13.296  19.954  0.00  0.00    +0.000 N 
ATOM     14  C   UNL     1       0.973  14.573  20.439  0.00  0.00    +0.000 C 
ATOM     15  O   UNL     1       1.026  14.754  21.656  0.00  0.00    +0.000 OA
ATOM     16  C   UNL     1       0.268  12.939  18.595  0.00  0.00    +0.000 C 
ATOM     17  C   UNL     1       1.232  11.868  18.114  0.00  0.00    +0.000 C 
ATOM     18  C   UNL     1       2.273   6.110  19.640  0.00  0.00    +0.000 C 
ATOM     19  C   UNL     1       3.672   5.491  19.699  0.00  0.00    +0.000 C 
ENDROOT
BRANCH  14  20
ATOM     20  C   UNL     1       1.239  15.654  19.492  0.00  0.00    +0.000 A 
ATOM     21  C   UNL     1       2.365  15.979  18.754  0.00  0.00    +0.000 A 
ATOM     22  C   UNL     1       2.162  17.098  17.896  0.00  0.00    +0.000 A 
ATOM     23  C   UNL     1       0.924  17.667  18.082  0.00  0.00    +0.000 A 
ATOM     24  S   UNL     1       0.001  16.827  19.245  0.00  0.00    +0.000 S 
ENDBRANCH  14  20
BRANCH  10  25
ATOM     25  N   UNL     1       0.478   9.613  22.508  0.00  0.00    +0.000 N 
ATOM     26  C   UNL     1       1.465   9.212  23.508  0.00  0.00    +0.000 C 
ATOM     27  C   UNL     1      -0.827   9.953  23.049  0.00  0.00    +0.000 C 
ENDBRANCH  10  25
TORSDOF 2
ENDMDL
MODEL 6
REMARK VINA RESULT:      -6.1      7.655      8.446
REMARK  Name = 
REMARK  5 active torsions:
REMARK  status: ('A' for Active; 'I' for Inactive)
REMARK    1  A    between atoms: C_1  and  C_2
REMARK    2  A    between atoms: C_10  and  N_11
REMARK    3  A    between atoms: N_11  and  C_12
REMARK    4  A    between atoms: N_11  and  C_13
REMARK    5  A    between atoms: C_17  and  C_19
REMARK                            x       y       z     vdW  Elec       q    Type
REMARK                         _______ _______ _______ _____ _____    ______ ____
ROOT
ATOM      1  C   UNL     1      -1.122  12.195  19.148  0.00  0.00    +0.000 C 
ATOM      2  C   UNL     1      -0.263  13.379  19.585  0.00  0.00    +0.000 C 
ATOM      3  C   UNL     1       0.875  13.624  18.581  0.00  0.00    +0.000 C 
ATOM      4  C   UNL     1       1.804  14.747  19.049  0.00  0.00    +0.000 C 
ATOM      5  N   UNL     1       2.264  14.443  20.394  0.00  0.00    +0.000 N 
ATOM      6  C   UNL     1       3.599  14.500  20.712  0.00  0.00    +0.000 A 
ATOM      7  N   UNL     1       4.465  14.834  19.758  0.00  0.00    +0.000 NA
ATOM      8  C   UNL     1       5.773  14.797  20.057  0.00  0.00    +0.000 A 
ATOM      9  C   UNL     1       6.269  14.411  21.303  0.00  0.00    +0.000 A 
ATOM     10  C   UNL     1       5.317  14.132  22.280  0.00  0.00    +0.000 A 
ATOM     11  N   UNL     1       4.003  14.183  21.950  0.00  0.00    +0.000 NA
ATOM     12  C   UNL     1       7.756  14.291  21.503  0.00  0.00    +0.000 C 
ATOM     13  N   UNL     1       8.536  14.488  20.286  0.00  0.00    +0.000 N 
ATOM     14  C   UNL     1       9.746  13.787  20.153  0.00  0.00    +0.000 C 
ATOM     15  O   UNL     1      10.131  13.079  21.084  0.00  0.00    +0.000 OA
ATOM     16  C   UNL     1       8.047  15.570  19.444  0.00  0.00    +0.000 C 
ATOM     17  C   UNL     1       6.685  15.159  18.913  0.00  0.00    +0.000 C 
ATOM     18  C   UNL     1       1.254  14.268  21.420  0.00  0.00    +0.000 C 
ATOM     19  C   UNL     1       0.301  13.147  20.997  0.00  0.00    +0.000 C 
ENDROOT
BRANCH  14  20
ATOM     20  C   UNL     1      10.516  13.914  18.917  0.00  0.00    +0.000 A 
ATOM     21  C   UNL     1      10.437  13.245  17.708  0.00  0.00    +0.000 A 
ATOM     22  C   UNL     1      11.358  13.738  16.739  0.00  0.00    +0.000 A 
ATOM     23  C   UNL     1      12.191  14.695  17.268  0.00  0.00    +0.000 A 
ATOM     24  S   UNL     1      11.832  15.026  18.902  0.00  0.00    +0.000 S 
ENDBRANCH  14  20
BRANCH  10  25
ATOM     25  N   UNL     1       5.587  13.792  23.593  0.00  0.00    +0.000 N 
ATOM     26  C   UNL     1       5.947  12.408  23.888  0.00  0.00    +0.000 C 
ATOM     27  C   UNL     1       5.636  14.687  24.736  0.00  0.00    +0.000 C 
ENDBRANCH  10  25
TORSDOF 2
ENDMDL
MODEL 7
REMARK VINA RESULT:      -6.1      6.127      7.770
REMARK  Name = 
REMARK  5 active torsions:
REMARK  status: ('A' for Active; 'I' for Inactive)
REMARK    1  A    between atoms: C_1  and  C_2
REMARK    2  A    between atoms: C_10  and  N_11
REMARK    3  A    between atoms: N_11  and  C_12
REMARK    4  A    between atoms: N_11  and  C_13
REMARK    5  A    between atoms: C_17  and  C_19
REMARK                            x       y       z     vdW  Elec       q    Type
REMARK                         _______ _______ _______ _____ _____    ______ ____
ROOT
ATOM      1  C   UNL     1      -4.123  12.652  24.681  0.00  0.00    +0.000 C 
ATOM      2  C   UNL     1      -3.726  12.522  23.212  0.00  0.00    +0.000 C 
ATOM      3  C   UNL     1      -2.265  12.059  23.085  0.00  0.00    +0.000 C 
ATOM      4  C   UNL     1      -1.817  12.012  21.622  0.00  0.00    +0.000 C 
ATOM      5  N   UNL     1      -2.078  13.305  21.012  0.00  0.00    +0.000 N 
ATOM      6  C   UNL     1      -1.102  13.957  20.297  0.00  0.00    +0.000 A 
ATOM      7  N   UNL     1       0.091  13.379  20.180  0.00  0.00    +0.000 NA
ATOM      8  C   UNL     1       1.062  14.066  19.557  0.00  0.00    +0.000 A 
ATOM      9  C   UNL     1       0.891  15.353  19.046  0.00  0.00    +0.000 A 
ATOM     10  C   UNL     1      -0.393  15.883  19.143  0.00  0.00    +0.000 A 
ATOM     11  N   UNL     1      -1.355  15.164  19.772  0.00  0.00    +0.000 NA
ATOM     12  C   UNL     1       2.074  16.084  18.469  0.00  0.00    +0.000 C 
ATOM     13  N   UNL     1       3.341  15.377  18.623  0.00  0.00    +0.000 N 
ATOM     14  C   UNL     1       4.512  16.138  18.770  0.00  0.00    +0.000 C 
ATOM     15  O   UNL     1       4.437  17.366  18.709  0.00  0.00    +0.000 OA
ATOM     16  C   UNL     1       3.244  13.943  18.388  0.00  0.00    +0.000 C 
ATOM     17  C   UNL     1       2.389  13.353  19.495  0.00  0.00    +0.000 C 
ATOM     18  C   UNL     1      -3.446  13.785  21.026  0.00  0.00    +0.000 C 
ATOM     19  C   UNL     1      -3.937  13.854  22.474  0.00  0.00    +0.000 C 
ENDROOT
BRANCH  14  20
ATOM     20  C   UNL     1       5.787  15.459  18.991  0.00  0.00    +0.000 A 
ATOM     21  C   UNL     1       6.705  14.913  18.110  0.00  0.00    +0.000 A 
ATOM     22  C   UNL     1       7.860  14.394  18.765  0.00  0.00    +0.000 A 
ATOM     23  C   UNL     1       7.743  14.457  20.133  0.00  0.00    +0.000 A 
ATOM     24  S   UNL     1       6.276  15.179  20.619  0.00  0.00    +0.000 S 
ENDBRANCH  14  20
BRANCH  10  25
ATOM     25  N   UNL     1      -0.796  17.110  18.650  0.00  0.00    +0.000 N 
ATOM     26  C   UNL     1      -1.752  17.889  19.433  0.00  0.00    +0.000 C 
ATOM     27  C   UNL     1      -0.310  17.775  17.453  0.00  0.00    +0.000 C 
ENDBRANCH  10  25
TORSDOF 2
ENDMDL
MODEL 8
REMARK VINA RESULT:      -6.0      7.228      8.655
REMARK  Name = 
REMARK  5 active torsions:
REMARK  status: ('A' for Active; 'I' for Inactive)
REMARK    1  A    between atoms: C_1  and  C_2
REMARK    2  A    between atoms: C_10  and  N_11
REMARK    3  A    between atoms: N_11  and  C_12
REMARK    4  A    between atoms: N_11  and  C_13
REMARK    5  A    between atoms: C_17  and  C_19
REMARK                            x       y       z     vdW  Elec       q    Type
REMARK                         _______ _______ _______ _____ _____    ______ ____
ROOT
ATOM      1  C   UNL     1      -0.444   9.365  23.100  0.00  0.00    +0.000 C 
ATOM      2  C   UNL     1      -0.457  10.216  21.832  0.00  0.00    +0.000 C 
ATOM      3  C   UNL     1       0.924  10.205  21.157  0.00  0.00    +0.000 C 
ATOM      4  C   UNL     1       0.959  11.128  19.937  0.00  0.00    +0.000 C 
ATOM      5  N   UNL     1       0.513  12.452  20.339  0.00  0.00    +0.000 N 
ATOM      6  C   UNL     1       1.243  13.570  20.014  0.00  0.00    +0.000 A 
ATOM      7  N   UNL     1       2.373  13.413  19.329  0.00  0.00    +0.000 NA
ATOM      8  C   UNL     1       3.122  14.503  19.097  0.00  0.00    +0.000 A 
ATOM      9  C   UNL     1       2.789  15.780  19.553  0.00  0.00    +0.000 A 
ATOM     10  C   UNL     1       1.567  15.894  20.211  0.00  0.00    +0.000 A 
ATOM     11  N   UNL     1       0.829  14.777  20.425  0.00  0.00    +0.000 NA
ATOM     12  C   UNL     1       3.753  16.916  19.341  0.00  0.00    +0.000 C 
ATOM     13  N   UNL     1       5.031  16.511  18.764  0.00  0.00    +0.000 N 
ATOM     14  C   UNL     1       6.179  17.236  19.120  0.00  0.00    +0.000 C 
ATOM     15  O   UNL     1       6.063  18.215  19.858  0.00  0.00    +0.000 OA
ATOM     16  C   UNL     1       4.907  15.516  17.708  0.00  0.00    +0.000 C 
ATOM     17  C   UNL     1       4.398  14.234  18.342  0.00  0.00    +0.000 C 
ATOM     18  C   UNL     1      -0.810  12.561  20.920  0.00  0.00    +0.000 C 
ATOM     19  C   UNL     1      -0.892  11.656  22.152  0.00  0.00    +0.000 C 
ENDROOT
BRANCH  14  20
ATOM     20  C   UNL     1       7.481  16.813  18.609  0.00  0.00    +0.000 A 
ATOM     21  C   UNL     1       8.007  15.559  18.348  0.00  0.00    +0.000 A 
ATOM     22  C   UNL     1       9.317  15.612  17.789  0.00  0.00    +0.000 A 
ATOM     23  C   UNL     1       9.800  16.898  17.741  0.00  0.00    +0.000 A 
ATOM     24  S   UNL     1       8.665  18.031  18.320  0.00  0.00    +0.000 S 
ENDBRANCH  14  20
BRANCH  10  25
ATOM     25  N   UNL     1       1.017  17.069  20.688  0.00  0.00    +0.000 N 
ATOM     26  C   UNL     1       1.277  17.440  22.077  0.00  0.00    +0.000 C 
ATOM     27  C   UNL     1       0.258  18.050  19.932  0.00  0.00    +0.000 C 
ENDBRANCH  10  25
TORSDOF 2
ENDMDL
MODEL 9
REMARK VINA RESULT:      -5.9      3.972      8.090
REMARK  Name = 
REMARK  5 active torsions:
REMARK  status: ('A' for Active; 'I' for Inactive)
REMARK    1  A    between atoms: C_1  and  C_2
REMARK    2  A    between atoms: C_10  and  N_11
REMARK    3  A    between atoms: N_11  and  C_12
REMARK    4  A    between atoms: N_11  and  C_13
REMARK    5  A    between atoms: C_17  and  C_19
REMARK                            x       y       z     vdW  Elec       q    Type
REMARK                         _______ _______ _______ _____ _____    ______ ____
ROOT
ATOM      1  C   UNL     1       6.390   4.783  18.145  0.00  0.00    +0.000 C 
ATOM      2  C   UNL     1       4.954   5.254  17.924  0.00  0.00    +0.000 C 
ATOM      3  C   UNL     1       4.936   6.647  17.273  0.00  0.00    +0.000 C 
ATOM      4  C   UNL     1       3.508   7.179  17.129  0.00  0.00    +0.000 C 
ATOM      5  N   UNL     1       2.857   7.130  18.427  0.00  0.00    +0.000 N 
ATOM      6  C   UNL     1       2.197   8.226  18.928  0.00  0.00    +0.000 A 
ATOM      7  N   UNL     1       2.174   9.339  18.198  0.00  0.00    +0.000 NA
ATOM      8  C   UNL     1       1.605  10.430  18.737  0.00  0.00    +0.000 A 
ATOM      9  C   UNL     1       1.059  10.461  20.021  0.00  0.00    +0.000 A 
ATOM     10  C   UNL     1       1.058   9.254  20.714  0.00  0.00    +0.000 A 
ATOM     11  N   UNL     1       1.634   8.168  20.143  0.00  0.00    +0.000 NA
ATOM     12  C   UNL     1       0.550  11.764  20.578  0.00  0.00    +0.000 C 
ATOM     13  N   UNL     1       0.803  12.916  19.718  0.00  0.00    +0.000 N 
ATOM     14  C   UNL     1       1.015  14.163  20.327  0.00  0.00    +0.000 C 
ATOM     15  O   UNL     1       0.926  14.254  21.551  0.00  0.00    +0.000 OA
ATOM     16  C   UNL     1       0.590  12.649  18.303  0.00  0.00    +0.000 C 
ATOM     17  C   UNL     1       1.647  11.654  17.859  0.00  0.00    +0.000 C 
ATOM     18  C   UNL     1       2.768   5.838  19.079  0.00  0.00    +0.000 C 
ATOM     19  C   UNL     1       4.178   5.266  19.251  0.00  0.00    +0.000 C 
ENDROOT
BRANCH  14  20
ATOM     20  C   UNL     1       1.335  15.322  19.495  0.00  0.00    +0.000 A 
ATOM     21  C   UNL     1       0.546  16.342  18.991  0.00  0.00    +0.000 A 
ATOM     22  C   UNL     1       1.293  17.316  18.267  0.00  0.00    +0.000 A 
ATOM     23  C   UNL     1       2.614  16.957  18.143  0.00  0.00    +0.000 A 
ATOM     24  S   UNL     1       2.955  15.484  18.933  0.00  0.00    +0.000 S 
ENDBRANCH  14  20
BRANCH  10  25
ATOM     25  N   UNL     1       0.515   9.047  21.969  0.00  0.00    +0.000 N 
ATOM     26  C   UNL     1      -0.827   8.477  22.055  0.00  0.00    +0.000 C 
ATOM     27  C   UNL     1       1.167   9.257  23.250  0.00  0.00    +0.000 C 
ENDBRANCH  10  25
TORSDOF 2
ENDMDL
