MODEL 1
REMARK VINA RESULT:      -8.8      0.000      0.000
REMARK  Name = 
REMARK  6 active torsions:
REMARK  status: ('A' for Active; 'I' for Inactive)
REMARK    1  A    between atoms: C_2  and  C_11
REMARK    2  A    between atoms: N_3  and  C_4
REMARK    3  A    between atoms: C_4  and  C_5
REMARK    4  A    between atoms: C_5  and  N_6
REMARK    5  A    between atoms: C_22  and  C_23
REMARK    6  A    between atoms: C_23  and  C_24
REMARK                            x       y       z     vdW  Elec       q    Type
REMARK                         _______ _______ _______ _____ _____    ______ ____
ROOT
ATOM      1  C   UNL     1       2.106   7.011  19.761  0.00  0.00    +0.000 A 
ATOM      2  C   UNL     1       1.473   6.790  20.994  0.00  0.00    +0.000 A 
ATOM      3  C   UNL     1       0.656   7.774  21.560  0.00  0.00    +0.000 A 
ATOM      4  C   UNL     1       0.464   8.991  20.905  0.00  0.00    +0.000 A 
ATOM      5  C   UNL     1       1.078   9.214  19.680  0.00  0.00    +0.000 A 
ATOM      6  C   UNL     1       1.919   8.237  19.131  0.00  0.00    +0.000 A 
ATOM      7  C   UNL     1       2.449   8.724  17.821  0.00  0.00    +0.000 C 
ATOM      8  C   UNL     1       2.056  10.214  17.853  0.00  0.00    +0.000 C 
ATOM      9  N   UNL     1       0.991  10.351  18.855  0.00  0.00    +0.000 N 
ATOM     10  C   UNL     1       0.370  11.587  19.009  0.00  0.00    +0.000 A 
ATOM     11  C   UNL     1      -0.912  11.670  19.555  0.00  0.00    +0.000 A 
ATOM     12  C   UNL     1      -1.553  12.906  19.697  0.00  0.00    +0.000 A 
ATOM     13  C   UNL     1      -0.870  14.048  19.289  0.00  0.00    +0.000 A 
ATOM     14  C   UNL     1       0.394  13.895  18.749  0.00  0.00    +0.000 A 
ATOM     15  N   UNL     1       1.008  12.703  18.584  0.00  0.00    +0.000 NA
ENDROOT
BRANCH   1  17
ATOM     16  O   UNL     1       4.163   5.909  19.385  0.00  0.00    +0.000 OA
ATOM     17  C   UNL     1       2.963   5.959  19.158  0.00  0.00    +0.000 C 
ATOM     18  N   UNL     1       2.312   5.067  18.329  0.00  0.00    +0.000 N 
ATOM     19  H   UNL     1       1.396   5.322  17.978  0.00  0.00    +0.000 HD
BRANCH  18  20
ATOM     20  C   UNL     1       3.032   4.009  17.646  0.00  0.00    +0.000 C 
BRANCH  20  21
ATOM     21  C   UNL     1       2.687   2.618  18.176  0.00  0.00    +0.000 C 
BRANCH  21  22
ATOM     22  N   UNL     1       2.400   2.638  19.593  0.00  0.00    +0.000 N 
ATOM     23  C   UNL     1       1.168   2.742  20.172  0.00  0.00    +0.000 A 
ATOM     24  C   UNL     1       1.418   2.744  21.525  0.00  0.00    +0.000 A 
ATOM     25  N   UNL     1       2.763   2.638  21.773  0.00  0.00    +0.000 NA
ATOM     26  C   UNL     1       3.329   2.585  20.592  0.00  0.00    +0.000 A 
ENDBRANCH  21  22
ENDBRANCH  20  21
ENDBRANCH  18  20
ENDBRANCH   1  17
BRANCH  12  27
ATOM     27  C   UNL     1      -2.923  12.991  20.326  0.00  0.00    +0.000 C 
BRANCH  27  28
ATOM     28  C   UNL     1      -2.850  13.344  21.794  0.00  0.00    +0.000 A 
ATOM     29  C   UNL     1      -3.508  12.550  22.748  0.00  0.00    +0.000 A 
ATOM     30  C   UNL     1      -3.554  12.954  24.081  0.00  0.00    +0.000 A 
ATOM     31  F   UNL     1      -4.217  12.196  24.967  0.00  0.00    +0.000 F 
ATOM     32  C   UNL     1      -2.946  14.132  24.487  0.00  0.00    +0.000 A 
ATOM     33  F   UNL     1      -3.027  14.529  25.765  0.00  0.00    +0.000 F 
ATOM     34  C   UNL     1      -2.266  14.905  23.556  0.00  0.00    +0.000 A 
ATOM     35  F   UNL     1      -1.670  16.044  23.933  0.00  0.00    +0.000 F 
ATOM     36  C   UNL     1      -2.209  14.520  22.218  0.00  0.00    +0.000 A 
ENDBRANCH  27  28
ENDBRANCH  12  27
TORSDOF 6
ENDMDL
MODEL 2
REMARK VINA RESULT:      -8.8      2.528      3.386
REMARK  Name = 
REMARK  6 active torsions:
REMARK  status: ('A' for Active; 'I' for Inactive)
REMARK    1  A    between atoms: C_2  and  C_11
REMARK    2  A    between atoms: N_3  and  C_4
REMARK    3  A    between atoms: C_4  and  C_5
REMARK    4  A    between atoms: C_5  and  N_6
REMARK    5  A    between atoms: C_22  and  C_23
REMARK    6  A    between atoms: C_23  and  C_24
REMARK                            x       y       z     vdW  Elec       q    Type
REMARK                         _______ _______ _______ _____ _____    ______ ____
ROOT
ATOM      1  C   UNL     1       2.195   7.017  19.614  0.00  0.00    +0.000 A 
ATOM      2  C   UNL     1       1.696   6.762  20.901  0.00  0.00    +0.000 A 
ATOM      3  C   UNL     1       0.933   7.724  21.571  0.00  0.00    +0.000 A 
ATOM      4  C   UNL     1       0.663   8.953  20.967  0.00  0.00    +0.000 A 
ATOM      5  C   UNL     1       1.145   9.209  19.691  0.00  0.00    +0.000 A 
ATOM      6  C   UNL     1       1.933   8.254  19.036  0.00  0.00    +0.000 A 
ATOM      7  C   UNL     1       2.320   8.777  17.689  0.00  0.00    +0.000 C 
ATOM      8  C   UNL     1       1.919  10.261  17.796  0.00  0.00    +0.000 C 
ATOM      9  N   UNL     1       0.963  10.364  18.906  0.00  0.00    +0.000 N 
ATOM     10  C   UNL     1       0.350  11.589  19.152  0.00  0.00    +0.000 A 
ATOM     11  C   UNL     1      -0.870  11.645  19.829  0.00  0.00    +0.000 A 
ATOM     12  C   UNL     1      -1.504  12.870  20.065  0.00  0.00    +0.000 A 
ATOM     13  C   UNL     1      -0.877  14.028  19.616  0.00  0.00    +0.000 A 
ATOM     14  C   UNL     1       0.326  13.902  18.944  0.00  0.00    +0.000 A 
ATOM     15  N   UNL     1       0.930  12.721  18.689  0.00  0.00    +0.000 NA
ENDROOT
BRANCH   1  17
ATOM     16  O   UNL     1       4.214   6.057  18.845  0.00  0.00    +0.000 OA
ATOM     17  C   UNL     1       2.995   5.989  18.902  0.00  0.00    +0.000 C 
ATOM     18  N   UNL     1       2.266   4.975  18.312  0.00  0.00    +0.000 N 
ATOM     19  H   UNL     1       1.274   5.121  18.168  0.00  0.00    +0.000 HD
BRANCH  18  20
ATOM     20  C   UNL     1       2.915   3.922  17.554  0.00  0.00    +0.000 C 
BRANCH  20  21
ATOM     21  C   UNL     1       2.673   2.532  18.141  0.00  0.00    +0.000 C 
BRANCH  21  22
ATOM     22  N   UNL     1       2.421   2.584  19.564  0.00  0.00    +0.000 N 
ATOM     23  C   UNL     1       1.200   2.645  20.172  0.00  0.00    +0.000 A 
ATOM     24  C   UNL     1       1.482   2.706  21.517  0.00  0.00    +0.000 A 
ATOM     25  N   UNL     1       2.837   2.677  21.732  0.00  0.00    +0.000 NA
ATOM     26  C   UNL     1       3.375   2.613  20.538  0.00  0.00    +0.000 A 
ENDBRANCH  21  22
ENDBRANCH  20  21
ENDBRANCH  18  20
ENDBRANCH   1  17
BRANCH  12  27
ATOM     27  C   UNL     1      -2.802  12.925  20.834  0.00  0.00    +0.000 C 
BRANCH  27  28
ATOM     28  C   UNL     1      -3.976  12.481  19.993  0.00  0.00    +0.000 A 
ATOM     29  C   UNL     1      -3.776  12.038  18.675  0.00  0.00    +0.000 A 
ATOM     30  C   UNL     1      -4.869  11.761  17.857  0.00  0.00    +0.000 A 
ATOM     31  F   UNL     1      -4.654  11.371  16.592  0.00  0.00    +0.000 F 
ATOM     32  C   UNL     1      -6.165  11.907  18.331  0.00  0.00    +0.000 A 
ATOM     33  F   UNL     1      -7.210  11.671  17.525  0.00  0.00    +0.000 F 
ATOM     34  C   UNL     1      -6.370  12.311  19.642  0.00  0.00    +0.000 A 
ATOM     35  F   UNL     1      -7.615  12.454  20.117  0.00  0.00    +0.000 F 
ATOM     36  C   UNL     1      -5.289  12.595  20.476  0.00  0.00    +0.000 A 
ENDBRANCH  27  28
ENDBRANCH  12  27
TORSDOF 6
ENDMDL
MODEL 3
REMARK VINA RESULT:      -8.8      3.029      4.960
REMARK  Name = 
REMARK  6 active torsions:
REMARK  status: ('A' for Active; 'I' for Inactive)
REMARK    1  A    between atoms: C_2  and  C_11
REMARK    2  A    between atoms: N_3  and  C_4
REMARK    3  A    between atoms: C_4  and  C_5
REMARK    4  A    between atoms: C_5  and  N_6
REMARK    5  A    between atoms: C_22  and  C_23
REMARK    6  A    between atoms: C_23  and  C_24
REMARK                            x       y       z     vdW  Elec       q    Type
REMARK                         _______ _______ _______ _____ _____    ______ ____
ROOT
ATOM      1  C   UNL     1       2.352   7.204  19.452  0.00  0.00    +0.000 A 
ATOM      2  C   UNL     1       2.655   7.502  18.114  0.00  0.00    +0.000 A 
ATOM      3  C   UNL     1       2.237   8.708  17.543  0.00  0.00    +0.000 A 
ATOM      4  C   UNL     1       1.508   9.628  18.297  0.00  0.00    +0.000 A 
ATOM      5  C   UNL     1       1.213   9.345  19.624  0.00  0.00    +0.000 A 
ATOM      6  C   UNL     1       1.609   8.124  20.183  0.00  0.00    +0.000 A 
ATOM      7  C   UNL     1       1.168   8.071  21.611  0.00  0.00    +0.000 C 
ATOM      8  C   UNL     1       0.206   9.273  21.691  0.00  0.00    +0.000 C 
ATOM      9  N   UNL     1       0.519  10.145  20.552  0.00  0.00    +0.000 N 
ATOM     10  C   UNL     1      -0.133  11.370  20.445  0.00  0.00    +0.000 A 
ATOM     11  C   UNL     1       0.436  12.411  19.711  0.00  0.00    +0.000 A 
ATOM     12  C   UNL     1      -0.203  13.653  19.613  0.00  0.00    +0.000 A 
ATOM     13  C   UNL     1      -1.424  13.813  20.259  0.00  0.00    +0.000 A 
ATOM     14  C   UNL     1      -1.928  12.744  20.978  0.00  0.00    +0.000 A 
ATOM     15  N   UNL     1      -1.305  11.551  21.098  0.00  0.00    +0.000 NA
ENDROOT
BRANCH   1  17
ATOM     16  O   UNL     1       3.919   5.473  19.826  0.00  0.00    +0.000 OA
ATOM     17  C   UNL     1       2.808   5.927  20.058  0.00  0.00    +0.000 C 
ATOM     18  N   UNL     1       1.892   5.301  20.880  0.00  0.00    +0.000 N 
ATOM     19  H   UNL     1       0.921   5.582  20.814  0.00  0.00    +0.000 HD
BRANCH  18  20
ATOM     20  C   UNL     1       2.191   4.030  21.511  0.00  0.00    +0.000 C 
BRANCH  20  21
ATOM     21  C   UNL     1       1.473   2.855  20.848  0.00  0.00    +0.000 C 
BRANCH  21  22
ATOM     22  N   UNL     1       2.055   2.522  19.566  0.00  0.00    +0.000 N 
ATOM     23  C   UNL     1       3.304   2.017  19.347  0.00  0.00    +0.000 A 
ATOM     24  C   UNL     1       3.397   1.900  17.979  0.00  0.00    +0.000 A 
ATOM     25  N   UNL     1       2.237   2.314  17.374  0.00  0.00    +0.000 NA
ATOM     26  C   UNL     1       1.452   2.692  18.354  0.00  0.00    +0.000 A 
ENDBRANCH  21  22
ENDBRANCH  20  21
ENDBRANCH  18  20
ENDBRANCH   1  17
BRANCH  12  27
ATOM     27  C   UNL     1       0.400  14.761  18.782  0.00  0.00    +0.000 C 
BRANCH  27  28
ATOM     28  C   UNL     1       1.868  14.958  19.084  0.00  0.00    +0.000 A 
ATOM     29  C   UNL     1       2.270  15.538  20.298  0.00  0.00    +0.000 A 
ATOM     30  C   UNL     1       3.612  15.845  20.516  0.00  0.00    +0.000 A 
ATOM     31  F   UNL     1       3.967  16.428  21.669  0.00  0.00    +0.000 F 
ATOM     32  C   UNL     1       4.568  15.574  19.548  0.00  0.00    +0.000 A 
ATOM     33  F   UNL     1       5.851  15.904  19.752  0.00  0.00    +0.000 F 
ATOM     34  C   UNL     1       4.182  14.970  18.359  0.00  0.00    +0.000 A 
ATOM     35  F   UNL     1       5.093  14.698  17.415  0.00  0.00    +0.000 F 
ATOM     36  C   UNL     1       2.845  14.656  18.121  0.00  0.00    +0.000 A 
ENDBRANCH  27  28
ENDBRANCH  12  27
TORSDOF 6
ENDMDL
MODEL 4
REMARK VINA RESULT:      -8.7      2.482      3.312
REMARK  Name = 
REMARK  6 active torsions:
REMARK  status: ('A' for Active; 'I' for Inactive)
REMARK    1  A    between atoms: C_2  and  C_11
REMARK    2  A    between atoms: N_3  and  C_4
REMARK    3  A    between atoms: C_4  and  C_5
REMARK    4  A    between atoms: C_5  and  N_6
REMARK    5  A    between atoms: C_22  and  C_23
REMARK    6  A    between atoms: C_23  and  C_24
REMARK                            x       y       z     vdW  Elec       q    Type
REMARK                         _______ _______ _______ _____ _____    ______ ____
ROOT
ATOM      1  C   UNL     1       2.212   6.945  19.509  0.00  0.00    +0.000 A 
ATOM      2  C   UNL     1       1.733   6.675  20.801  0.00  0.00    +0.000 A 
ATOM      3  C   UNL     1       0.988   7.632  21.497  0.00  0.00    +0.000 A 
ATOM      4  C   UNL     1       0.714   8.870  20.914  0.00  0.00    +0.000 A 
ATOM      5  C   UNL     1       1.175   9.141  19.634  0.00  0.00    +0.000 A 
ATOM      6  C   UNL     1       1.946   8.191  18.952  0.00  0.00    +0.000 A 
ATOM      7  C   UNL     1       2.313   8.729  17.606  0.00  0.00    +0.000 C 
ATOM      8  C   UNL     1       1.921  10.214  17.740  0.00  0.00    +0.000 C 
ATOM      9  N   UNL     1       0.985  10.307  18.867  0.00  0.00    +0.000 N 
ATOM     10  C   UNL     1       0.383  11.532  19.141  0.00  0.00    +0.000 A 
ATOM     11  C   UNL     1      -0.824  11.585  19.839  0.00  0.00    +0.000 A 
ATOM     12  C   UNL     1      -1.447  12.811  20.103  0.00  0.00    +0.000 A 
ATOM     13  C   UNL     1      -0.821  13.971  19.658  0.00  0.00    +0.000 A 
ATOM     14  C   UNL     1       0.368  13.848  18.964  0.00  0.00    +0.000 A 
ATOM     15  N   UNL     1       0.962  12.667  18.683  0.00  0.00    +0.000 NA
ENDROOT
BRANCH   1  17
ATOM     16  O   UNL     1       4.215   5.952  18.741  0.00  0.00    +0.000 OA
ATOM     17  C   UNL     1       2.993   5.922  18.769  0.00  0.00    +0.000 C 
ATOM     18  N   UNL     1       2.245   4.959  18.120  0.00  0.00    +0.000 N 
ATOM     19  H   UNL     1       1.262   5.145  17.962  0.00  0.00    +0.000 HD
BRANCH  18  20
ATOM     20  C   UNL     1       2.876   3.919  17.331  0.00  0.00    +0.000 C 
BRANCH  20  21
ATOM     21  C   UNL     1       2.890   2.564  18.036  0.00  0.00    +0.000 C 
BRANCH  21  22
ATOM     22  N   UNL     1       2.475   2.671  19.417  0.00  0.00    +0.000 N 
ATOM     23  C   UNL     1       3.288   2.650  20.514  0.00  0.00    +0.000 A 
ATOM     24  C   UNL     1       2.431   2.754  21.586  0.00  0.00    +0.000 A 
ATOM     25  N   UNL     1       1.130   2.844  21.162  0.00  0.00    +0.000 NA
ATOM     26  C   UNL     1       1.187   2.781  19.853  0.00  0.00    +0.000 A 
ENDBRANCH  21  22
ENDBRANCH  20  21
ENDBRANCH  18  20
ENDBRANCH   1  17
BRANCH  12  27
ATOM     27  C   UNL     1      -2.731  12.862  20.896  0.00  0.00    +0.000 C 
BRANCH  27  28
ATOM     28  C   UNL     1      -3.924  12.452  20.064  0.00  0.00    +0.000 A 
ATOM     29  C   UNL     1      -5.218  12.494  20.611  0.00  0.00    +0.000 A 
ATOM     30  C   UNL     1      -6.298  11.987  19.892  0.00  0.00    +0.000 A 
ATOM     31  F   UNL     1      -7.517  12.008  20.448  0.00  0.00    +0.000 F 
ATOM     32  C   UNL     1      -6.117  11.446  18.627  0.00  0.00    +0.000 A 
ATOM     33  F   UNL     1      -7.157  10.929  17.958  0.00  0.00    +0.000 F 
ATOM     34  C   UNL     1      -4.847  11.432  18.067  0.00  0.00    +0.000 A 
ATOM     35  F   UNL     1      -4.656  10.916  16.845  0.00  0.00    +0.000 F 
ATOM     36  C   UNL     1      -3.753  11.932  18.771  0.00  0.00    +0.000 A 
ENDBRANCH  27  28
ENDBRANCH  12  27
TORSDOF 6
ENDMDL
MODEL 5
REMARK VINA RESULT:      -8.7      2.973      4.885
REMARK  Name = 
REMARK  6 active torsions:
REMARK  status: ('A' for Active; 'I' for Inactive)
REMARK    1  A    between atoms: C_2  and  C_11
REMARK    2  A    between atoms: N_3  and  C_4
REMARK    3  A    between atoms: C_4  and  C_5
REMARK    4  A    between atoms: C_5  and  N_6
REMARK    5  A    between atoms: C_22  and  C_23
REMARK    6  A    between atoms: C_23  and  C_24
REMARK                            x       y       z     vdW  Elec       q    Type
REMARK                         _______ _______ _______ _____ _____    ______ ____
ROOT
ATOM      1  C   UNL     1       2.225   7.407  19.382  0.00  0.00    +0.000 A 
ATOM      2  C   UNL     1       2.436   7.703  18.026  0.00  0.00    +0.000 A 
ATOM      3  C   UNL     1       1.975   8.905  17.481  0.00  0.00    +0.000 A 
ATOM      4  C   UNL     1       1.294   9.825  18.280  0.00  0.00    +0.000 A 
ATOM      5  C   UNL     1       1.089   9.544  19.623  0.00  0.00    +0.000 A 
ATOM      6  C   UNL     1       1.527   8.326  20.158  0.00  0.00    +0.000 A 
ATOM      7  C   UNL     1       1.183   8.276  21.613  0.00  0.00    +0.000 C 
ATOM      8  C   UNL     1       0.223   9.473  21.754  0.00  0.00    +0.000 C 
ATOM      9  N   UNL     1       0.455  10.343  20.594  0.00  0.00    +0.000 N 
ATOM     10  C   UNL     1      -0.209  11.565  20.528  0.00  0.00    +0.000 A 
ATOM     11  C   UNL     1       0.305  12.607  19.754  0.00  0.00    +0.000 A 
ATOM     12  C   UNL     1      -0.344  13.845  19.696  0.00  0.00    +0.000 A 
ATOM     13  C   UNL     1      -1.521  14.001  20.422  0.00  0.00    +0.000 A 
ATOM     14  C   UNL     1      -1.971  12.932  21.175  0.00  0.00    +0.000 A 
ATOM     15  N   UNL     1      -1.335  11.743  21.257  0.00  0.00    +0.000 NA
ENDROOT
BRANCH   1  17
ATOM     16  O   UNL     1       3.821   5.685  19.655  0.00  0.00    +0.000 OA
ATOM     17  C   UNL     1       2.726   6.135  19.960  0.00  0.00    +0.000 C 
ATOM     18  N   UNL     1       1.869   5.507  20.843  0.00  0.00    +0.000 N 
ATOM     19  H   UNL     1       0.895   5.783  20.841  0.00  0.00    +0.000 HD
BRANCH  18  20
ATOM     20  C   UNL     1       2.216   4.239  21.456  0.00  0.00    +0.000 C 
BRANCH  20  21
ATOM     21  C   UNL     1       1.472   3.057  20.835  0.00  0.00    +0.000 C 
BRANCH  21  22
ATOM     22  N   UNL     1       2.064   2.646  19.582  0.00  0.00    +0.000 N 
ATOM     23  C   UNL     1       3.321   2.145  19.401  0.00  0.00    +0.000 A 
ATOM     24  C   UNL     1       3.422   1.935  18.045  0.00  0.00    +0.000 A 
ATOM     25  N   UNL     1       2.259   2.290  17.410  0.00  0.00    +0.000 NA
ATOM     26  C   UNL     1       1.464   2.723  18.358  0.00  0.00    +0.000 A 
ENDBRANCH  21  22
ENDBRANCH  20  21
ENDBRANCH  18  20
ENDBRANCH   1  17
BRANCH  12  27
ATOM     27  C   UNL     1       0.197  14.953  18.824  0.00  0.00    +0.000 C 
BRANCH  27  28
ATOM     28  C   UNL     1       1.656  15.229  19.101  0.00  0.00    +0.000 A 
ATOM     29  C   UNL     1       2.626  14.969  18.119  0.00  0.00    +0.000 A 
ATOM     30  C   UNL     1       3.980  15.093  18.423  0.00  0.00    +0.000 A 
ATOM     31  F   UNL     1       4.888  14.809  17.478  0.00  0.00    +0.000 F 
ATOM     32  C   UNL     1       4.390  15.482  19.690  0.00  0.00    +0.000 A 
ATOM     33  F   UNL     1       5.696  15.565  19.982  0.00  0.00    +0.000 F 
ATOM     34  C   UNL     1       3.437  15.773  20.656  0.00  0.00    +0.000 A 
ATOM     35  F   UNL     1       3.816  16.153  21.883  0.00  0.00    +0.000 F 
ATOM     36  C   UNL     1       2.077  15.653  20.372  0.00  0.00    +0.000 A 
ENDBRANCH  27  28
ENDBRANCH  12  27
TORSDOF 6
ENDMDL
MODEL 6
REMARK VINA RESULT:      -8.6      3.005      4.300
REMARK  Name = 
REMARK  6 active torsions:
REMARK  status: ('A' for Active; 'I' for Inactive)
REMARK    1  A    between atoms: C_2  and  C_11
REMARK    2  A    between atoms: N_3  and  C_4
REMARK    3  A    between atoms: C_4  and  C_5
REMARK    4  A    between atoms: C_5  and  N_6
REMARK    5  A    between atoms: C_22  and  C_23
REMARK    6  A    between atoms: C_23  and  C_24
REMARK                            x       y       z     vdW  Elec       q    Type
REMARK                         _______ _______ _______ _____ _____    ______ ____
ROOT
ATOM      1  C   UNL     1       2.053   7.182  19.771  0.00  0.00    +0.000 A 
ATOM      2  C   UNL     1       1.549   6.995  21.067  0.00  0.00    +0.000 A 
ATOM      3  C   UNL     1       0.816   8.006  21.698  0.00  0.00    +0.000 A 
ATOM      4  C   UNL     1       0.581   9.216  21.044  0.00  0.00    +0.000 A 
ATOM      5  C   UNL     1       1.068   9.405  19.758  0.00  0.00    +0.000 A 
ATOM      6  C   UNL     1       1.826   8.402  19.142  0.00  0.00    +0.000 A 
ATOM      7  C   UNL     1       2.225   8.857  17.774  0.00  0.00    +0.000 C 
ATOM      8  C   UNL     1       1.868  10.355  17.821  0.00  0.00    +0.000 C 
ATOM      9  N   UNL     1       0.918  10.532  18.926  0.00  0.00    +0.000 N 
ATOM     10  C   UNL     1       0.341  11.783  19.122  0.00  0.00    +0.000 A 
ATOM     11  C   UNL     1      -0.875  11.903  19.798  0.00  0.00    +0.000 A 
ATOM     12  C   UNL     1      -1.472  13.155  19.984  0.00  0.00    +0.000 A 
ATOM     13  C   UNL     1      -0.812  14.275  19.486  0.00  0.00    +0.000 A 
ATOM     14  C   UNL     1       0.384  14.086  18.819  0.00  0.00    +0.000 A 
ATOM     15  N   UNL     1       0.953  12.878  18.613  0.00  0.00    +0.000 NA
ENDROOT
BRANCH   1  17
ATOM     16  O   UNL     1       2.467   5.644  18.024  0.00  0.00    +0.000 OA
ATOM     17  C   UNL     1       2.821   6.102  19.100  0.00  0.00    +0.000 C 
ATOM     18  N   UNL     1       3.938   5.659  19.781  0.00  0.00    +0.000 N 
ATOM     19  H   UNL     1       4.018   5.884  20.766  0.00  0.00    +0.000 HD
BRANCH  18  20
ATOM     20  C   UNL     1       4.762   4.585  19.260  0.00  0.00    +0.000 C 
BRANCH  20  21
ATOM     21  C   UNL     1       6.089   5.080  18.686  0.00  0.00    +0.000 C 
BRANCH  21  22
ATOM     22  N   UNL     1       6.198   4.809  17.270  0.00  0.00    +0.000 N 
ATOM     23  C   UNL     1       7.162   5.277  16.424  0.00  0.00    +0.000 A 
ATOM     24  C   UNL     1       6.820   4.772  15.191  0.00  0.00    +0.000 A 
ATOM     25  N   UNL     1       5.682   4.011  15.275  0.00  0.00    +0.000 NA
ATOM     26  C   UNL     1       5.325   4.060  16.536  0.00  0.00    +0.000 A 
ENDBRANCH  21  22
ENDBRANCH  20  21
ENDBRANCH  18  20
ENDBRANCH   1  17
BRANCH  12  27
ATOM     27  C   UNL     1      -2.766  13.279  20.751  0.00  0.00    +0.000 C 
BRANCH  27  28
ATOM     28  C   UNL     1      -3.894  12.527  20.083  0.00  0.00    +0.000 A 
ATOM     29  C   UNL     1      -3.727  12.000  18.792  0.00  0.00    +0.000 A 
ATOM     30  C   UNL     1      -4.808  11.429  18.124  0.00  0.00    +0.000 A 
ATOM     31  F   UNL     1      -4.632  10.963  16.880  0.00  0.00    +0.000 F 
ATOM     32  C   UNL     1      -6.057  11.361  18.725  0.00  0.00    +0.000 A 
ATOM     33  F   UNL     1      -7.099  10.840  18.061  0.00  0.00    +0.000 F 
ATOM     34  C   UNL     1      -6.221  11.848  20.014  0.00  0.00    +0.000 A 
ATOM     35  F   UNL     1      -7.420  11.787  20.610  0.00  0.00    +0.000 F 
ATOM     36  C   UNL     1      -5.152  12.425  20.698  0.00  0.00    +0.000 A 
ENDBRANCH  27  28
ENDBRANCH  12  27
TORSDOF 6
ENDMDL
MODEL 7
REMARK VINA RESULT:      -8.6      2.575      3.479
REMARK  Name = 
REMARK  6 active torsions:
REMARK  status: ('A' for Active; 'I' for Inactive)
REMARK    1  A    between atoms: C_2  and  C_11
REMARK    2  A    between atoms: N_3  and  C_4
REMARK    3  A    between atoms: C_4  and  C_5
REMARK    4  A    between atoms: C_5  and  N_6
REMARK    5  A    between atoms: C_22  and  C_23
REMARK    6  A    between atoms: C_23  and  C_24
REMARK                            x       y       z     vdW  Elec       q    Type
REMARK                         _______ _______ _______ _____ _____    ______ ____
ROOT
ATOM      1  C   UNL     1       2.128   7.132  19.667  0.00  0.00    +0.000 A 
ATOM      2  C   UNL     1       1.627   6.903  20.958  0.00  0.00    +0.000 A 
ATOM      3  C   UNL     1       0.885   7.888  21.618  0.00  0.00    +0.000 A 
ATOM      4  C   UNL     1       0.637   9.114  21.000  0.00  0.00    +0.000 A 
ATOM      5  C   UNL     1       1.121   9.345  19.720  0.00  0.00    +0.000 A 
ATOM      6  C   UNL     1       1.888   8.367  19.075  0.00  0.00    +0.000 A 
ATOM      7  C   UNL     1       2.282   8.865  17.720  0.00  0.00    +0.000 C 
ATOM      8  C   UNL     1       1.910  10.358  17.810  0.00  0.00    +0.000 C 
ATOM      9  N   UNL     1       0.959  10.493  18.920  0.00  0.00    +0.000 N 
ATOM     10  C   UNL     1       0.371  11.733  19.153  0.00  0.00    +0.000 A 
ATOM     11  C   UNL     1      -0.845  11.822  19.832  0.00  0.00    +0.000 A 
ATOM     12  C   UNL     1      -1.455  13.062  20.055  0.00  0.00    +0.000 A 
ATOM     13  C   UNL     1      -0.807  14.202  19.590  0.00  0.00    +0.000 A 
ATOM     14  C   UNL     1       0.391  14.044  18.916  0.00  0.00    +0.000 A 
ATOM     15  N   UNL     1       0.972  12.848  18.675  0.00  0.00    +0.000 NA
ENDROOT
BRANCH   1  17
ATOM     16  O   UNL     1       2.596   5.699  17.847  0.00  0.00    +0.000 OA
ATOM     17  C   UNL     1       2.906   6.080  18.966  0.00  0.00    +0.000 C 
ATOM     18  N   UNL     1       3.979   5.568  19.669  0.00  0.00    +0.000 N 
ATOM     19  H   UNL     1       4.015   5.728  20.669  0.00  0.00    +0.000 HD
BRANCH  18  20
ATOM     20  C   UNL     1       4.805   4.510  19.119  0.00  0.00    +0.000 C 
BRANCH  20  21
ATOM     21  C   UNL     1       4.542   3.153  19.769  0.00  0.00    +0.000 C 
BRANCH  21  22
ATOM     22  N   UNL     1       3.140   2.963  20.071  0.00  0.00    +0.000 N 
ATOM     23  C   UNL     1       2.537   3.152  21.280  0.00  0.00    +0.000 A 
ATOM     24  C   UNL     1       1.219   2.818  21.069  0.00  0.00    +0.000 A 
ATOM     25  N   UNL     1       1.015   2.441  19.765  0.00  0.00    +0.000 NA
ATOM     26  C   UNL     1       2.191   2.529  19.192  0.00  0.00    +0.000 A 
ENDBRANCH  21  22
ENDBRANCH  20  21
ENDBRANCH  18  20
ENDBRANCH   1  17
BRANCH  12  27
ATOM     27  C   UNL     1      -2.750  13.151  20.827  0.00  0.00    +0.000 C 
BRANCH  27  28
ATOM     28  C   UNL     1      -3.892  12.489  20.092  0.00  0.00    +0.000 A 
ATOM     29  C   UNL     1      -3.702  11.982  18.796  0.00  0.00    +0.000 A 
ATOM     30  C   UNL     1      -4.787  11.497  18.068  0.00  0.00    +0.000 A 
ATOM     31  F   UNL     1      -4.586  11.049  16.821  0.00  0.00    +0.000 F 
ATOM     32  C   UNL     1      -6.063  11.497  18.613  0.00  0.00    +0.000 A 
ATOM     33  F   UNL     1      -7.106  11.061  17.892  0.00  0.00    +0.000 F 
ATOM     34  C   UNL     1      -6.253  11.965  19.905  0.00  0.00    +0.000 A 
ATOM     35  F   UNL     1      -7.478  11.968  20.448  0.00  0.00    +0.000 F 
ATOM     36  C   UNL     1      -5.180  12.456  20.649  0.00  0.00    +0.000 A 
ENDBRANCH  27  28
ENDBRANCH  12  27
TORSDOF 6
ENDMDL
MODEL 8
REMARK VINA RESULT:      -8.6      3.271      4.424
REMARK  Name = 
REMARK  6 active torsions:
REMARK  status: ('A' for Active; 'I' for Inactive)
REMARK    1  A    between atoms: C_2  and  C_11
REMARK    2  A    between atoms: N_3  and  C_4
REMARK    3  A    between atoms: C_4  and  C_5
REMARK    4  A    between atoms: C_5  and  N_6
REMARK    5  A    between atoms: C_22  and  C_23
REMARK    6  A    between atoms: C_23  and  C_24
REMARK                            x       y       z     vdW  Elec       q    Type
REMARK                         _______ _______ _______ _____ _____    ______ ____
ROOT
ATOM      1  C   UNL     1       2.299   6.650  19.527  0.00  0.00    +0.000 A 
ATOM      2  C   UNL     1       1.785   6.409  20.811  0.00  0.00    +0.000 A 
ATOM      3  C   UNL     1       1.057   7.396  21.482  0.00  0.00    +0.000 A 
ATOM      4  C   UNL     1       0.835   8.636  20.882  0.00  0.00    +0.000 A 
ATOM      5  C   UNL     1       1.331   8.879  19.609  0.00  0.00    +0.000 A 
ATOM      6  C   UNL     1       2.085   7.898  18.953  0.00  0.00    +0.000 A 
ATOM      7  C   UNL     1       2.497   8.411  17.610  0.00  0.00    +0.000 C 
ATOM      8  C   UNL     1       2.151   9.909  17.721  0.00  0.00    +0.000 C 
ATOM      9  N   UNL     1       1.196  10.043  18.828  0.00  0.00    +0.000 N 
ATOM     10  C   UNL     1       0.628  11.289  19.077  0.00  0.00    +0.000 A 
ATOM     11  C   UNL     1      -0.591  11.389  19.749  0.00  0.00    +0.000 A 
ATOM     12  C   UNL     1      -1.179  12.636  19.988  0.00  0.00    +0.000 A 
ATOM     13  C   UNL     1      -0.507  13.771  19.546  0.00  0.00    +0.000 A 
ATOM     14  C   UNL     1       0.692  13.602  18.877  0.00  0.00    +0.000 A 
ATOM     15  N   UNL     1       1.252  12.400  18.620  0.00  0.00    +0.000 NA
ENDROOT
BRANCH   1  17
ATOM     16  O   UNL     1       2.567   4.965  17.891  0.00  0.00    +0.000 OA
ATOM     17  C   UNL     1       3.062   5.595  18.814  0.00  0.00    +0.000 C 
ATOM     18  N   UNL     1       4.346   5.378  19.274  0.00  0.00    +0.000 N 
ATOM     19  H   UNL     1       4.591   5.733  20.191  0.00  0.00    +0.000 HD
BRANCH  18  20
ATOM     20  C   UNL     1       5.193   4.354  18.692  0.00  0.00    +0.000 C 
BRANCH  20  21
ATOM     21  C   UNL     1       5.944   4.839  17.453  0.00  0.00    +0.000 C 
BRANCH  21  22
ATOM     22  N   UNL     1       6.750   6.006  17.733  0.00  0.00    +0.000 N 
ATOM     23  C   UNL     1       6.671   7.218  17.110  0.00  0.00    +0.000 A 
ATOM     24  C   UNL     1       7.651   7.980  17.702  0.00  0.00    +0.000 A 
ATOM     25  N   UNL     1       8.311   7.261  18.666  0.00  0.00    +0.000 NA
ATOM     26  C   UNL     1       7.753   6.074  18.655  0.00  0.00    +0.000 A 
ENDBRANCH  21  22
ENDBRANCH  20  21
ENDBRANCH  18  20
ENDBRANCH   1  17
BRANCH  12  27
ATOM     27  C   UNL     1      -2.477  12.737  20.753  0.00  0.00    +0.000 C 
BRANCH  27  28
ATOM     28  C   UNL     1      -3.676  12.494  19.865  0.00  0.00    +0.000 A 
ATOM     29  C   UNL     1      -4.964  12.843  20.303  0.00  0.00    +0.000 A 
ATOM     30  C   UNL     1      -6.079  12.494  19.544  0.00  0.00    +0.000 A 
ATOM     31  F   UNL     1      -7.300  12.809  19.998  0.00  0.00    +0.000 F 
ATOM     32  C   UNL     1      -5.935  11.810  18.345  0.00  0.00    +0.000 A 
ATOM     33  F   UNL     1      -7.016  11.448  17.639  0.00  0.00    +0.000 F 
ATOM     34  C   UNL     1      -4.664  11.492  17.890  0.00  0.00    +0.000 A 
ATOM     35  F   UNL     1      -4.507  10.835  16.733  0.00  0.00    +0.000 F 
ATOM     36  C   UNL     1      -3.535  11.831  18.636  0.00  0.00    +0.000 A 
ENDBRANCH  27  28
ENDBRANCH  12  27
TORSDOF 6
ENDMDL
MODEL 9
REMARK VINA RESULT:      -8.6      2.722      4.364
REMARK  Name = 
REMARK  6 active torsions:
REMARK  status: ('A' for Active; 'I' for Inactive)
REMARK    1  A    between atoms: C_2  and  C_11
REMARK    2  A    between atoms: N_3  and  C_4
REMARK    3  A    between atoms: C_4  and  C_5
REMARK    4  A    between atoms: C_5  and  N_6
REMARK    5  A    between atoms: C_22  and  C_23
REMARK    6  A    between atoms: C_23  and  C_24
REMARK                            x       y       z     vdW  Elec       q    Type
REMARK                         _______ _______ _______ _____ _____    ______ ____
ROOT
ATOM      1  C   UNL     1       0.149  10.719  19.019  0.00  0.00    +0.000 A 
ATOM      2  C   UNL     1       0.341  11.529  20.149  0.00  0.00    +0.000 A 
ATOM      3  C   UNL     1      -0.713  12.287  20.667  0.00  0.00    +0.000 A 
ATOM      4  C   UNL     1      -1.970  12.250  20.063  0.00  0.00    +0.000 A 
ATOM      5  C   UNL     1      -2.171  11.445  18.950  0.00  0.00    +0.000 A 
ATOM      6  C   UNL     1      -1.105  10.710  18.417  0.00  0.00    +0.000 A 
ATOM      7  C   UNL     1      -1.586   9.935  17.231  0.00  0.00    +0.000 C 
ATOM      8  C   UNL     1      -2.968  10.569  16.977  0.00  0.00    +0.000 C 
ATOM      9  N   UNL     1      -3.358  11.250  18.218  0.00  0.00    +0.000 N 
ATOM     10  C   UNL     1      -4.626  11.818  18.302  0.00  0.00    +0.000 A 
ATOM     11  C   UNL     1      -5.222  12.035  19.545  0.00  0.00    +0.000 A 
ATOM     12  C   UNL     1      -6.504  12.588  19.640  0.00  0.00    +0.000 A 
ATOM     13  C   UNL     1      -7.159  12.926  18.459  0.00  0.00    +0.000 A 
ATOM     14  C   UNL     1      -6.516  12.677  17.260  0.00  0.00    +0.000 A 
ATOM     15  N   UNL     1      -5.290  12.118  17.161  0.00  0.00    +0.000 NA
ENDROOT
BRANCH   1  17
ATOM     16  O   UNL     1       1.976  10.320  17.572  0.00  0.00    +0.000 OA
ATOM     17  C   UNL     1       1.268   9.906  18.478  0.00  0.00    +0.000 C 
ATOM     18  N   UNL     1       1.435   8.665  19.062  0.00  0.00    +0.000 N 
ATOM     19  H   UNL     1       0.667   8.284  19.602  0.00  0.00    +0.000 HD
BRANCH  18  20
ATOM     20  C   UNL     1       2.467   7.752  18.609  0.00  0.00    +0.000 C 
BRANCH  20  21
ATOM     21  C   UNL     1       2.472   6.433  19.380  0.00  0.00    +0.000 C 
BRANCH  21  22
ATOM     22  N   UNL     1       2.664   5.298  18.505  0.00  0.00    +0.000 N 
ATOM     23  C   UNL     1       1.769   4.295  18.265  0.00  0.00    +0.000 A 
ATOM     24  C   UNL     1       2.418   3.448  17.397  0.00  0.00    +0.000 A 
ATOM     25  N   UNL     1       3.673   3.918  17.105  0.00  0.00    +0.000 NA
ATOM     26  C   UNL     1       3.796   5.027  17.793  0.00  0.00    +0.000 A 
ENDBRANCH  21  22
ENDBRANCH  20  21
ENDBRANCH  18  20
ENDBRANCH   1  17
BRANCH  12  27
ATOM     27  C   UNL     1      -7.125  12.857  20.990  0.00  0.00    +0.000 C 
BRANCH  27  28
ATOM     28  C   UNL     1      -6.102  13.328  21.998  0.00  0.00    +0.000 A 
ATOM     29  C   UNL     1      -5.301  14.449  21.724  0.00  0.00    +0.000 A 
ATOM     30  C   UNL     1      -4.267  14.798  22.591  0.00  0.00    +0.000 A 
ATOM     31  F   UNL     1      -3.496  15.853  22.291  0.00  0.00    +0.000 F 
ATOM     32  C   UNL     1      -4.021  14.056  23.736  0.00  0.00    +0.000 A 
ATOM     33  F   UNL     1      -3.002  14.380  24.546  0.00  0.00    +0.000 F 
ATOM     34  C   UNL     1      -4.830  12.967  24.031  0.00  0.00    +0.000 A 
ATOM     35  F   UNL     1      -4.607  12.242  25.135  0.00  0.00    +0.000 F 
ATOM     36  C   UNL     1      -5.868  12.600  23.176  0.00  0.00    +0.000 A 
ENDBRANCH  27  28
ENDBRANCH  12  27
TORSDOF 6
ENDMDL
