MODEL 1
REMARK VINA RESULT:      -9.7      0.000      0.000
REMARK  Name = 
REMARK  8 active torsions:
REMARK  status: ('A' for Active; 'I' for Inactive)
REMARK    1  A    between atoms: C_2  and  C_3
REMARK    2  A    between atoms: C_2  and  C_30
REMARK    3  A    between atoms: C_4  and  C_5
REMARK    4  A    between atoms: N_7  and  C_8
REMARK    5  A    between atoms: C_15  and  C_16
REMARK    6  A    between atoms: C_19  and  O_20
REMARK    7  A    between atoms: O_20  and  C_21
REMARK    8  A    between atoms: C_21  and  C_22
REMARK                            x       y       z     vdW  Elec       q    Type
REMARK                         _______ _______ _______ _____ _____    ______ ____
ROOT
ATOM      1  C   UNL     1       5.422   4.278  16.749  0.00  0.00    +0.000 A 
ATOM      2  C   UNL     1       4.355   3.483  17.087  0.00  0.00    +0.000 A 
ATOM      3  N   UNL     1       3.856   3.966  18.275  0.00  0.00    +0.000 N 
ATOM      4  N   UNL     1       4.573   5.028  18.721  0.00  0.00    +0.000 NA
ATOM      5  C   UNL     1       5.552   5.204  17.821  0.00  0.00    +0.000 A 
ENDROOT
BRANCH   3   6
ATOM      6  C   UNL     1       2.728   3.487  18.997  0.00  0.00    +0.000 A 
ATOM      7  C   UNL     1       2.775   3.328  20.389  0.00  0.00    +0.000 A 
ATOM      8  C   UNL     1       1.659   2.838  21.075  0.00  0.00    +0.000 A 
ATOM      9  C   UNL     1       0.501   2.502  20.378  0.00  0.00    +0.000 A 
ATOM     10  C   UNL     1       0.446   2.664  18.995  0.00  0.00    +0.000 A 
ATOM     11  C   UNL     1       1.553   3.159  18.304  0.00  0.00    +0.000 A 
ENDBRANCH   3   6
BRANCH   5  12
ATOM     12  C   UNL     1       6.578   6.228  18.005  0.00  0.00    +0.000 A 
ATOM     13  C   UNL     1       6.520   7.413  17.263  0.00  0.00    +0.000 A 
ATOM     14  C   UNL     1       7.432   8.440  17.488  0.00  0.00    +0.000 A 
ATOM     15  C   UNL     1       8.415   8.297  18.467  0.00  0.00    +0.000 A 
ATOM     16  C   UNL     1       8.536   7.087  19.152  0.00  0.00    +0.000 A 
ATOM     17  C   UNL     1       7.619   6.055  18.925  0.00  0.00    +0.000 A 
BRANCH  15  18
ATOM     18  O   UNL     1       9.293   9.285  18.823  0.00  0.00    +0.000 OA
BRANCH  18  19
ATOM     19  C   UNL     1       8.943  10.584  18.335  0.00  0.00    +0.000 C 
BRANCH  19  20
ATOM     20  C   UNL     1      10.128  11.503  18.465  0.00  0.00    +0.000 A 
ATOM     21  C   UNL     1      10.786  11.643  19.693  0.00  0.00    +0.000 A 
ATOM     22  C   UNL     1      11.884  12.493  19.808  0.00  0.00    +0.000 A 
ATOM     23  C   UNL     1      12.333  13.209  18.698  0.00  0.00    +0.000 A 
ATOM     24  C   UNL     1      11.688  13.073  17.471  0.00  0.00    +0.000 A 
ATOM     25  C   UNL     1      10.589  12.223  17.354  0.00  0.00    +0.000 A 
ENDBRANCH  19  20
ENDBRANCH  18  19
ENDBRANCH  15  18
ENDBRANCH   5  12
BRANCH   1  27
ATOM     26  C   UNL     1       6.056   5.001  14.497  0.00  0.00    +0.000 C 
ATOM     27  C   UNL     1       6.186   4.180  15.548  0.00  0.00    +0.000 C 
BRANCH  26  29
ATOM     28  O   UNL     1       7.848   5.580  13.049  0.00  0.00    +0.000 OA
ATOM     29  C   UNL     1       6.914   4.825  13.298  0.00  0.00    +0.000 C 
BRANCH  29  30
ATOM     30  C   UNL     1       6.608   3.662  12.429  0.00  0.00    +0.000 A 
ATOM     31  C   UNL     1       7.666   2.938  11.869  0.00  0.00    +0.000 A 
ATOM     32  C   UNL     1       7.401   1.842  11.047  0.00  0.00    +0.000 A 
ATOM     33  C   UNL     1       6.084   1.475  10.773  0.00  0.00    +0.000 A 
ATOM     34  C   UNL     1       5.025   2.203  11.315  0.00  0.00    +0.000 A 
ATOM     35  C   UNL     1       5.285   3.298  12.137  0.00  0.00    +0.000 A 
ENDBRANCH  29  30
ENDBRANCH  26  29
ENDBRANCH   1  27
TORSDOF 8
ENDMDL
MODEL 2
REMARK VINA RESULT:      -9.0      0.882      1.356
REMARK  Name = 
REMARK  8 active torsions:
REMARK  status: ('A' for Active; 'I' for Inactive)
REMARK    1  A    between atoms: C_2  and  C_3
REMARK    2  A    between atoms: C_2  and  C_30
REMARK    3  A    between atoms: C_4  and  C_5
REMARK    4  A    between atoms: N_7  and  C_8
REMARK    5  A    between atoms: C_15  and  C_16
REMARK    6  A    between atoms: C_19  and  O_20
REMARK    7  A    between atoms: O_20  and  C_21
REMARK    8  A    between atoms: C_21  and  C_22
REMARK                            x       y       z     vdW  Elec       q    Type
REMARK                         _______ _______ _______ _____ _____    ______ ____
ROOT
ATOM      1  C   UNL     1       5.059   4.954  16.648  0.00  0.00    +0.000 A 
ATOM      2  C   UNL     1       4.113   4.081  17.127  0.00  0.00    +0.000 A 
ATOM      3  N   UNL     1       3.906   4.402  18.448  0.00  0.00    +0.000 N 
ATOM      4  N   UNL     1       4.695   5.433  18.840  0.00  0.00    +0.000 NA
ATOM      5  C   UNL     1       5.429   5.754  17.765  0.00  0.00    +0.000 A 
ENDROOT
BRANCH   3   6
ATOM      6  C   UNL     1       2.988   3.796  19.351  0.00  0.00    +0.000 A 
ATOM      7  C   UNL     1       1.612   3.783  19.084  0.00  0.00    +0.000 A 
ATOM      8  C   UNL     1       0.728   3.199  19.996  0.00  0.00    +0.000 A 
ATOM      9  C   UNL     1       1.211   2.630  21.172  0.00  0.00    +0.000 A 
ATOM     10  C   UNL     1       2.578   2.634  21.441  0.00  0.00    +0.000 A 
ATOM     11  C   UNL     1       3.467   3.210  20.532  0.00  0.00    +0.000 A 
ENDBRANCH   3   6
BRANCH   5  12
ATOM     12  C   UNL     1       6.457   6.790  17.827  0.00  0.00    +0.000 A 
ATOM     13  C   UNL     1       6.252   8.014  17.178  0.00  0.00    +0.000 A 
ATOM     14  C   UNL     1       7.174   9.048  17.302  0.00  0.00    +0.000 A 
ATOM     15  C   UNL     1       8.316   8.875  18.083  0.00  0.00    +0.000 A 
ATOM     16  C   UNL     1       8.573   7.631  18.663  0.00  0.00    +0.000 A 
ATOM     17  C   UNL     1       7.646   6.592  18.538  0.00  0.00    +0.000 A 
BRANCH  15  18
ATOM     18  O   UNL     1       9.228   9.862  18.339  0.00  0.00    +0.000 OA
BRANCH  18  19
ATOM     19  C   UNL     1       9.318  10.236  19.718  0.00  0.00    +0.000 C 
BRANCH  19  20
ATOM     20  C   UNL     1      10.075  11.530  19.838  0.00  0.00    +0.000 A 
ATOM     21  C   UNL     1      11.412  11.611  19.429  0.00  0.00    +0.000 A 
ATOM     22  C   UNL     1      12.109  12.813  19.540  0.00  0.00    +0.000 A 
ATOM     23  C   UNL     1      11.476  13.943  20.058  0.00  0.00    +0.000 A 
ATOM     24  C   UNL     1      10.144  13.874  20.463  0.00  0.00    +0.000 A 
ATOM     25  C   UNL     1       9.445  12.673  20.353  0.00  0.00    +0.000 A 
ENDBRANCH  19  20
ENDBRANCH  18  19
ENDBRANCH  15  18
ENDBRANCH   5  12
BRANCH   1  27
ATOM     26  C   UNL     1       6.676   4.521  14.861  0.00  0.00    +0.000 C 
ATOM     27  C   UNL     1       5.516   5.028  15.298  0.00  0.00    +0.000 C 
BRANCH  26  29
ATOM     28  O   UNL     1       7.784   5.528  13.017  0.00  0.00    +0.000 OA
ATOM     29  C   UNL     1       7.052   4.635  13.429  0.00  0.00    +0.000 C 
BRANCH  29  30
ATOM     30  C   UNL     1       6.527   3.586  12.520  0.00  0.00    +0.000 A 
ATOM     31  C   UNL     1       7.427   2.708  11.907  0.00  0.00    +0.000 A 
ATOM     32  C   UNL     1       6.955   1.715  11.047  0.00  0.00    +0.000 A 
ATOM     33  C   UNL     1       5.588   1.605  10.789  0.00  0.00    +0.000 A 
ATOM     34  C   UNL     1       4.688   2.488  11.384  0.00  0.00    +0.000 A 
ATOM     35  C   UNL     1       5.155   3.481  12.244  0.00  0.00    +0.000 A 
ENDBRANCH  29  30
ENDBRANCH  26  29
ENDBRANCH   1  27
TORSDOF 8
ENDMDL
MODEL 3
REMARK VINA RESULT:      -9.0      0.486      1.249
REMARK  Name = 
REMARK  8 active torsions:
REMARK  status: ('A' for Active; 'I' for Inactive)
REMARK    1  A    between atoms: C_2  and  C_3
REMARK    2  A    between atoms: C_2  and  C_30
REMARK    3  A    between atoms: C_4  and  C_5
REMARK    4  A    between atoms: N_7  and  C_8
REMARK    5  A    between atoms: C_15  and  C_16
REMARK    6  A    between atoms: C_19  and  O_20
REMARK    7  A    between atoms: O_20  and  C_21
REMARK    8  A    between atoms: C_21  and  C_22
REMARK                            x       y       z     vdW  Elec       q    Type
REMARK                         _______ _______ _______ _____ _____    ______ ____
ROOT
ATOM      1  C   UNL     1       5.412   4.464  16.740  0.00  0.00    +0.000 A 
ATOM      2  C   UNL     1       4.384   3.621  17.082  0.00  0.00    +0.000 A 
ATOM      3  N   UNL     1       3.797   4.144  18.211  0.00  0.00    +0.000 N 
ATOM      4  N   UNL     1       4.420   5.278  18.617  0.00  0.00    +0.000 NA
ATOM      5  C   UNL     1       5.429   5.463  17.752  0.00  0.00    +0.000 A 
ENDROOT
BRANCH   3   6
ATOM      6  C   UNL     1       2.668   3.637  18.912  0.00  0.00    +0.000 A 
ATOM      7  C   UNL     1       2.540   3.807  20.298  0.00  0.00    +0.000 A 
ATOM      8  C   UNL     1       1.431   3.283  20.968  0.00  0.00    +0.000 A 
ATOM      9  C   UNL     1       0.452   2.587  20.262  0.00  0.00    +0.000 A 
ATOM     10  C   UNL     1       0.569   2.419  18.884  0.00  0.00    +0.000 A 
ATOM     11  C   UNL     1       1.671   2.945  18.208  0.00  0.00    +0.000 A 
ENDBRANCH   3   6
BRANCH   5  12
ATOM     12  C   UNL     1       6.376   6.564  17.913  0.00  0.00    +0.000 A 
ATOM     13  C   UNL     1       7.530   6.382  18.684  0.00  0.00    +0.000 A 
ATOM     14  C   UNL     1       8.491   7.384  18.775  0.00  0.00    +0.000 A 
ATOM     15  C   UNL     1       8.313   8.585  18.089  0.00  0.00    +0.000 A 
ATOM     16  C   UNL     1       7.127   8.810  17.389  0.00  0.00    +0.000 A 
ATOM     17  C   UNL     1       6.161   7.802  17.298  0.00  0.00    +0.000 A 
BRANCH  15  18
ATOM     18  O   UNL     1       9.244   9.588  18.042  0.00  0.00    +0.000 OA
BRANCH  18  19
ATOM     19  C   UNL     1       9.516  10.196  19.309  0.00  0.00    +0.000 C 
BRANCH  19  20
ATOM     20  C   UNL     1      10.248  11.492  19.095  0.00  0.00    +0.000 A 
ATOM     21  C   UNL     1      10.970  12.080  20.141  0.00  0.00    +0.000 A 
ATOM     22  C   UNL     1      11.650  13.281  19.937  0.00  0.00    +0.000 A 
ATOM     23  C   UNL     1      11.614  13.900  18.688  0.00  0.00    +0.000 A 
ATOM     24  C   UNL     1      10.902  13.320  17.640  0.00  0.00    +0.000 A 
ATOM     25  C   UNL     1      10.222  12.120  17.841  0.00  0.00    +0.000 A 
ENDBRANCH  19  20
ENDBRANCH  18  19
ENDBRANCH  15  18
ENDBRANCH   5  12
BRANCH   1  27
ATOM     26  C   UNL     1       5.994   4.937  14.409  0.00  0.00    +0.000 C 
ATOM     27  C   UNL     1       6.239   4.341  15.583  0.00  0.00    +0.000 C 
BRANCH  26  29
ATOM     28  O   UNL     1       7.882   5.509  13.086  0.00  0.00    +0.000 OA
ATOM     29  C   UNL     1       6.929   4.760  13.268  0.00  0.00    +0.000 C 
BRANCH  29  30
ATOM     30  C   UNL     1       6.674   3.602  12.376  0.00  0.00    +0.000 A 
ATOM     31  C   UNL     1       5.357   3.168  12.190  0.00  0.00    +0.000 A 
ATOM     32  C   UNL     1       5.095   2.079  11.356  0.00  0.00    +0.000 A 
ATOM     33  C   UNL     1       6.145   1.417  10.719  0.00  0.00    +0.000 A 
ATOM     34  C   UNL     1       7.460   1.835  10.914  0.00  0.00    +0.000 A 
ATOM     35  C   UNL     1       7.727   2.922  11.746  0.00  0.00    +0.000 A 
ENDBRANCH  29  30
ENDBRANCH  26  29
ENDBRANCH   1  27
TORSDOF 8
ENDMDL
MODEL 4
REMARK VINA RESULT:      -8.9      0.587      1.305
REMARK  Name = 
REMARK  8 active torsions:
REMARK  status: ('A' for Active; 'I' for Inactive)
REMARK    1  A    between atoms: C_2  and  C_3
REMARK    2  A    between atoms: C_2  and  C_30
REMARK    3  A    between atoms: C_4  and  C_5
REMARK    4  A    between atoms: N_7  and  C_8
REMARK    5  A    between atoms: C_15  and  C_16
REMARK    6  A    between atoms: C_19  and  O_20
REMARK    7  A    between atoms: O_20  and  C_21
REMARK    8  A    between atoms: C_21  and  C_22
REMARK                            x       y       z     vdW  Elec       q    Type
REMARK                         _______ _______ _______ _____ _____    ______ ____
ROOT
ATOM      1  C   UNL     1       5.375   4.354  16.753  0.00  0.00    +0.000 A 
ATOM      2  C   UNL     1       4.349   3.513  17.108  0.00  0.00    +0.000 A 
ATOM      3  N   UNL     1       3.785   4.031  18.251  0.00  0.00    +0.000 N 
ATOM      4  N   UNL     1       4.421   5.160  18.653  0.00  0.00    +0.000 NA
ATOM      5  C   UNL     1       5.414   5.346  17.772  0.00  0.00    +0.000 A 
ENDROOT
BRANCH   3   6
ATOM      6  C   UNL     1       2.667   3.524  18.969  0.00  0.00    +0.000 A 
ATOM      7  C   UNL     1       1.692   2.742  18.332  0.00  0.00    +0.000 A 
ATOM      8  C   UNL     1       0.592   2.271  19.055  0.00  0.00    +0.000 A 
ATOM      9  C   UNL     1       0.459   2.579  20.407  0.00  0.00    +0.000 A 
ATOM     10  C   UNL     1       1.427   3.350  21.047  0.00  0.00    +0.000 A 
ATOM     11  C   UNL     1       2.531   3.819  20.334  0.00  0.00    +0.000 A 
ENDBRANCH   3   6
BRANCH   5  12
ATOM     12  C   UNL     1       6.369   6.442  17.923  0.00  0.00    +0.000 A 
ATOM     13  C   UNL     1       7.501   6.272  18.729  0.00  0.00    +0.000 A 
ATOM     14  C   UNL     1       8.470   7.267  18.813  0.00  0.00    +0.000 A 
ATOM     15  C   UNL     1       8.323   8.448  18.086  0.00  0.00    +0.000 A 
ATOM     16  C   UNL     1       7.157   8.663  17.349  0.00  0.00    +0.000 A 
ATOM     17  C   UNL     1       6.183   7.663  17.264  0.00  0.00    +0.000 A 
BRANCH  15  18
ATOM     18  O   UNL     1       9.265   9.439  18.032  0.00  0.00    +0.000 OA
BRANCH  18  19
ATOM     19  C   UNL     1       9.182  10.387  19.102  0.00  0.00    +0.000 C 
BRANCH  19  20
ATOM     20  C   UNL     1       9.960  11.622  18.738  0.00  0.00    +0.000 A 
ATOM     21  C   UNL     1      11.359  11.623  18.797  0.00  0.00    +0.000 A 
ATOM     22  C   UNL     1      12.075  12.770  18.457  0.00  0.00    +0.000 A 
ATOM     23  C   UNL     1      11.400  13.921  18.054  0.00  0.00    +0.000 A 
ATOM     24  C   UNL     1      10.008  13.929  17.987  0.00  0.00    +0.000 A 
ATOM     25  C   UNL     1       9.290  12.783  18.327  0.00  0.00    +0.000 A 
ENDBRANCH  19  20
ENDBRANCH  18  19
ENDBRANCH  15  18
ENDBRANCH   5  12
BRANCH   1  27
ATOM     26  C   UNL     1       6.037   4.988  14.482  0.00  0.00    +0.000 C 
ATOM     27  C   UNL     1       6.181   4.235  15.581  0.00  0.00    +0.000 C 
BRANCH  26  29
ATOM     28  O   UNL     1       7.894   5.539  13.108  0.00  0.00    +0.000 OA
ATOM     29  C   UNL     1       6.941   4.798  13.319  0.00  0.00    +0.000 C 
BRANCH  29  30
ATOM     30  C   UNL     1       6.655   3.637  12.440  0.00  0.00    +0.000 A 
ATOM     31  C   UNL     1       7.724   2.961  11.843  0.00  0.00    +0.000 A 
ATOM     32  C   UNL     1       7.478   1.868  11.010  0.00  0.00    +0.000 A 
ATOM     33  C   UNL     1       6.168   1.457  10.765  0.00  0.00    +0.000 A 
ATOM     34  C   UNL     1       5.098   2.137  11.345  0.00  0.00    +0.000 A 
ATOM     35  C   UNL     1       5.339   3.229  12.177  0.00  0.00    +0.000 A 
ENDBRANCH  29  30
ENDBRANCH  26  29
ENDBRANCH   1  27
TORSDOF 8
ENDMDL
MODEL 5
REMARK VINA RESULT:      -8.9      1.054      1.405
REMARK  Name = 
REMARK  8 active torsions:
REMARK  status: ('A' for Active; 'I' for Inactive)
REMARK    1  A    between atoms: C_2  and  C_3
REMARK    2  A    between atoms: C_2  and  C_30
REMARK    3  A    between atoms: C_4  and  C_5
REMARK    4  A    between atoms: N_7  and  C_8
REMARK    5  A    between atoms: C_15  and  C_16
REMARK    6  A    between atoms: C_19  and  O_20
REMARK    7  A    between atoms: O_20  and  C_21
REMARK    8  A    between atoms: C_21  and  C_22
REMARK                            x       y       z     vdW  Elec       q    Type
REMARK                         _______ _______ _______ _____ _____    ______ ____
ROOT
ATOM      1  C   UNL     1       5.632   4.513  16.872  0.00  0.00    +0.000 A 
ATOM      2  C   UNL     1       4.662   3.660  17.336  0.00  0.00    +0.000 A 
ATOM      3  N   UNL     1       4.161   4.214  18.491  0.00  0.00    +0.000 N 
ATOM      4  N   UNL     1       4.785   5.379  18.796  0.00  0.00    +0.000 NA
ATOM      5  C   UNL     1       5.709   5.553  17.840  0.00  0.00    +0.000 A 
ENDROOT
BRANCH   3   6
ATOM      6  C   UNL     1       3.112   3.709  19.308  0.00  0.00    +0.000 A 
ATOM      7  C   UNL     1       2.907   4.195  20.607  0.00  0.00    +0.000 A 
ATOM      8  C   UNL     1       1.882   3.669  21.398  0.00  0.00    +0.000 A 
ATOM      9  C   UNL     1       1.063   2.658  20.901  0.00  0.00    +0.000 A 
ATOM     10  C   UNL     1       1.257   2.173  19.609  0.00  0.00    +0.000 A 
ATOM     11  C   UNL     1       2.275   2.698  18.811  0.00  0.00    +0.000 A 
ENDBRANCH   3   6
BRANCH   5  12
ATOM     12  C   UNL     1       6.635   6.682  17.874  0.00  0.00    +0.000 A 
ATOM     13  C   UNL     1       6.337   7.850  17.161  0.00  0.00    +0.000 A 
ATOM     14  C   UNL     1       7.157   8.970  17.253  0.00  0.00    +0.000 A 
ATOM     15  C   UNL     1       8.289   8.940  18.068  0.00  0.00    +0.000 A 
ATOM     16  C   UNL     1       8.643   7.755  18.714  0.00  0.00    +0.000 A 
ATOM     17  C   UNL     1       7.818   6.629  18.621  0.00  0.00    +0.000 A 
BRANCH  15  18
ATOM     18  O   UNL     1       9.099  10.019  18.295  0.00  0.00    +0.000 OA
BRANCH  18  19
ATOM     19  C   UNL     1       9.482  10.188  19.664  0.00  0.00    +0.000 C 
BRANCH  19  20
ATOM     20  C   UNL     1       9.666  11.653  19.955  0.00  0.00    +0.000 A 
ATOM     21  C   UNL     1       9.650  12.121  21.275  0.00  0.00    +0.000 A 
ATOM     22  C   UNL     1       9.823  13.479  21.540  0.00  0.00    +0.000 A 
ATOM     23  C   UNL     1      10.014  14.377  20.490  0.00  0.00    +0.000 A 
ATOM     24  C   UNL     1      10.036  13.920  19.174  0.00  0.00    +0.000 A 
ATOM     25  C   UNL     1       9.863  12.562  18.906  0.00  0.00    +0.000 A 
ENDBRANCH  19  20
ENDBRANCH  18  19
ENDBRANCH  15  18
ENDBRANCH   5  12
BRANCH   1  27
ATOM     26  C   UNL     1       6.132   5.078  14.542  0.00  0.00    +0.000 C 
ATOM     27  C   UNL     1       6.358   4.363  15.653  0.00  0.00    +0.000 C 
BRANCH  26  29
ATOM     28  O   UNL     1       7.916   5.572  13.054  0.00  0.00    +0.000 OA
ATOM     29  C   UNL     1       6.958   4.858  13.328  0.00  0.00    +0.000 C 
BRANCH  29  30
ATOM     30  C   UNL     1       6.588   3.701  12.475  0.00  0.00    +0.000 A 
ATOM     31  C   UNL     1       5.233   3.420  12.267  0.00  0.00    +0.000 A 
ATOM     32  C   UNL     1       4.862   2.335  11.471  0.00  0.00    +0.000 A 
ATOM     33  C   UNL     1       5.839   1.526  10.892  0.00  0.00    +0.000 A 
ATOM     34  C   UNL     1       7.190   1.792  11.109  0.00  0.00    +0.000 A 
ATOM     35  C   UNL     1       7.566   2.873  11.904  0.00  0.00    +0.000 A 
ENDBRANCH  29  30
ENDBRANCH  26  29
ENDBRANCH   1  27
TORSDOF 8
ENDMDL
MODEL 6
REMARK VINA RESULT:      -8.8      7.838     11.302
REMARK  Name = 
REMARK  8 active torsions:
REMARK  status: ('A' for Active; 'I' for Inactive)
REMARK    1  A    between atoms: C_2  and  C_3
REMARK    2  A    between atoms: C_2  and  C_30
REMARK    3  A    between atoms: C_4  and  C_5
REMARK    4  A    between atoms: N_7  and  C_8
REMARK    5  A    between atoms: C_15  and  C_16
REMARK    6  A    between atoms: C_19  and  O_20
REMARK    7  A    between atoms: O_20  and  C_21
REMARK    8  A    between atoms: C_21  and  C_22
REMARK                            x       y       z     vdW  Elec       q    Type
REMARK                         _______ _______ _______ _____ _____    ______ ____
ROOT
ATOM      1  C   UNL     1      -0.312  11.587  18.680  0.00  0.00    +0.000 A 
ATOM      2  C   UNL     1      -0.166  12.952  18.676  0.00  0.00    +0.000 A 
ATOM      3  N   UNL     1       1.185  13.210  18.662  0.00  0.00    +0.000 N 
ATOM      4  N   UNL     1       1.911  12.064  18.677  0.00  0.00    +0.000 NA
ATOM      5  C   UNL     1       1.013  11.070  18.727  0.00  0.00    +0.000 A 
ENDROOT
BRANCH   3   6
ATOM      6  C   UNL     1       1.822  14.481  18.618  0.00  0.00    +0.000 A 
ATOM      7  C   UNL     1       3.147  14.612  18.179  0.00  0.00    +0.000 A 
ATOM      8  C   UNL     1       3.757  15.870  18.162  0.00  0.00    +0.000 A 
ATOM      9  C   UNL     1       3.053  16.995  18.584  0.00  0.00    +0.000 A 
ATOM     10  C   UNL     1       1.734  16.873  19.016  0.00  0.00    +0.000 A 
ATOM     11  C   UNL     1       1.116  15.622  19.030  0.00  0.00    +0.000 A 
ENDBRANCH   3   6
BRANCH   5  12
ATOM     12  C   UNL     1       1.429   9.673  18.826  0.00  0.00    +0.000 A 
ATOM     13  C   UNL     1       1.897   9.004  17.688  0.00  0.00    +0.000 A 
ATOM     14  C   UNL     1       2.386   7.704  17.778  0.00  0.00    +0.000 A 
ATOM     15  C   UNL     1       2.419   7.055  19.012  0.00  0.00    +0.000 A 
ATOM     16  C   UNL     1       1.876   7.680  20.135  0.00  0.00    +0.000 A 
ATOM     17  C   UNL     1       1.384   8.987  20.045  0.00  0.00    +0.000 A 
BRANCH  15  18
ATOM     18  O   UNL     1       2.967   5.817  19.214  0.00  0.00    +0.000 OA
BRANCH  18  19
ATOM     19  C   UNL     1       3.701   5.311  18.093  0.00  0.00    +0.000 C 
BRANCH  19  20
ATOM     20  C   UNL     1       5.145   5.716  18.217  0.00  0.00    +0.000 A 
ATOM     21  C   UNL     1       5.721   6.585  17.281  0.00  0.00    +0.000 A 
ATOM     22  C   UNL     1       7.058   6.959  17.401  0.00  0.00    +0.000 A 
ATOM     23  C   UNL     1       7.829   6.470  18.456  0.00  0.00    +0.000 A 
ATOM     24  C   UNL     1       7.264   5.609  19.394  0.00  0.00    +0.000 A 
ATOM     25  C   UNL     1       5.927   5.234  19.276  0.00  0.00    +0.000 A 
ENDBRANCH  19  20
ENDBRANCH  18  19
ENDBRANCH  15  18
ENDBRANCH   5  12
BRANCH   1  27
ATOM     26  C   UNL     1      -2.572  11.214  17.814  0.00  0.00    +0.000 C 
ATOM     27  C   UNL     1      -1.551  10.882  18.615  0.00  0.00    +0.000 C 
BRANCH  26  29
ATOM     28  O   UNL     1      -3.794   9.178  17.741  0.00  0.00    +0.000 OA
ATOM     29  C   UNL     1      -3.815  10.402  17.808  0.00  0.00    +0.000 C 
BRANCH  29  30
ATOM     30  C   UNL     1      -5.094  11.147  17.925  0.00  0.00    +0.000 A 
ATOM     31  C   UNL     1      -5.363  12.176  17.015  0.00  0.00    +0.000 A 
ATOM     32  C   UNL     1      -6.558  12.891  17.108  0.00  0.00    +0.000 A 
ATOM     33  C   UNL     1      -7.478  12.589  18.112  0.00  0.00    +0.000 A 
ATOM     34  C   UNL     1      -7.207  11.576  19.030  0.00  0.00    +0.000 A 
ATOM     35  C   UNL     1      -6.015  10.859  18.942  0.00  0.00    +0.000 A 
ENDBRANCH  29  30
ENDBRANCH  26  29
ENDBRANCH   1  27
TORSDOF 8
ENDMDL
MODEL 7
REMARK VINA RESULT:      -8.7      9.164     11.938
REMARK  Name = 
REMARK  8 active torsions:
REMARK  status: ('A' for Active; 'I' for Inactive)
REMARK    1  A    between atoms: C_2  and  C_3
REMARK    2  A    between atoms: C_2  and  C_30
REMARK    3  A    between atoms: C_4  and  C_5
REMARK    4  A    between atoms: N_7  and  C_8
REMARK    5  A    between atoms: C_15  and  C_16
REMARK    6  A    between atoms: C_19  and  O_20
REMARK    7  A    between atoms: O_20  and  C_21
REMARK    8  A    between atoms: C_21  and  C_22
REMARK                            x       y       z     vdW  Elec       q    Type
REMARK                         _______ _______ _______ _____ _____    ______ ____
ROOT
ATOM      1  C   UNL     1       0.591   9.429  18.318  0.00  0.00    +0.000 A 
ATOM      2  C   UNL     1       1.452   8.565  17.689  0.00  0.00    +0.000 A 
ATOM      3  N   UNL     1       2.204   7.963  18.671  0.00  0.00    +0.000 N 
ATOM      4  N   UNL     1       1.871   8.422  19.904  0.00  0.00    +0.000 NA
ATOM      5  C   UNL     1       0.917   9.342  19.700  0.00  0.00    +0.000 A 
ENDROOT
BRANCH   3   6
ATOM      6  C   UNL     1       3.205   6.966  18.505  0.00  0.00    +0.000 A 
ATOM      7  C   UNL     1       3.331   5.908  19.416  0.00  0.00    +0.000 A 
ATOM      8  C   UNL     1       4.335   4.951  19.242  0.00  0.00    +0.000 A 
ATOM      9  C   UNL     1       5.215   5.047  18.166  0.00  0.00    +0.000 A 
ATOM     10  C   UNL     1       5.092   6.093  17.254  0.00  0.00    +0.000 A 
ATOM     11  C   UNL     1       4.088   7.049  17.418  0.00  0.00    +0.000 A 
ENDBRANCH   3   6
BRANCH   5  12
ATOM     12  C   UNL     1       0.354  10.111  20.807  0.00  0.00    +0.000 A 
ATOM     13  C   UNL     1       0.358  11.511  20.755  0.00  0.00    +0.000 A 
ATOM     14  C   UNL     1      -0.255  12.262  21.753  0.00  0.00    +0.000 A 
ATOM     15  C   UNL     1      -0.888  11.622  22.818  0.00  0.00    +0.000 A 
ATOM     16  C   UNL     1      -0.822  10.232  22.925  0.00  0.00    +0.000 A 
ATOM     17  C   UNL     1      -0.206   9.477  21.922  0.00  0.00    +0.000 A 
BRANCH  15  18
ATOM     18  O   UNL     1      -1.596  12.272  23.792  0.00  0.00    +0.000 OA
BRANCH  18  19
ATOM     19  C   UNL     1      -1.960  13.615  23.456  0.00  0.00    +0.000 C 
BRANCH  19  20
ATOM     20  C   UNL     1      -3.457  13.755  23.507  0.00  0.00    +0.000 A 
ATOM     21  C   UNL     1      -4.075  14.929  23.057  0.00  0.00    +0.000 A 
ATOM     22  C   UNL     1      -5.463  15.053  23.104  0.00  0.00    +0.000 A 
ATOM     23  C   UNL     1      -6.242  14.007  23.598  0.00  0.00    +0.000 A 
ATOM     24  C   UNL     1      -5.637  12.834  24.043  0.00  0.00    +0.000 A 
ATOM     25  C   UNL     1      -4.249  12.707  23.997  0.00  0.00    +0.000 A 
ENDBRANCH  19  20
ENDBRANCH  18  19
ENDBRANCH  15  18
ENDBRANCH   5  12
BRANCH   1  27
ATOM     26  C   UNL     1      -1.739   9.966  17.787  0.00  0.00    +0.000 C 
ATOM     27  C   UNL     1      -0.425  10.203  17.681  0.00  0.00    +0.000 C 
BRANCH  26  29
ATOM     28  O   UNL     1      -2.756  10.943  15.876  0.00  0.00    +0.000 OA
ATOM     29  C   UNL     1      -2.718  10.844  17.097  0.00  0.00    +0.000 C 
BRANCH  29  30
ATOM     30  C   UNL     1      -3.679  11.573  17.962  0.00  0.00    +0.000 A 
ATOM     31  C   UNL     1      -4.956  11.855  17.466  0.00  0.00    +0.000 A 
ATOM     32  C   UNL     1      -5.875  12.542  18.261  0.00  0.00    +0.000 A 
ATOM     33  C   UNL     1      -5.518  12.956  19.544  0.00  0.00    +0.000 A 
ATOM     34  C   UNL     1      -4.241  12.692  20.037  0.00  0.00    +0.000 A 
ATOM     35  C   UNL     1      -3.320  12.007  19.247  0.00  0.00    +0.000 A 
ENDBRANCH  29  30
ENDBRANCH  26  29
ENDBRANCH   1  27
TORSDOF 8
ENDMDL
MODEL 8
REMARK VINA RESULT:      -8.7      0.648      1.525
REMARK  Name = 
REMARK  8 active torsions:
REMARK  status: ('A' for Active; 'I' for Inactive)
REMARK    1  A    between atoms: C_2  and  C_3
REMARK    2  A    between atoms: C_2  and  C_30
REMARK    3  A    between atoms: C_4  and  C_5
REMARK    4  A    between atoms: N_7  and  C_8
REMARK    5  A    between atoms: C_15  and  C_16
REMARK    6  A    between atoms: C_19  and  O_20
REMARK    7  A    between atoms: O_20  and  C_21
REMARK    8  A    between atoms: C_21  and  C_22
REMARK                            x       y       z     vdW  Elec       q    Type
REMARK                         _______ _______ _______ _____ _____    ______ ____
ROOT
ATOM      1  C   UNL     1       5.521   4.387  17.081  0.00  0.00    +0.000 A 
ATOM      2  C   UNL     1       4.552   3.529  17.539  0.00  0.00    +0.000 A 
ATOM      3  N   UNL     1       4.045   4.078  18.694  0.00  0.00    +0.000 N 
ATOM      4  N   UNL     1       4.664   5.244  19.005  0.00  0.00    +0.000 NA
ATOM      5  C   UNL     1       5.591   5.424  18.052  0.00  0.00    +0.000 A 
ENDROOT
BRANCH   3   6
ATOM      6  C   UNL     1       2.996   3.565  19.506  0.00  0.00    +0.000 A 
ATOM      7  C   UNL     1       1.651   3.790  19.178  0.00  0.00    +0.000 A 
ATOM      8  C   UNL     1       0.638   3.292  20.003  0.00  0.00    +0.000 A 
ATOM      9  C   UNL     1       0.960   2.576  21.153  0.00  0.00    +0.000 A 
ATOM     10  C   UNL     1       2.293   2.344  21.482  0.00  0.00    +0.000 A 
ATOM     11  C   UNL     1       3.311   2.832  20.660  0.00  0.00    +0.000 A 
ENDBRANCH   3   6
BRANCH   5  12
ATOM     12  C   UNL     1       6.513   6.557  18.093  0.00  0.00    +0.000 A 
ATOM     13  C   UNL     1       7.655   6.496  18.900  0.00  0.00    +0.000 A 
ATOM     14  C   UNL     1       8.594   7.522  18.883  0.00  0.00    +0.000 A 
ATOM     15  C   UNL     1       8.406   8.626  18.052  0.00  0.00    +0.000 A 
ATOM     16  C   UNL     1       7.229   8.738  17.309  0.00  0.00    +0.000 A 
ATOM     17  C   UNL     1       6.285   7.706  17.326  0.00  0.00    +0.000 A 
BRANCH  15  18
ATOM     18  O   UNL     1       9.317   9.635  17.898  0.00  0.00    +0.000 OA
BRANCH  18  19
ATOM     19  C   UNL     1       8.951  10.861  18.542  0.00  0.00    +0.000 C 
BRANCH  19  20
ATOM     20  C   UNL     1      10.068  11.857  18.395  0.00  0.00    +0.000 A 
ATOM     21  C   UNL     1      11.299  11.641  19.026  0.00  0.00    +0.000 A 
ATOM     22  C   UNL     1      12.333  12.566  18.885  0.00  0.00    +0.000 A 
ATOM     23  C   UNL     1      12.144  13.712  18.112  0.00  0.00    +0.000 A 
ATOM     24  C   UNL     1      10.924  13.934  17.477  0.00  0.00    +0.000 A 
ATOM     25  C   UNL     1       9.890  13.010  17.616  0.00  0.00    +0.000 A 
ENDBRANCH  19  20
ENDBRANCH  18  19
ENDBRANCH  15  18
ENDBRANCH   5  12
BRANCH   1  27
ATOM     26  C   UNL     1       6.248   5.139  14.866  0.00  0.00    +0.000 C 
ATOM     27  C   UNL     1       6.251   4.244  15.863  0.00  0.00    +0.000 C 
BRANCH  26  29
ATOM     28  O   UNL     1       8.083   5.538  13.412  0.00  0.00    +0.000 OA
ATOM     29  C   UNL     1       7.059   4.905  13.645  0.00  0.00    +0.000 C 
BRANCH  29  30
ATOM     30  C   UNL     1       6.587   3.834  12.731  0.00  0.00    +0.000 A 
ATOM     31  C   UNL     1       5.212   3.618  12.595  0.00  0.00    +0.000 A 
ATOM     32  C   UNL     1       4.746   2.615  11.743  0.00  0.00    +0.000 A 
ATOM     33  C   UNL     1       5.650   1.821  11.038  0.00  0.00    +0.000 A 
ATOM     34  C   UNL     1       7.022   2.022  11.182  0.00  0.00    +0.000 A 
ATOM     35  C   UNL     1       7.492   3.022  12.032  0.00  0.00    +0.000 A 
ENDBRANCH  29  30
ENDBRANCH  26  29
ENDBRANCH   1  27
TORSDOF 8
ENDMDL
MODEL 9
REMARK VINA RESULT:      -8.6      7.161     11.370
REMARK  Name = 
REMARK  8 active torsions:
REMARK  status: ('A' for Active; 'I' for Inactive)
REMARK    1  A    between atoms: C_2  and  C_3
REMARK    2  A    between atoms: C_2  and  C_30
REMARK    3  A    between atoms: C_4  and  C_5
REMARK    4  A    between atoms: N_7  and  C_8
REMARK    5  A    between atoms: C_15  and  C_16
REMARK    6  A    between atoms: C_19  and  O_20
REMARK    7  A    between atoms: O_20  and  C_21
REMARK    8  A    between atoms: C_21  and  C_22
REMARK                            x       y       z     vdW  Elec       q    Type
REMARK                         _______ _______ _______ _____ _____    ______ ____
ROOT
ATOM      1  C   UNL     1      -0.049  12.018  19.861  0.00  0.00    +0.000 A 
ATOM      2  C   UNL     1      -1.266  12.636  19.715  0.00  0.00    +0.000 A 
ATOM      3  N   UNL     1      -2.114  11.719  19.138  0.00  0.00    +0.000 N 
ATOM      4  N   UNL     1      -1.482  10.545  18.890  0.00  0.00    +0.000 NA
ATOM      5  C   UNL     1      -0.216  10.725  19.290  0.00  0.00    +0.000 A 
ENDROOT
BRANCH   3   6
ATOM      6  C   UNL     1      -3.491  11.892  18.827  0.00  0.00    +0.000 A 
ATOM      7  C   UNL     1      -4.379  12.450  19.758  0.00  0.00    +0.000 A 
ATOM      8  C   UNL     1      -5.732  12.592  19.435  0.00  0.00    +0.000 A 
ATOM      9  C   UNL     1      -6.203  12.177  18.192  0.00  0.00    +0.000 A 
ATOM     10  C   UNL     1      -5.325  11.627  17.260  0.00  0.00    +0.000 A 
ATOM     11  C   UNL     1      -3.971  11.488  17.572  0.00  0.00    +0.000 A 
ENDBRANCH   3   6
BRANCH   5  12
ATOM     12  C   UNL     1       0.794   9.684  19.114  0.00  0.00    +0.000 A 
ATOM     13  C   UNL     1       1.100   8.824  20.175  0.00  0.00    +0.000 A 
ATOM     14  C   UNL     1       1.989   7.768  20.002  0.00  0.00    +0.000 A 
ATOM     15  C   UNL     1       2.581   7.552  18.758  0.00  0.00    +0.000 A 
ATOM     16  C   UNL     1       2.350   8.453  17.718  0.00  0.00    +0.000 A 
ATOM     17  C   UNL     1       1.457   9.515  17.893  0.00  0.00    +0.000 A 
BRANCH  15  18
ATOM     18  O   UNL     1       3.391   6.487  18.468  0.00  0.00    +0.000 OA
BRANCH  18  19
ATOM     19  C   UNL     1       3.647   5.624  19.582  0.00  0.00    +0.000 C 
BRANCH  19  20
ATOM     20  C   UNL     1       2.641   4.505  19.589  0.00  0.00    +0.000 A 
ATOM     21  C   UNL     1       2.073   4.068  20.792  0.00  0.00    +0.000 A 
ATOM     22  C   UNL     1       1.140   3.033  20.792  0.00  0.00    +0.000 A 
ATOM     23  C   UNL     1       0.767   2.428  19.593  0.00  0.00    +0.000 A 
ATOM     24  C   UNL     1       1.322   2.859  18.390  0.00  0.00    +0.000 A 
ATOM     25  C   UNL     1       2.255   3.894  18.386  0.00  0.00    +0.000 A 
ENDBRANCH  19  20
ENDBRANCH  18  19
ENDBRANCH  15  18
ENDBRANCH   5  12
BRANCH   1  27
ATOM     26  C   UNL     1       1.622  13.778  20.188  0.00  0.00    +0.000 C 
ATOM     27  C   UNL     1       1.101  12.582  20.490  0.00  0.00    +0.000 C 
BRANCH  26  29
ATOM     28  O   UNL     1       2.845  14.359  22.139  0.00  0.00    +0.000 OA
ATOM     29  C   UNL     1       2.813  14.284  20.916  0.00  0.00    +0.000 C 
BRANCH  29  30
ATOM     30  C   UNL     1       3.985  14.663  20.088  0.00  0.00    +0.000 A 
ATOM     31  C   UNL     1       3.895  14.548  18.696  0.00  0.00    +0.000 A 
ATOM     32  C   UNL     1       4.986  14.896  17.898  0.00  0.00    +0.000 A 
ATOM     33  C   UNL     1       6.168  15.347  18.487  0.00  0.00    +0.000 A 
ATOM     34  C   UNL     1       6.268  15.448  19.873  0.00  0.00    +0.000 A 
ATOM     35  C   UNL     1       5.181  15.101  20.674  0.00  0.00    +0.000 A 
ENDBRANCH  29  30
ENDBRANCH  26  29
ENDBRANCH   1  27
TORSDOF 8
ENDMDL
