MODEL 1
REMARK VINA RESULT:      -8.0      0.000      0.000
REMARK  Name = 
REMARK  5 active torsions:
REMARK  status: ('A' for Active; 'I' for Inactive)
REMARK    1  A    between atoms: C_1  and  C_2
REMARK    2  A    between atoms: C_4  and  C_5
REMARK    3  A    between atoms: N_9  and  C_10
REMARK    4  A    between atoms: C_19  and  C_20
REMARK    5  A    between atoms: N_21  and  C_22
REMARK                            x       y       z     vdW  Elec       q    Type
REMARK                         _______ _______ _______ _____ _____    ______ ____
ROOT
ATOM      1  C   UNL     1       1.560   6.304  20.908  0.00  0.00    +0.000 C 
ATOM      2  C   UNL     1       2.155   5.269  20.300  0.00  0.00    +0.000 C 
ATOM      3  S   UNL     1       2.814   5.246  18.707  0.00  0.00    +0.000 S 
ATOM      4  C   UNL     1       3.812   3.861  19.072  0.00  0.00    +0.000 C 
ATOM      5  N   UNL     1       4.848   3.390  18.461  0.00  0.00    +0.000 NA
ATOM      6  N   UNL     1       3.365   3.278  20.215  0.00  0.00    +0.000 N 
ATOM      7  C   UNL     1       2.491   3.997  20.991  0.00  0.00    +0.000 C 
ATOM      8  O   UNL     1       2.119   3.675  22.113  0.00  0.00    +0.000 OA
ATOM      9  H   UNL     1       3.811   2.450  20.575  0.00  0.00    +0.000 HD
ENDROOT
BRANCH   1  13
ATOM     10  C   UNL     1       2.094  10.307  17.933  0.00  0.00    +0.000 C 
ATOM     11  C   UNL     1       1.571   9.384  18.984  0.00  0.00    +0.000 A 
ATOM     12  C   UNL     1       1.955   8.068  19.151  0.00  0.00    +0.000 A 
ATOM     13  C   UNL     1       1.376   7.598  20.334  0.00  0.00    +0.000 A 
ATOM     14  C   UNL     1       0.594   8.610  20.869  0.00  0.00    +0.000 A 
ATOM     15  C   UNL     1      -0.288   8.527  22.074  0.00  0.00    +0.000 C 
ATOM     16  N   UNL     1       0.706   9.735  20.030  0.00  0.00    +0.000 N 
BRANCH  16  17
ATOM     17  C   UNL     1       0.045  11.003  20.202  0.00  0.00    +0.000 A 
ATOM     18  C   UNL     1      -1.203  11.257  19.610  0.00  0.00    +0.000 A 
ATOM     19  C   UNL     1      -1.811  12.513  19.726  0.00  0.00    +0.000 A 
ATOM     20  C   UNL     1      -1.194  13.509  20.468  0.00  0.00    +0.000 A 
ATOM     21  F   UNL     1      -1.775  14.710  20.579  0.00  0.00    +0.000 F 
ATOM     22  C   UNL     1       0.021  13.274  21.093  0.00  0.00    +0.000 A 
ATOM     23  C   UNL     1       0.645  12.028  20.950  0.00  0.00    +0.000 A 
ENDBRANCH  16  17
ENDBRANCH   1  13
BRANCH   5  24
ATOM     24  C   UNL     1       5.400   4.026  17.332  0.00  0.00    +0.000 A 
ATOM     25  C   UNL     1       4.894   3.855  16.036  0.00  0.00    +0.000 A 
ATOM     26  C   UNL     1       5.493   4.472  14.937  0.00  0.00    +0.000 A 
ATOM     27  C   UNL     1       6.556   5.346  15.130  0.00  0.00    +0.000 A 
ATOM     28  C   UNL     1       7.014   5.603  16.420  0.00  0.00    +0.000 A 
ATOM     29  C   UNL     1       6.441   4.942  17.514  0.00  0.00    +0.000 A 
ENDBRANCH   5  24
TORSDOF 3
ENDMDL
MODEL 2
REMARK VINA RESULT:      -7.9      0.134      1.292
REMARK  Name = 
REMARK  5 active torsions:
REMARK  status: ('A' for Active; 'I' for Inactive)
REMARK    1  A    between atoms: C_1  and  C_2
REMARK    2  A    between atoms: C_4  and  C_5
REMARK    3  A    between atoms: N_9  and  C_10
REMARK    4  A    between atoms: C_19  and  C_20
REMARK    5  A    between atoms: N_21  and  C_22
REMARK                            x       y       z     vdW  Elec       q    Type
REMARK                         _______ _______ _______ _____ _____    ______ ____
ROOT
ATOM      1  C   UNL     1       1.618   6.263  20.840  0.00  0.00    +0.000 C 
ATOM      2  C   UNL     1       2.224   5.238  20.228  0.00  0.00    +0.000 C 
ATOM      3  S   UNL     1       2.899   5.234  18.641  0.00  0.00    +0.000 S 
ATOM      4  C   UNL     1       3.900   3.851  19.002  0.00  0.00    +0.000 C 
ATOM      5  N   UNL     1       4.944   3.391  18.397  0.00  0.00    +0.000 NA
ATOM      6  N   UNL     1       3.445   3.254  20.135  0.00  0.00    +0.000 N 
ATOM      7  C   UNL     1       2.561   3.961  20.910  0.00  0.00    +0.000 C 
ATOM      8  O   UNL     1       2.179   3.626  22.025  0.00  0.00    +0.000 OA
ATOM      9  H   UNL     1       3.893   2.425  20.491  0.00  0.00    +0.000 HD
ENDROOT
BRANCH   1  13
ATOM     10  C   UNL     1       2.154  10.296  17.905  0.00  0.00    +0.000 C 
ATOM     11  C   UNL     1       1.629   9.362  18.945  0.00  0.00    +0.000 A 
ATOM     12  C   UNL     1       2.016   8.045  19.102  0.00  0.00    +0.000 A 
ATOM     13  C   UNL     1       1.433   7.562  20.278  0.00  0.00    +0.000 A 
ATOM     14  C   UNL     1       0.645   8.567  20.818  0.00  0.00    +0.000 A 
ATOM     15  C   UNL     1      -0.242   8.470  22.018  0.00  0.00    +0.000 C 
ATOM     16  N   UNL     1       0.758   9.700  19.990  0.00  0.00    +0.000 N 
BRANCH  16  17
ATOM     17  C   UNL     1       0.092  10.964  20.171  0.00  0.00    +0.000 A 
ATOM     18  C   UNL     1       0.664  11.981  20.953  0.00  0.00    +0.000 A 
ATOM     19  C   UNL     1      -0.017  13.183  21.180  0.00  0.00    +0.000 A 
ATOM     20  C   UNL     1      -1.256  13.392  20.594  0.00  0.00    +0.000 A 
ATOM     21  F   UNL     1      -1.908  14.541  20.810  0.00  0.00    +0.000 F 
ATOM     22  C   UNL     1      -1.829  12.419  19.789  0.00  0.00    +0.000 A 
ATOM     23  C   UNL     1      -1.163  11.203  19.588  0.00  0.00    +0.000 A 
ENDBRANCH  16  17
ENDBRANCH   1  13
BRANCH   5  24
ATOM     24  C   UNL     1       5.503   4.041  17.278  0.00  0.00    +0.000 A 
ATOM     25  C   UNL     1       6.577   4.937  17.374  0.00  0.00    +0.000 A 
ATOM     26  C   UNL     1       7.078   5.591  16.248  0.00  0.00    +0.000 A 
ATOM     27  C   UNL     1       6.570   5.288  14.991  0.00  0.00    +0.000 A 
ATOM     28  C   UNL     1       5.567   4.331  14.863  0.00  0.00    +0.000 A 
ATOM     29  C   UNL     1       5.033   3.715  16.003  0.00  0.00    +0.000 A 
ENDBRANCH   5  24
TORSDOF 3
ENDMDL
MODEL 3
REMARK VINA RESULT:      -7.5      6.488     10.150
REMARK  Name = 
REMARK  5 active torsions:
REMARK  status: ('A' for Active; 'I' for Inactive)
REMARK    1  A    between atoms: C_1  and  C_2
REMARK    2  A    between atoms: C_4  and  C_5
REMARK    3  A    between atoms: N_9  and  C_10
REMARK    4  A    between atoms: C_19  and  C_20
REMARK    5  A    between atoms: N_21  and  C_22
REMARK                            x       y       z     vdW  Elec       q    Type
REMARK                         _______ _______ _______ _____ _____    ______ ____
ROOT
ATOM      1  C   UNL     1      -2.223  12.351  23.436  0.00  0.00    +0.000 C 
ATOM      2  C   UNL     1      -3.509  12.672  23.235  0.00  0.00    +0.000 C 
ATOM      3  S   UNL     1      -4.246  13.096  21.736  0.00  0.00    +0.000 S 
ATOM      4  C   UNL     1      -5.839  12.718  22.339  0.00  0.00    +0.000 C 
ATOM      5  N   UNL     1      -6.943  12.496  21.708  0.00  0.00    +0.000 NA
ATOM      6  N   UNL     1      -5.794  12.632  23.695  0.00  0.00    +0.000 N 
ATOM      7  C   UNL     1      -4.557  12.544  24.281  0.00  0.00    +0.000 C 
ATOM      8  O   UNL     1      -4.355  12.313  25.467  0.00  0.00    +0.000 OA
ATOM      9  H   UNL     1      -6.628  12.435  24.223  0.00  0.00    +0.000 HD
ENDROOT
BRANCH   1  13
ATOM     10  C   UNL     1       0.890  10.579  19.924  0.00  0.00    +0.000 C 
ATOM     11  C   UNL     1       0.147  11.523  20.811  0.00  0.00    +0.000 A 
ATOM     12  C   UNL     1      -0.916  11.182  21.625  0.00  0.00    +0.000 A 
ATOM     13  C   UNL     1      -1.223  12.292  22.419  0.00  0.00    +0.000 A 
ATOM     14  C   UNL     1      -0.381  13.332  22.058  0.00  0.00    +0.000 A 
ATOM     15  C   UNL     1      -0.413  14.736  22.571  0.00  0.00    +0.000 C 
ATOM     16  N   UNL     1       0.482  12.863  21.050  0.00  0.00    +0.000 N 
BRANCH  16  17
ATOM     17  C   UNL     1       1.505  13.621  20.376  0.00  0.00    +0.000 A 
ATOM     18  C   UNL     1       2.799  13.728  20.911  0.00  0.00    +0.000 A 
ATOM     19  C   UNL     1       3.771  14.519  20.286  0.00  0.00    +0.000 A 
ATOM     20  C   UNL     1       3.467  15.175  19.103  0.00  0.00    +0.000 A 
ATOM     21  F   UNL     1       4.397  15.931  18.506  0.00  0.00    +0.000 F 
ATOM     22  C   UNL     1       2.208  15.058  18.535  0.00  0.00    +0.000 A 
ATOM     23  C   UNL     1       1.225  14.293  19.176  0.00  0.00    +0.000 A 
ENDBRANCH  16  17
ENDBRANCH   1  13
BRANCH   5  24
ATOM     24  C   UNL     1      -7.006  12.476  20.301  0.00  0.00    +0.000 A 
ATOM     25  C   UNL     1      -6.741  11.329  19.540  0.00  0.00    +0.000 A 
ATOM     26  C   UNL     1      -6.777  11.360  18.146  0.00  0.00    +0.000 A 
ATOM     27  C   UNL     1      -7.168  12.521  17.490  0.00  0.00    +0.000 A 
ATOM     28  C   UNL     1      -7.526  13.645  18.230  0.00  0.00    +0.000 A 
ATOM     29  C   UNL     1      -7.441  13.623  19.628  0.00  0.00    +0.000 A 
ENDBRANCH   5  24
TORSDOF 3
ENDMDL
MODEL 4
REMARK VINA RESULT:      -7.4      6.563     10.140
REMARK  Name = 
REMARK  5 active torsions:
REMARK  status: ('A' for Active; 'I' for Inactive)
REMARK    1  A    between atoms: C_1  and  C_2
REMARK    2  A    between atoms: C_4  and  C_5
REMARK    3  A    between atoms: N_9  and  C_10
REMARK    4  A    between atoms: C_19  and  C_20
REMARK    5  A    between atoms: N_21  and  C_22
REMARK                            x       y       z     vdW  Elec       q    Type
REMARK                         _______ _______ _______ _____ _____    ______ ____
ROOT
ATOM      1  C   UNL     1      -2.262  12.400  23.437  0.00  0.00    +0.000 C 
ATOM      2  C   UNL     1      -3.551  12.709  23.240  0.00  0.00    +0.000 C 
ATOM      3  S   UNL     1      -4.293  13.145  21.746  0.00  0.00    +0.000 S 
ATOM      4  C   UNL     1      -5.881  12.739  22.344  0.00  0.00    +0.000 C 
ATOM      5  N   UNL     1      -6.983  12.513  21.709  0.00  0.00    +0.000 NA
ATOM      6  N   UNL     1      -5.835  12.635  23.698  0.00  0.00    +0.000 N 
ATOM      7  C   UNL     1      -4.597  12.554  24.284  0.00  0.00    +0.000 C 
ATOM      8  O   UNL     1      -4.394  12.309  25.466  0.00  0.00    +0.000 OA
ATOM      9  H   UNL     1      -6.668  12.420  24.223  0.00  0.00    +0.000 HD
ENDROOT
BRANCH   1  13
ATOM     10  C   UNL     1       0.874  10.715  19.902  0.00  0.00    +0.000 C 
ATOM     11  C   UNL     1       0.119  11.637  20.802  0.00  0.00    +0.000 A 
ATOM     12  C   UNL     1      -0.940  11.272  21.610  0.00  0.00    +0.000 A 
ATOM     13  C   UNL     1      -1.261  12.367  22.419  0.00  0.00    +0.000 A 
ATOM     14  C   UNL     1      -0.432  13.423  22.073  0.00  0.00    +0.000 A 
ATOM     15  C   UNL     1      -0.481  14.819  22.605  0.00  0.00    +0.000 C 
ATOM     16  N   UNL     1       0.437  12.978  21.059  0.00  0.00    +0.000 N 
BRANCH  16  17
ATOM     17  C   UNL     1       1.451  13.757  20.396  0.00  0.00    +0.000 A 
ATOM     18  C   UNL     1       1.173  14.449  19.206  0.00  0.00    +0.000 A 
ATOM     19  C   UNL     1       2.179  15.150  18.530  0.00  0.00    +0.000 A 
ATOM     20  C   UNL     1       3.459  15.198  19.061  0.00  0.00    +0.000 A 
ATOM     21  F   UNL     1       4.420  15.869  18.415  0.00  0.00    +0.000 F 
ATOM     22  C   UNL     1       3.753  14.554  20.253  0.00  0.00    +0.000 A 
ATOM     23  C   UNL     1       2.755  13.824  20.912  0.00  0.00    +0.000 A 
ENDBRANCH  16  17
ENDBRANCH   1  13
BRANCH   5  24
ATOM     24  C   UNL     1      -7.045  12.512  20.301  0.00  0.00    +0.000 A 
ATOM     25  C   UNL     1      -7.323  13.662  19.549  0.00  0.00    +0.000 A 
ATOM     26  C   UNL     1      -7.414  13.613  18.158  0.00  0.00    +0.000 A 
ATOM     27  C   UNL     1      -7.139  12.427  17.489  0.00  0.00    +0.000 A 
ATOM     28  C   UNL     1      -6.769  11.295  18.212  0.00  0.00    +0.000 A 
ATOM     29  C   UNL     1      -6.728  11.338  19.612  0.00  0.00    +0.000 A 
ENDBRANCH   5  24
TORSDOF 3
ENDMDL
MODEL 5
REMARK VINA RESULT:      -7.4      4.240      8.640
REMARK  Name = 
REMARK  5 active torsions:
REMARK  status: ('A' for Active; 'I' for Inactive)
REMARK    1  A    between atoms: C_1  and  C_2
REMARK    2  A    between atoms: C_4  and  C_5
REMARK    3  A    between atoms: N_9  and  C_10
REMARK    4  A    between atoms: C_19  and  C_20
REMARK    5  A    between atoms: N_21  and  C_22
REMARK                            x       y       z     vdW  Elec       q    Type
REMARK                         _______ _______ _______ _____ _____    ______ ____
ROOT
ATOM      1  C   UNL     1       1.381   9.027  20.682  0.00  0.00    +0.000 C 
ATOM      2  C   UNL     1       0.481   9.950  20.320  0.00  0.00    +0.000 C 
ATOM      3  S   UNL     1      -0.098  10.261  18.726  0.00  0.00    +0.000 S 
ATOM      4  C   UNL     1      -1.527  11.059  19.332  0.00  0.00    +0.000 C 
ATOM      5  N   UNL     1      -2.643  11.338  18.747  0.00  0.00    +0.000 NA
ATOM      6  N   UNL     1      -1.346  11.362  20.645  0.00  0.00    +0.000 N 
ATOM      7  C   UNL     1      -0.299  10.757  21.294  0.00  0.00    +0.000 C 
ATOM      8  O   UNL     1      -0.096  10.810  22.501  0.00  0.00    +0.000 OA
ATOM      9  H   UNL     1      -2.063  11.843  21.162  0.00  0.00    +0.000 HD
ENDROOT
BRANCH   1  13
ATOM     10  C   UNL     1       3.772   7.166  16.683  0.00  0.00    +0.000 C 
ATOM     11  C   UNL     1       3.132   7.269  18.028  0.00  0.00    +0.000 A 
ATOM     12  C   UNL     1       2.721   8.445  18.627  0.00  0.00    +0.000 A 
ATOM     13  C   UNL     1       2.022   8.112  19.792  0.00  0.00    +0.000 A 
ATOM     14  C   UNL     1       2.046   6.734  19.937  0.00  0.00    +0.000 A 
ATOM     15  C   UNL     1       1.512   5.938  21.084  0.00  0.00    +0.000 C 
ATOM     16  N   UNL     1       2.741   6.194  18.838  0.00  0.00    +0.000 N 
BRANCH  16  17
ATOM     17  C   UNL     1       3.015   4.800  18.597  0.00  0.00    +0.000 A 
ATOM     18  C   UNL     1       2.162   4.020  17.801  0.00  0.00    +0.000 A 
ATOM     19  C   UNL     1       2.396   2.651  17.624  0.00  0.00    +0.000 A 
ATOM     20  C   UNL     1       3.507   2.063  18.209  0.00  0.00    +0.000 A 
ATOM     21  F   UNL     1       3.732   0.754  18.039  0.00  0.00    +0.000 F 
ATOM     22  C   UNL     1       4.386   2.817  18.971  0.00  0.00    +0.000 A 
ATOM     23  C   UNL     1       4.134   4.180  19.176  0.00  0.00    +0.000 A 
ENDBRANCH  16  17
ENDBRANCH   1  13
BRANCH   5  24
ATOM     24  C   UNL     1      -2.905  10.949  17.418  0.00  0.00    +0.000 A 
ATOM     25  C   UNL     1      -2.195   9.932  16.766  0.00  0.00    +0.000 A 
ATOM     26  C   UNL     1      -2.458   9.602  15.436  0.00  0.00    +0.000 A 
ATOM     27  C   UNL     1      -3.501  10.226  14.763  0.00  0.00    +0.000 A 
ATOM     28  C   UNL     1      -4.280  11.174  15.423  0.00  0.00    +0.000 A 
ATOM     29  C   UNL     1      -3.979  11.537  16.742  0.00  0.00    +0.000 A 
ENDBRANCH   5  24
TORSDOF 3
ENDMDL
MODEL 6
REMARK VINA RESULT:      -7.4      5.353     10.860
REMARK  Name = 
REMARK  5 active torsions:
REMARK  status: ('A' for Active; 'I' for Inactive)
REMARK    1  A    between atoms: C_1  and  C_2
REMARK    2  A    between atoms: C_4  and  C_5
REMARK    3  A    between atoms: N_9  and  C_10
REMARK    4  A    between atoms: C_19  and  C_20
REMARK    5  A    between atoms: N_21  and  C_22
REMARK                            x       y       z     vdW  Elec       q    Type
REMARK                         _______ _______ _______ _____ _____    ______ ____
ROOT
ATOM      1  C   UNL     1      -0.346  14.589  19.424  0.00  0.00    +0.000 C 
ATOM      2  C   UNL     1      -1.295  15.173  20.169  0.00  0.00    +0.000 C 
ATOM      3  S   UNL     1      -2.690  14.419  20.845  0.00  0.00    +0.000 S 
ATOM      4  C   UNL     1      -2.883  15.689  22.025  0.00  0.00    +0.000 C 
ATOM      5  N   UNL     1      -3.559  15.715  23.125  0.00  0.00    +0.000 NA
ATOM      6  N   UNL     1      -2.138  16.762  21.652  0.00  0.00    +0.000 N 
ATOM      7  C   UNL     1      -1.194  16.567  20.676  0.00  0.00    +0.000 C 
ATOM      8  O   UNL     1      -0.350  17.389  20.339  0.00  0.00    +0.000 OA
ATOM      9  H   UNL     1      -2.136  17.602  22.208  0.00  0.00    +0.000 HD
ENDROOT
BRANCH   1  13
ATOM     10  C   UNL     1      -1.706  10.129  17.573  0.00  0.00    +0.000 C 
ATOM     11  C   UNL     1      -0.893  11.213  18.202  0.00  0.00    +0.000 A 
ATOM     12  C   UNL     1      -1.246  12.548  18.251  0.00  0.00    +0.000 A 
ATOM     13  C   UNL     1      -0.320  13.208  19.064  0.00  0.00    +0.000 A 
ATOM     14  C   UNL     1       0.633  12.289  19.475  0.00  0.00    +0.000 A 
ATOM     15  C   UNL     1       1.865  12.564  20.276  0.00  0.00    +0.000 C 
ATOM     16  N   UNL     1       0.286  11.034  18.940  0.00  0.00    +0.000 N 
BRANCH  16  17
ATOM     17  C   UNL     1       1.012   9.801  19.103  0.00  0.00    +0.000 A 
ATOM     18  C   UNL     1       1.780   9.268  18.056  0.00  0.00    +0.000 A 
ATOM     19  C   UNL     1       2.431   8.036  18.198  0.00  0.00    +0.000 A 
ATOM     20  C   UNL     1       2.349   7.349  19.400  0.00  0.00    +0.000 A 
ATOM     21  F   UNL     1       2.972   6.172  19.536  0.00  0.00    +0.000 F 
ATOM     22  C   UNL     1       1.627   7.871  20.462  0.00  0.00    +0.000 A 
ATOM     23  C   UNL     1       0.948   9.087  20.310  0.00  0.00    +0.000 A 
ENDBRANCH  16  17
ENDBRANCH   1  13
BRANCH   5  24
ATOM     24  C   UNL     1      -4.262  14.587  23.595  0.00  0.00    +0.000 A 
ATOM     25  C   UNL     1      -3.664  13.581  24.365  0.00  0.00    +0.000 A 
ATOM     26  C   UNL     1      -4.384  12.460  24.779  0.00  0.00    +0.000 A 
ATOM     27  C   UNL     1      -5.744  12.373  24.504  0.00  0.00    +0.000 A 
ATOM     28  C   UNL     1      -6.378  13.407  23.820  0.00  0.00    +0.000 A 
ATOM     29  C   UNL     1      -5.639  14.506  23.364  0.00  0.00    +0.000 A 
ENDBRANCH   5  24
TORSDOF 3
ENDMDL
MODEL 7
REMARK VINA RESULT:      -7.4      7.432      9.453
REMARK  Name = 
REMARK  5 active torsions:
REMARK  status: ('A' for Active; 'I' for Inactive)
REMARK    1  A    between atoms: C_1  and  C_2
REMARK    2  A    between atoms: C_4  and  C_5
REMARK    3  A    between atoms: N_9  and  C_10
REMARK    4  A    between atoms: C_19  and  C_20
REMARK    5  A    between atoms: N_21  and  C_22
REMARK                            x       y       z     vdW  Elec       q    Type
REMARK                         _______ _______ _______ _____ _____    ______ ____
ROOT
ATOM      1  C   UNL     1       6.311  17.424  19.217  0.00  0.00    +0.000 C 
ATOM      2  C   UNL     1       7.533  16.874  19.201  0.00  0.00    +0.000 C 
ATOM      3  S   UNL     1       7.968  15.305  19.765  0.00  0.00    +0.000 S 
ATOM      4  C   UNL     1       9.429  15.297  18.811  0.00  0.00    +0.000 C 
ATOM      5  N   UNL     1      10.192  14.319  18.453  0.00  0.00    +0.000 NA
ATOM      6  N   UNL     1       9.701  16.564  18.401  0.00  0.00    +0.000 N 
ATOM      7  C   UNL     1       8.700  17.495  18.522  0.00  0.00    +0.000 C 
ATOM      8  O   UNL     1       8.737  18.631  18.064  0.00  0.00    +0.000 OA
ATOM      9  H   UNL     1      10.520  16.758  17.848  0.00  0.00    +0.000 HD
ENDROOT
BRANCH   1  13
ATOM     10  C   UNL     1       2.813  15.631  22.334  0.00  0.00    +0.000 C 
ATOM     11  C   UNL     1       3.531  16.014  21.083  0.00  0.00    +0.000 A 
ATOM     12  C   UNL     1       4.668  16.797  21.024  0.00  0.00    +0.000 A 
ATOM     13  C   UNL     1       5.130  16.785  19.704  0.00  0.00    +0.000 A 
ATOM     14  C   UNL     1       4.249  16.036  18.940  0.00  0.00    +0.000 A 
ATOM     15  C   UNL     1       4.289  15.832  17.459  0.00  0.00    +0.000 C 
ATOM     16  N   UNL     1       3.241  15.549  19.792  0.00  0.00    +0.000 N 
BRANCH  16  17
ATOM     17  C   UNL     1       2.112  14.738  19.411  0.00  0.00    +0.000 A 
ATOM     18  C   UNL     1       2.201  13.337  19.386  0.00  0.00    +0.000 A 
ATOM     19  C   UNL     1       1.123  12.556  18.952  0.00  0.00    +0.000 A 
ATOM     20  C   UNL     1      -0.063  13.170  18.577  0.00  0.00    +0.000 A 
ATOM     21  F   UNL     1      -1.094  12.424  18.162  0.00  0.00    +0.000 F 
ATOM     22  C   UNL     1      -0.190  14.550  18.626  0.00  0.00    +0.000 A 
ATOM     23  C   UNL     1       0.900  15.333  19.030  0.00  0.00    +0.000 A 
ENDBRANCH  16  17
ENDBRANCH   1  13
BRANCH   5  24
ATOM     24  C   UNL     1       9.887  12.981  18.774  0.00  0.00    +0.000 A 
ATOM     25  C   UNL     1       9.354  12.076  17.847  0.00  0.00    +0.000 A 
ATOM     26  C   UNL     1       9.030  10.769  18.214  0.00  0.00    +0.000 A 
ATOM     27  C   UNL     1       9.320  10.320  19.496  0.00  0.00    +0.000 A 
ATOM     28  C   UNL     1       9.936  11.176  20.406  0.00  0.00    +0.000 A 
ATOM     29  C   UNL     1      10.213  12.501  20.046  0.00  0.00    +0.000 A 
ENDBRANCH   5  24
TORSDOF 3
ENDMDL
MODEL 8
REMARK VINA RESULT:      -7.1      6.254      9.090
REMARK  Name = 
REMARK  5 active torsions:
REMARK  status: ('A' for Active; 'I' for Inactive)
REMARK    1  A    between atoms: C_1  and  C_2
REMARK    2  A    between atoms: C_4  and  C_5
REMARK    3  A    between atoms: N_9  and  C_10
REMARK    4  A    between atoms: C_19  and  C_20
REMARK    5  A    between atoms: N_21  and  C_22
REMARK                            x       y       z     vdW  Elec       q    Type
REMARK                         _______ _______ _______ _____ _____    ______ ____
ROOT
ATOM      1  C   UNL     1       2.410  15.303  19.569  0.00  0.00    +0.000 C 
ATOM      2  C   UNL     1       1.608  14.351  19.075  0.00  0.00    +0.000 C 
ATOM      3  S   UNL     1       2.044  12.728  18.690  0.00  0.00    +0.000 S 
ATOM      4  C   UNL     1       0.383  12.198  18.757  0.00  0.00    +0.000 C 
ATOM      5  N   UNL     1      -0.114  11.012  18.866  0.00  0.00    +0.000 NA
ATOM      6  N   UNL     1      -0.433  13.284  18.715  0.00  0.00    +0.000 N 
ATOM      7  C   UNL     1       0.137  14.512  18.935  0.00  0.00    +0.000 C 
ATOM      8  O   UNL     1      -0.482  15.560  19.078  0.00  0.00    +0.000 OA
ATOM      9  H   UNL     1      -1.434  13.172  18.729  0.00  0.00    +0.000 HD
ENDROOT
BRANCH   1  13
ATOM     10  C   UNL     1       6.658  14.671  22.163  0.00  0.00    +0.000 C 
ATOM     11  C   UNL     1       5.701  14.804  21.024  0.00  0.00    +0.000 A 
ATOM     12  C   UNL     1       4.324  14.822  21.138  0.00  0.00    +0.000 A 
ATOM     13  C   UNL     1       3.793  15.131  19.882  0.00  0.00    +0.000 A 
ATOM     14  C   UNL     1       4.841  15.255  18.983  0.00  0.00    +0.000 A 
ATOM     15  C   UNL     1       4.742  15.482  17.509  0.00  0.00    +0.000 C 
ATOM     16  N   UNL     1       6.043  15.050  19.687  0.00  0.00    +0.000 N 
BRANCH  16  17
ATOM     17  C   UNL     1       7.374  15.071  19.136  0.00  0.00    +0.000 A 
ATOM     18  C   UNL     1       8.091  16.272  19.018  0.00  0.00    +0.000 A 
ATOM     19  C   UNL     1       9.358  16.297  18.422  0.00  0.00    +0.000 A 
ATOM     20  C   UNL     1       9.931  15.116  17.976  0.00  0.00    +0.000 A 
ATOM     21  F   UNL     1      11.142  15.139  17.407  0.00  0.00    +0.000 F 
ATOM     22  C   UNL     1       9.260  13.910  18.113  0.00  0.00    +0.000 A 
ATOM     23  C   UNL     1       7.979  13.889  18.679  0.00  0.00    +0.000 A 
ENDBRANCH  16  17
ENDBRANCH   1  13
BRANCH   5  24
ATOM     24  C   UNL     1       0.702   9.872  19.013  0.00  0.00    +0.000 A 
ATOM     25  C   UNL     1       0.870   9.207  20.235  0.00  0.00    +0.000 A 
ATOM     26  C   UNL     1       1.717   8.104  20.349  0.00  0.00    +0.000 A 
ATOM     27  C   UNL     1       2.341   7.593  19.217  0.00  0.00    +0.000 A 
ATOM     28  C   UNL     1       2.113   8.183  17.976  0.00  0.00    +0.000 A 
ATOM     29  C   UNL     1       1.301   9.320  17.877  0.00  0.00    +0.000 A 
ENDBRANCH   5  24
TORSDOF 3
ENDMDL
MODEL 9
REMARK VINA RESULT:      -7.1      6.186      9.005
REMARK  Name = 
REMARK  5 active torsions:
REMARK  status: ('A' for Active; 'I' for Inactive)
REMARK    1  A    between atoms: C_1  and  C_2
REMARK    2  A    between atoms: C_4  and  C_5
REMARK    3  A    between atoms: N_9  and  C_10
REMARK    4  A    between atoms: C_19  and  C_20
REMARK    5  A    between atoms: N_21  and  C_22
REMARK                            x       y       z     vdW  Elec       q    Type
REMARK                         _______ _______ _______ _____ _____    ______ ____
ROOT
ATOM      1  C   UNL     1       2.234  15.297  19.626  0.00  0.00    +0.000 C 
ATOM      2  C   UNL     1       1.434  14.338  19.141  0.00  0.00    +0.000 C 
ATOM      3  S   UNL     1       1.892  12.739  18.690  0.00  0.00    +0.000 S 
ATOM      4  C   UNL     1       0.250  12.164  18.818  0.00  0.00    +0.000 C 
ATOM      5  N   UNL     1      -0.212  10.962  18.915  0.00  0.00    +0.000 NA
ATOM      6  N   UNL     1      -0.595  13.228  18.846  0.00  0.00    +0.000 N 
ATOM      7  C   UNL     1      -0.046  14.464  19.075  0.00  0.00    +0.000 C 
ATOM      8  O   UNL     1      -0.683  15.491  19.277  0.00  0.00    +0.000 OA
ATOM      9  H   UNL     1      -1.591  13.089  18.902  0.00  0.00    +0.000 HD
ENDROOT
BRANCH   1  13
ATOM     10  C   UNL     1       6.618  14.750  22.004  0.00  0.00    +0.000 C 
ATOM     11  C   UNL     1       5.603  14.864  20.915  0.00  0.00    +0.000 A 
ATOM     12  C   UNL     1       4.233  14.854  21.097  0.00  0.00    +0.000 A 
ATOM     13  C   UNL     1       3.634  15.153  19.869  0.00  0.00    +0.000 A 
ATOM     14  C   UNL     1       4.633  15.297  18.919  0.00  0.00    +0.000 A 
ATOM     15  C   UNL     1       4.457  15.522  17.452  0.00  0.00    +0.000 C 
ATOM     16  N   UNL     1       5.873  15.116  19.562  0.00  0.00    +0.000 N 
BRANCH  16  17
ATOM     17  C   UNL     1       7.174  15.164  18.945  0.00  0.00    +0.000 A 
ATOM     18  C   UNL     1       7.853  13.987  18.594  0.00  0.00    +0.000 A 
ATOM     19  C   UNL     1       9.145  14.037  18.055  0.00  0.00    +0.000 A 
ATOM     20  C   UNL     1       9.748  15.264  17.829  0.00  0.00    +0.000 A 
ATOM     21  F   UNL     1      10.983  15.312  17.314  0.00  0.00    +0.000 F 
ATOM     22  C   UNL     1       9.085  16.443  18.134  0.00  0.00    +0.000 A 
ATOM     23  C   UNL     1       7.806  16.393  18.703  0.00  0.00    +0.000 A 
ENDBRANCH  16  17
ENDBRANCH   1  13
BRANCH   5  24
ATOM     24  C   UNL     1       0.638   9.841  18.991  0.00  0.00    +0.000 A 
ATOM     25  C   UNL     1       1.349   9.346  17.889  0.00  0.00    +0.000 A 
ATOM     26  C   UNL     1       2.151   8.210  17.996  0.00  0.00    +0.000 A 
ATOM     27  C   UNL     1       2.326   7.601  19.232  0.00  0.00    +0.000 A 
ATOM     28  C   UNL     1       1.703   8.133  20.359  0.00  0.00    +0.000 A 
ATOM     29  C   UNL     1       0.859   9.244  20.236  0.00  0.00    +0.000 A 
ENDBRANCH   5  24
TORSDOF 3
ENDMDL
