MODEL 1
REMARK VINA RESULT:      -8.3      0.000      0.000
REMARK  Name = 
REMARK  2 active torsions:
REMARK  status: ('A' for Active; 'I' for Inactive)
REMARK    1  A    between atoms: N_11  and  C_12
REMARK    2  A    between atoms: C_12  and  C_13
REMARK                            x       y       z     vdW  Elec       q    Type
REMARK                         _______ _______ _______ _____ _____    ______ ____
ROOT
ATOM      1  O   UNL     1       2.389   6.536  17.998  0.00  0.00    +0.000 OA
ATOM      2  C   UNL     1       3.041   5.626  18.476  0.00  0.00    +0.000 C 
ATOM      3  C   UNL     1       2.500   4.605  19.375  0.00  0.00    +0.000 A 
ATOM      4  C   UNL     1       1.218   4.415  19.853  0.00  0.00    +0.000 A 
ATOM      5  C   UNL     1       1.016   3.347  20.734  0.00  0.00    +0.000 A 
ATOM      6  C   UNL     1       2.086   2.509  21.114  0.00  0.00    +0.000 A 
ATOM      7  C   UNL     1       3.376   2.726  20.620  0.00  0.00    +0.000 A 
ATOM      8  C   UNL     1       3.548   3.784  19.748  0.00  0.00    +0.000 A 
ATOM      9  C   UNL     1       4.755   4.279  19.089  0.00  0.00    +0.000 C 
ATOM     10  O   UNL     1       5.864   3.806  19.242  0.00  0.00    +0.000 OA
ATOM     11  N   UNL     1       4.375   5.361  18.348  0.00  0.00    +0.000 N 
ENDROOT
BRANCH  11  12
ATOM     12  C   UNL     1       5.286   6.142  17.541  0.00  0.00    +0.000 C 
BRANCH  12  13
ATOM     13  C   UNL     1       5.584   5.458  16.248  0.00  0.00    +0.000 A 
ATOM     14  N   UNL     1       4.897   4.533  15.598  0.00  0.00    +0.000 NA
ATOM     15  C   UNL     1       5.623   4.339  14.448  0.00  0.00    +0.000 A 
ATOM     16  C   UNL     1       5.399   3.506  13.344  0.00  0.00    +0.000 A 
ATOM     17  C   UNL     1       6.320   3.545  12.285  0.00  0.00    +0.000 A 
ATOM     18  C   UNL     1       7.442   4.382  12.332  0.00  0.00    +0.000 A 
ATOM     19  C   UNL     1       7.688   5.210  13.437  0.00  0.00    +0.000 A 
ATOM     20  C   UNL     1       6.746   5.149  14.457  0.00  0.00    +0.000 A 
ATOM     21  O   UNL     1       6.734   5.867  15.616  0.00  0.00    +0.000 OA
ENDBRANCH  12  13
ENDBRANCH  11  12
TORSDOF 2
ENDMDL
MODEL 2
REMARK VINA RESULT:      -8.3      0.208      1.915
REMARK  Name = 
REMARK  2 active torsions:
REMARK  status: ('A' for Active; 'I' for Inactive)
REMARK    1  A    between atoms: N_11  and  C_12
REMARK    2  A    between atoms: C_12  and  C_13
REMARK                            x       y       z     vdW  Elec       q    Type
REMARK                         _______ _______ _______ _____ _____    ______ ____
ROOT
ATOM      1  O   UNL     1       5.899   3.664  19.049  0.00  0.00    +0.000 OA
ATOM      2  C   UNL     1       4.857   4.291  19.001  0.00  0.00    +0.000 C 
ATOM      3  C   UNL     1       3.623   3.896  19.682  0.00  0.00    +0.000 A 
ATOM      4  C   UNL     1       3.353   2.816  20.502  0.00  0.00    +0.000 A 
ATOM      5  C   UNL     1       2.046   2.694  20.987  0.00  0.00    +0.000 A 
ATOM      6  C   UNL     1       1.054   3.636  20.644  0.00  0.00    +0.000 A 
ATOM      7  C   UNL     1       1.352   4.717  19.809  0.00  0.00    +0.000 A 
ATOM      8  C   UNL     1       2.650   4.819  19.347  0.00  0.00    +0.000 A 
ATOM      9  C   UNL     1       3.261   5.802  18.453  0.00  0.00    +0.000 C 
ATOM     10  O   UNL     1       2.664   6.725  17.937  0.00  0.00    +0.000 OA
ATOM     11  N   UNL     1       4.566   5.430  18.304  0.00  0.00    +0.000 N 
ENDROOT
BRANCH  11  12
ATOM     12  C   UNL     1       5.519   6.149  17.487  0.00  0.00    +0.000 C 
BRANCH  12  13
ATOM     13  C   UNL     1       5.747   5.453  16.186  0.00  0.00    +0.000 A 
ATOM     14  N   UNL     1       5.016   4.537  15.572  0.00  0.00    +0.000 NA
ATOM     15  C   UNL     1       5.687   4.325  14.392  0.00  0.00    +0.000 A 
ATOM     16  C   UNL     1       5.399   3.492  13.304  0.00  0.00    +0.000 A 
ATOM     17  C   UNL     1       6.273   3.510  12.204  0.00  0.00    +0.000 A 
ATOM     18  C   UNL     1       7.410   4.328  12.197  0.00  0.00    +0.000 A 
ATOM     19  C   UNL     1       7.719   5.157  13.285  0.00  0.00    +0.000 A 
ATOM     20  C   UNL     1       6.823   5.116  14.346  0.00  0.00    +0.000 A 
ATOM     21  O   UNL     1       6.875   5.840  15.501  0.00  0.00    +0.000 OA
ENDBRANCH  12  13
ENDBRANCH  11  12
TORSDOF 2
ENDMDL
MODEL 3
REMARK VINA RESULT:      -8.1      1.286      1.709
REMARK  Name = 
REMARK  2 active torsions:
REMARK  status: ('A' for Active; 'I' for Inactive)
REMARK    1  A    between atoms: N_11  and  C_12
REMARK    2  A    between atoms: C_12  and  C_13
REMARK                            x       y       z     vdW  Elec       q    Type
REMARK                         _______ _______ _______ _____ _____    ______ ____
ROOT
ATOM      1  O   UNL     1       5.197   7.098  17.527  0.00  0.00    +0.000 OA
ATOM      2  C   UNL     1       4.899   6.113  18.177  0.00  0.00    +0.000 C 
ATOM      3  C   UNL     1       3.673   5.981  18.964  0.00  0.00    +0.000 A 
ATOM      4  C   UNL     1       2.618   6.856  19.140  0.00  0.00    +0.000 A 
ATOM      5  C   UNL     1       1.584   6.448  19.991  0.00  0.00    +0.000 A 
ATOM      6  C   UNL     1       1.631   5.196  20.639  0.00  0.00    +0.000 A 
ATOM      7  C   UNL     1       2.712   4.331  20.449  0.00  0.00    +0.000 A 
ATOM      8  C   UNL     1       3.717   4.754  19.600  0.00  0.00    +0.000 A 
ATOM      9  C   UNL     1       4.970   4.103  19.220  0.00  0.00    +0.000 C 
ATOM     10  O   UNL     1       5.340   3.026  19.643  0.00  0.00    +0.000 OA
ATOM     11  N   UNL     1       5.609   4.961  18.371  0.00  0.00    +0.000 N 
ENDROOT
BRANCH  11  12
ATOM     12  C   UNL     1       6.894   4.685  17.767  0.00  0.00    +0.000 C 
BRANCH  12  13
ATOM     13  C   UNL     1       6.758   4.432  16.302  0.00  0.00    +0.000 A 
ATOM     14  N   UNL     1       5.884   3.689  15.645  0.00  0.00    +0.000 NA
ATOM     15  C   UNL     1       6.211   3.893  14.326  0.00  0.00    +0.000 A 
ATOM     16  C   UNL     1       5.635   3.405  13.146  0.00  0.00    +0.000 A 
ATOM     17  C   UNL     1       6.180   3.820  11.920  0.00  0.00    +0.000 A 
ATOM     18  C   UNL     1       7.278   4.690  11.873  0.00  0.00    +0.000 A 
ATOM     19  C   UNL     1       7.873   5.175  13.047  0.00  0.00    +0.000 A 
ATOM     20  C   UNL     1       7.296   4.748  14.236  0.00  0.00    +0.000 A 
ATOM     21  O   UNL     1       7.662   5.093  15.504  0.00  0.00    +0.000 OA
ENDBRANCH  12  13
ENDBRANCH  11  12
TORSDOF 2
ENDMDL
MODEL 4
REMARK VINA RESULT:      -8.1      0.835      1.344
REMARK  Name = 
REMARK  2 active torsions:
REMARK  status: ('A' for Active; 'I' for Inactive)
REMARK    1  A    between atoms: N_11  and  C_12
REMARK    2  A    between atoms: C_12  and  C_13
REMARK                            x       y       z     vdW  Elec       q    Type
REMARK                         _______ _______ _______ _____ _____    ______ ____
ROOT
ATOM      1  O   UNL     1       2.905   6.847  17.861  0.00  0.00    +0.000 OA
ATOM      2  C   UNL     1       3.419   5.836  18.303  0.00  0.00    +0.000 C 
ATOM      3  C   UNL     1       2.695   4.787  19.021  0.00  0.00    +0.000 A 
ATOM      4  C   UNL     1       1.354   4.672  19.335  0.00  0.00    +0.000 A 
ATOM      5  C   UNL     1       0.963   3.545  20.068  0.00  0.00    +0.000 A 
ATOM      6  C   UNL     1       1.908   2.576  20.466  0.00  0.00    +0.000 A 
ATOM      7  C   UNL     1       3.260   2.718  20.140  0.00  0.00    +0.000 A 
ATOM      8  C   UNL     1       3.620   3.836  19.412  0.00  0.00    +0.000 A 
ATOM      9  C   UNL     1       4.933   4.278  18.945  0.00  0.00    +0.000 C 
ATOM     10  O   UNL     1       5.973   3.690  19.163  0.00  0.00    +0.000 OA
ATOM     11  N   UNL     1       4.733   5.460  18.290  0.00  0.00    +0.000 N 
ENDROOT
BRANCH  11  12
ATOM     12  C   UNL     1       5.793   6.228  17.676  0.00  0.00    +0.000 C 
BRANCH  12  13
ATOM     13  C   UNL     1       6.107   5.716  16.309  0.00  0.00    +0.000 A 
ATOM     14  N   UNL     1       7.190   5.881  15.567  0.00  0.00    +0.000 NA
ATOM     15  C   UNL     1       6.931   5.131  14.446  0.00  0.00    +0.000 A 
ATOM     16  C   UNL     1       7.705   4.879  13.305  0.00  0.00    +0.000 A 
ATOM     17  C   UNL     1       7.175   4.033  12.317  0.00  0.00    +0.000 A 
ATOM     18  C   UNL     1       5.903   3.464  12.458  0.00  0.00    +0.000 A 
ATOM     19  C   UNL     1       5.111   3.719  13.587  0.00  0.00    +0.000 A 
ATOM     20  C   UNL     1       5.678   4.552  14.544  0.00  0.00    +0.000 A 
ATOM     21  O   UNL     1       5.135   4.930  15.736  0.00  0.00    +0.000 OA
ENDBRANCH  12  13
ENDBRANCH  11  12
TORSDOF 2
ENDMDL
MODEL 5
REMARK VINA RESULT:      -8.0      1.407      2.428
REMARK  Name = 
REMARK  2 active torsions:
REMARK  status: ('A' for Active; 'I' for Inactive)
REMARK    1  A    between atoms: N_11  and  C_12
REMARK    2  A    between atoms: C_12  and  C_13
REMARK                            x       y       z     vdW  Elec       q    Type
REMARK                         _______ _______ _______ _____ _____    ______ ____
ROOT
ATOM      1  O   UNL     1       5.330   3.171  19.647  0.00  0.00    +0.000 OA
ATOM      2  C   UNL     1       5.039   4.266  19.204  0.00  0.00    +0.000 C 
ATOM      3  C   UNL     1       3.818   4.998  19.544  0.00  0.00    +0.000 A 
ATOM      4  C   UNL     1       2.783   4.672  20.400  0.00  0.00    +0.000 A 
ATOM      5  C   UNL     1       1.722   5.580  20.494  0.00  0.00    +0.000 A 
ATOM      6  C   UNL     1       1.720   6.773  19.740  0.00  0.00    +0.000 A 
ATOM      7  C   UNL     1       2.778   7.077  18.878  0.00  0.00    +0.000 A 
ATOM      8  C   UNL     1       3.815   6.167  18.806  0.00  0.00    +0.000 A 
ATOM      9  C   UNL     1       5.031   6.182  17.995  0.00  0.00    +0.000 C 
ATOM     10  O   UNL     1       5.313   7.053  17.196  0.00  0.00    +0.000 OA
ATOM     11  N   UNL     1       5.707   5.033  18.291  0.00  0.00    +0.000 N 
ENDROOT
BRANCH  11  12
ATOM     12  C   UNL     1       6.972   4.668  17.692  0.00  0.00    +0.000 C 
BRANCH  12  13
ATOM     13  C   UNL     1       6.822   4.418  16.227  0.00  0.00    +0.000 A 
ATOM     14  N   UNL     1       5.955   3.658  15.579  0.00  0.00    +0.000 NA
ATOM     15  C   UNL     1       6.260   3.875  14.257  0.00  0.00    +0.000 A 
ATOM     16  C   UNL     1       5.679   3.379  13.083  0.00  0.00    +0.000 A 
ATOM     17  C   UNL     1       6.199   3.811  11.851  0.00  0.00    +0.000 A 
ATOM     18  C   UNL     1       7.277   4.704  11.794  0.00  0.00    +0.000 A 
ATOM     19  C   UNL     1       7.878   5.197  12.961  0.00  0.00    +0.000 A 
ATOM     20  C   UNL     1       7.326   4.753  14.156  0.00  0.00    +0.000 A 
ATOM     21  O   UNL     1       7.701   5.101  15.421  0.00  0.00    +0.000 OA
ENDBRANCH  12  13
ENDBRANCH  11  12
TORSDOF 2
ENDMDL
MODEL 6
REMARK VINA RESULT:      -7.9      0.862      2.332
REMARK  Name = 
REMARK  2 active torsions:
REMARK  status: ('A' for Active; 'I' for Inactive)
REMARK    1  A    between atoms: N_11  and  C_12
REMARK    2  A    between atoms: C_12  and  C_13
REMARK                            x       y       z     vdW  Elec       q    Type
REMARK                         _______ _______ _______ _____ _____    ______ ____
ROOT
ATOM      1  O   UNL     1       6.024   3.641  19.028  0.00  0.00    +0.000 OA
ATOM      2  C   UNL     1       5.011   4.309  18.934  0.00  0.00    +0.000 C 
ATOM      3  C   UNL     1       3.702   3.902  19.448  0.00  0.00    +0.000 A 
ATOM      4  C   UNL     1       3.318   2.766  20.134  0.00  0.00    +0.000 A 
ATOM      5  C   UNL     1       1.965   2.650  20.473  0.00  0.00    +0.000 A 
ATOM      6  C   UNL     1       1.042   3.656  20.120  0.00  0.00    +0.000 A 
ATOM      7  C   UNL     1       1.455   4.795  19.422  0.00  0.00    +0.000 A 
ATOM      8  C   UNL     1       2.796   4.888  19.103  0.00  0.00    +0.000 A 
ATOM      9  C   UNL     1       3.524   5.922  18.369  0.00  0.00    +0.000 C 
ATOM     10  O   UNL     1       3.010   6.909  17.883  0.00  0.00    +0.000 OA
ATOM     11  N   UNL     1       4.827   5.515  18.319  0.00  0.00    +0.000 N 
ENDROOT
BRANCH  11  12
ATOM     12  C   UNL     1       5.879   6.267  17.671  0.00  0.00    +0.000 C 
BRANCH  12  13
ATOM     13  C   UNL     1       6.154   5.739  16.302  0.00  0.00    +0.000 A 
ATOM     14  N   UNL     1       7.229   5.868  15.541  0.00  0.00    +0.000 NA
ATOM     15  C   UNL     1       6.930   5.119  14.429  0.00  0.00    +0.000 A 
ATOM     16  C   UNL     1       7.677   4.839  13.277  0.00  0.00    +0.000 A 
ATOM     17  C   UNL     1       7.107   4.002  12.304  0.00  0.00    +0.000 A 
ATOM     18  C   UNL     1       5.822   3.470  12.469  0.00  0.00    +0.000 A 
ATOM     19  C   UNL     1       5.057   3.754  13.610  0.00  0.00    +0.000 A 
ATOM     20  C   UNL     1       5.663   4.576  14.552  0.00  0.00    +0.000 A 
ATOM     21  O   UNL     1       5.151   4.977  15.751  0.00  0.00    +0.000 OA
ENDBRANCH  12  13
ENDBRANCH  11  12
TORSDOF 2
ENDMDL
MODEL 7
REMARK VINA RESULT:      -7.9      1.558      2.273
REMARK  Name = 
REMARK  2 active torsions:
REMARK  status: ('A' for Active; 'I' for Inactive)
REMARK    1  A    between atoms: N_11  and  C_12
REMARK    2  A    between atoms: C_12  and  C_13
REMARK                            x       y       z     vdW  Elec       q    Type
REMARK                         _______ _______ _______ _____ _____    ______ ____
ROOT
ATOM      1  O   UNL     1       5.402   7.086  17.211  0.00  0.00    +0.000 OA
ATOM      2  C   UNL     1       5.065   6.165  17.933  0.00  0.00    +0.000 C 
ATOM      3  C   UNL     1       3.823   6.134  18.707  0.00  0.00    +0.000 A 
ATOM      4  C   UNL     1       2.793   7.052  18.792  0.00  0.00    +0.000 A 
ATOM      5  C   UNL     1       1.734   6.745  19.655  0.00  0.00    +0.000 A 
ATOM      6  C   UNL     1       1.733   5.549  20.403  0.00  0.00    +0.000 A 
ATOM      7  C   UNL     1       2.790   4.640  20.303  0.00  0.00    +0.000 A 
ATOM      8  C   UNL     1       3.820   4.963  19.441  0.00  0.00    +0.000 A 
ATOM      9  C   UNL     1       5.058   4.247  19.137  0.00  0.00    +0.000 C 
ATOM     10  O   UNL     1       5.389   3.197  19.652  0.00  0.00    +0.000 OA
ATOM     11  N   UNL     1       5.736   5.013  18.232  0.00  0.00    +0.000 N 
ENDROOT
BRANCH  11  12
ATOM     12  C   UNL     1       7.021   4.652  17.675  0.00  0.00    +0.000 C 
BRANCH  12  13
ATOM     13  C   UNL     1       6.976   4.633  16.183  0.00  0.00    +0.000 A 
ATOM     14  N   UNL     1       7.694   5.310  15.302  0.00  0.00    +0.000 NA
ATOM     15  C   UNL     1       7.255   4.832  14.091  0.00  0.00    +0.000 A 
ATOM     16  C   UNL     1       7.650   5.135  12.782  0.00  0.00    +0.000 A 
ATOM     17  C   UNL     1       7.028   4.451  11.725  0.00  0.00    +0.000 A 
ATOM     18  C   UNL     1       6.029   3.498  11.968  0.00  0.00    +0.000 A 
ATOM     19  C   UNL     1       5.613   3.196  13.273  0.00  0.00    +0.000 A 
ATOM     20  C   UNL     1       6.263   3.887  14.288  0.00  0.00    +0.000 A 
ATOM     21  O   UNL     1       6.069   3.759  15.632  0.00  0.00    +0.000 OA
ENDBRANCH  12  13
ENDBRANCH  11  12
TORSDOF 2
ENDMDL
MODEL 8
REMARK VINA RESULT:      -7.5      1.440      1.833
REMARK  Name = 
REMARK  2 active torsions:
REMARK  status: ('A' for Active; 'I' for Inactive)
REMARK    1  A    between atoms: N_11  and  C_12
REMARK    2  A    between atoms: C_12  and  C_13
REMARK                            x       y       z     vdW  Elec       q    Type
REMARK                         _______ _______ _______ _____ _____    ______ ____
ROOT
ATOM      1  O   UNL     1       3.843   5.730  16.867  0.00  0.00    +0.000 OA
ATOM      2  C   UNL     1       3.898   4.792  17.641  0.00  0.00    +0.000 C 
ATOM      3  C   UNL     1       2.728   4.111  18.197  0.00  0.00    +0.000 A 
ATOM      4  C   UNL     1       1.378   4.323  17.986  0.00  0.00    +0.000 A 
ATOM      5  C   UNL     1       0.486   3.511  18.696  0.00  0.00    +0.000 A 
ATOM      6  C   UNL     1       0.955   2.525  19.589  0.00  0.00    +0.000 A 
ATOM      7  C   UNL     1       2.326   2.335  19.788  0.00  0.00    +0.000 A 
ATOM      8  C   UNL     1       3.187   3.144  19.072  0.00  0.00    +0.000 A 
ATOM      9  C   UNL     1       4.647   3.208  19.077  0.00  0.00    +0.000 C 
ATOM     10  O   UNL     1       5.363   2.520  19.777  0.00  0.00    +0.000 OA
ATOM     11  N   UNL     1       4.993   4.197  18.201  0.00  0.00    +0.000 N 
ENDROOT
BRANCH  11  12
ATOM     12  C   UNL     1       6.359   4.579  17.918  0.00  0.00    +0.000 C 
BRANCH  12  13
ATOM     13  C   UNL     1       6.604   4.657  16.447  0.00  0.00    +0.000 A 
ATOM     14  N   UNL     1       7.371   5.483  15.756  0.00  0.00    +0.000 NA
ATOM     15  C   UNL     1       7.247   5.035  14.463  0.00  0.00    +0.000 A 
ATOM     16  C   UNL     1       7.837   5.477  13.272  0.00  0.00    +0.000 A 
ATOM     17  C   UNL     1       7.534   4.790  12.086  0.00  0.00    +0.000 A 
ATOM     18  C   UNL     1       6.656   3.698  12.086  0.00  0.00    +0.000 A 
ATOM     19  C   UNL     1       6.046   3.254  13.268  0.00  0.00    +0.000 A 
ATOM     20  C   UNL     1       6.382   3.955  14.419  0.00  0.00    +0.000 A 
ATOM     21  O   UNL     1       5.955   3.709  15.691  0.00  0.00    +0.000 OA
ENDBRANCH  12  13
ENDBRANCH  11  12
TORSDOF 2
ENDMDL
MODEL 9
REMARK VINA RESULT:      -7.5      2.775      6.509
REMARK  Name = 
REMARK  2 active torsions:
REMARK  status: ('A' for Active; 'I' for Inactive)
REMARK    1  A    between atoms: N_11  and  C_12
REMARK    2  A    between atoms: C_12  and  C_13
REMARK                            x       y       z     vdW  Elec       q    Type
REMARK                         _______ _______ _______ _____ _____    ______ ____
ROOT
ATOM      1  O   UNL     1       2.516   3.939  17.175  0.00  0.00    +0.000 OA
ATOM      2  C   UNL     1       3.611   4.347  17.519  0.00  0.00    +0.000 C 
ATOM      3  C   UNL     1       4.798   4.348  16.663  0.00  0.00    +0.000 A 
ATOM      4  C   UNL     1       4.963   3.943  15.352  0.00  0.00    +0.000 A 
ATOM      5  C   UNL     1       6.249   4.043  14.809  0.00  0.00    +0.000 A 
ATOM      6  C   UNL     1       7.324   4.535  15.579  0.00  0.00    +0.000 A 
ATOM      7  C   UNL     1       7.132   4.933  16.905  0.00  0.00    +0.000 A 
ATOM      8  C   UNL     1       5.853   4.829  17.416  0.00  0.00    +0.000 A 
ATOM      9  C   UNL     1       5.340   5.135  18.751  0.00  0.00    +0.000 C 
ATOM     10  O   UNL     1       6.022   5.536  19.673  0.00  0.00    +0.000 OA
ATOM     11  N   UNL     1       4.008   4.834  18.732  0.00  0.00    +0.000 N 
ENDROOT
BRANCH  11  12
ATOM     12  C   UNL     1       3.132   4.996  19.870  0.00  0.00    +0.000 C 
BRANCH  12  13
ATOM     13  C   UNL     1       2.457   6.328  19.847  0.00  0.00    +0.000 A 
ATOM     14  N   UNL     1       1.757   6.943  20.786  0.00  0.00    +0.000 NA
ATOM     15  C   UNL     1       1.448   8.155  20.217  0.00  0.00    +0.000 A 
ATOM     16  C   UNL     1       0.748   9.259  20.721  0.00  0.00    +0.000 A 
ATOM     17  C   UNL     1       0.613  10.391  19.901  0.00  0.00    +0.000 A 
ATOM     18  C   UNL     1       1.152  10.416  18.608  0.00  0.00    +0.000 A 
ATOM     19  C   UNL     1       1.843   9.313  18.085  0.00  0.00    +0.000 A 
ATOM     20  C   UNL     1       1.962   8.219  18.934  0.00  0.00    +0.000 A 
ATOM     21  O   UNL     1       2.606   7.043  18.682  0.00  0.00    +0.000 OA
ENDBRANCH  12  13
ENDBRANCH  11  12
TORSDOF 2
ENDMDL
