MODEL 1
REMARK VINA RESULT:      -8.2      0.000      0.000
REMARK  Name = 
REMARK  3 active torsions:
REMARK  status: ('A' for Active; 'I' for Inactive)
REMARK    1  A    between atoms: O_1  and  C_2
REMARK    2  A    between atoms: C_9  and  C_10
REMARK    3  A    between atoms: C_10  and  N_11
REMARK                            x       y       z     vdW  Elec       q    Type
REMARK                         _______ _______ _______ _____ _____    ______ ____
ROOT
ATOM      1  C   UNL     1       1.805   2.447  18.375  0.00  0.00    +0.000 A 
ATOM      2  C   UNL     1       3.130   2.041  18.240  0.00  0.00    +0.000 A 
ATOM      3  C   UNL     1       4.119   2.995  17.997  0.00  0.00    +0.000 A 
ATOM      4  C   UNL     1       3.780   4.349  17.884  0.00  0.00    +0.000 A 
ATOM      5  C   UNL     1       2.449   4.750  18.083  0.00  0.00    +0.000 A 
ATOM      6  C   UNL     1       1.459   3.794  18.307  0.00  0.00    +0.000 A 
ATOM      7  O   UNL     1       2.039   6.062  18.028  0.00  0.00    +0.000 OA
ATOM      8  C   UNL     1       3.111   7.019  18.102  0.00  0.00    +0.000 C 
ATOM      9  C   UNL     1       4.192   6.650  17.081  0.00  0.00    +0.000 C 
ATOM     10  C   UNL     1       4.843   5.361  17.560  0.00  0.00    +0.000 C 
ENDROOT
BRANCH   1  11
ATOM     11  O   UNL     1       0.808   1.537  18.574  0.00  0.00    +0.000 OA
ATOM     12  H   UNL     1       0.035   1.805  18.050  0.00  0.00    +0.000 HD
ENDBRANCH   1  11
BRANCH   8  13
ATOM     13  C   UNL     1       2.585   8.450  17.825  0.00  0.00    +0.000 C 
BRANCH  13  14
ATOM     14  N   UNL     1       1.455   8.927  18.657  0.00  0.00    +0.000 NA
ATOM     15  C   UNL     1       1.302  10.384  18.499  0.00  0.00    +0.000 C 
ATOM     16  C   UNL     1       0.026  10.878  19.188  0.00  0.00    +0.000 C 
ATOM     17  C   UNL     1      -0.015  10.455  20.632  0.00  0.00    +0.000 A 
ATOM     18  C   UNL     1      -0.811  11.149  21.555  0.00  0.00    +0.000 A 
ATOM     19  C   UNL     1      -0.862  10.742  22.885  0.00  0.00    +0.000 A 
ATOM     20  C   UNL     1      -0.132   9.631  23.303  0.00  0.00    +0.000 A 
ATOM     21  C   UNL     1       0.652   8.928  22.387  0.00  0.00    +0.000 A 
ATOM     22  C   UNL     1       0.714   9.328  21.043  0.00  0.00    +0.000 A 
ATOM     23  C   UNL     1       1.625   8.585  20.084  0.00  0.00    +0.000 C 
ENDBRANCH  13  14
ENDBRANCH   8  13
TORSDOF 3
ENDMDL
MODEL 2
REMARK VINA RESULT:      -7.8      1.893      7.280
REMARK  Name = 
REMARK  3 active torsions:
REMARK  status: ('A' for Active; 'I' for Inactive)
REMARK    1  A    between atoms: O_1  and  C_2
REMARK    2  A    between atoms: C_9  and  C_10
REMARK    3  A    between atoms: C_10  and  N_11
REMARK                            x       y       z     vdW  Elec       q    Type
REMARK                         _______ _______ _______ _____ _____    ______ ____
ROOT
ATOM      1  C   UNL     1      -0.030   9.805  22.911  0.00  0.00    +0.000 A 
ATOM      2  C   UNL     1      -0.801  10.876  22.466  0.00  0.00    +0.000 A 
ATOM      3  C   UNL     1      -0.706  11.284  21.134  0.00  0.00    +0.000 A 
ATOM      4  C   UNL     1       0.162  10.624  20.255  0.00  0.00    +0.000 A 
ATOM      5  C   UNL     1       0.887   9.508  20.703  0.00  0.00    +0.000 A 
ATOM      6  C   UNL     1       0.805   9.113  22.039  0.00  0.00    +0.000 A 
ATOM      7  O   UNL     1       1.730   8.781  19.895  0.00  0.00    +0.000 OA
ATOM      8  C   UNL     1       1.553   9.022  18.488  0.00  0.00    +0.000 C 
ATOM      9  C   UNL     1       1.571  10.531  18.226  0.00  0.00    +0.000 C 
ATOM     10  C   UNL     1       0.304  11.109  18.841  0.00  0.00    +0.000 C 
ENDROOT
BRANCH   1  11
ATOM     11  O   UNL     1      -0.069   9.405  24.215  0.00  0.00    +0.000 OA
ATOM     12  H   UNL     1       0.039  10.187  24.781  0.00  0.00    +0.000 HD
ENDBRANCH   1  11
BRANCH   8  13
ATOM     13  C   UNL     1       2.673   8.328  17.671  0.00  0.00    +0.000 C 
BRANCH  13  14
ATOM     14  N   UNL     1       3.100   6.982  18.120  0.00  0.00    +0.000 NA
ATOM     15  C   UNL     1       4.267   6.543  17.332  0.00  0.00    +0.000 C 
ATOM     16  C   UNL     1       4.853   5.247  17.901  0.00  0.00    +0.000 C 
ATOM     17  C   UNL     1       3.805   4.173  18.010  0.00  0.00    +0.000 A 
ATOM     18  C   UNL     1       4.173   2.820  18.055  0.00  0.00    +0.000 A 
ATOM     19  C   UNL     1       3.201   1.831  18.177  0.00  0.00    +0.000 A 
ATOM     20  C   UNL     1       1.856   2.183  18.271  0.00  0.00    +0.000 A 
ATOM     21  C   UNL     1       1.485   3.528  18.240  0.00  0.00    +0.000 A 
ATOM     22  C   UNL     1       2.453   4.535  18.115  0.00  0.00    +0.000 A 
ATOM     23  C   UNL     1       2.014   5.985  18.019  0.00  0.00    +0.000 C 
ENDBRANCH  13  14
ENDBRANCH   8  13
TORSDOF 3
ENDMDL
MODEL 3
REMARK VINA RESULT:      -7.8      0.774      1.720
REMARK  Name = 
REMARK  3 active torsions:
REMARK  status: ('A' for Active; 'I' for Inactive)
REMARK    1  A    between atoms: O_1  and  C_2
REMARK    2  A    between atoms: C_9  and  C_10
REMARK    3  A    between atoms: C_10  and  N_11
REMARK                            x       y       z     vdW  Elec       q    Type
REMARK                         _______ _______ _______ _____ _____    ______ ____
ROOT
ATOM      1  C   UNL     1       2.343   2.523  18.418  0.00  0.00    +0.000 A 
ATOM      2  C   UNL     1       3.711   2.386  18.197  0.00  0.00    +0.000 A 
ATOM      3  C   UNL     1       4.490   3.527  17.992  0.00  0.00    +0.000 A 
ATOM      4  C   UNL     1       3.898   4.796  18.003  0.00  0.00    +0.000 A 
ATOM      5  C   UNL     1       2.529   4.920  18.288  0.00  0.00    +0.000 A 
ATOM      6  C   UNL     1       1.748   3.780  18.473  0.00  0.00    +0.000 A 
ATOM      7  O   UNL     1       1.878   6.131  18.356  0.00  0.00    +0.000 OA
ATOM      8  C   UNL     1       2.755   7.267  18.463  0.00  0.00    +0.000 C 
ATOM      9  C   UNL     1       3.827   7.185  17.373  0.00  0.00    +0.000 C 
ATOM     10  C   UNL     1       4.733   6.012  17.719  0.00  0.00    +0.000 C 
ENDROOT
BRANCH   1  11
ATOM     11  O   UNL     1       1.546   1.427  18.583  0.00  0.00    +0.000 OA
ATOM     12  H   UNL     1       1.117   1.485  19.452  0.00  0.00    +0.000 HD
ENDBRANCH   1  11
BRANCH   8  13
ATOM     13  C   UNL     1       1.955   8.587  18.325  0.00  0.00    +0.000 C 
BRANCH  13  14
ATOM     14  N   UNL     1       1.577   9.282  19.578  0.00  0.00    +0.000 NA
ATOM     15  C   UNL     1       1.297   8.289  20.631  0.00  0.00    +0.000 C 
ATOM     16  C   UNL     1       1.096   8.974  21.987  0.00  0.00    +0.000 C 
ATOM     17  C   UNL     1       0.034  10.037  21.912  0.00  0.00    +0.000 A 
ATOM     18  C   UNL     1      -0.634  10.460  23.070  0.00  0.00    +0.000 A 
ATOM     19  C   UNL     1      -1.602  11.459  22.999  0.00  0.00    +0.000 A 
ATOM     20  C   UNL     1      -1.899  12.054  21.775  0.00  0.00    +0.000 A 
ATOM     21  C   UNL     1      -1.229  11.647  20.621  0.00  0.00    +0.000 A 
ATOM     22  C   UNL     1      -0.254  10.641  20.677  0.00  0.00    +0.000 A 
ATOM     23  C   UNL     1       0.412  10.173  19.396  0.00  0.00    +0.000 C 
ENDBRANCH  13  14
ENDBRANCH   8  13
TORSDOF 3
ENDMDL
MODEL 4
REMARK VINA RESULT:      -7.6      1.482      1.961
REMARK  Name = 
REMARK  3 active torsions:
REMARK  status: ('A' for Active; 'I' for Inactive)
REMARK    1  A    between atoms: O_1  and  C_2
REMARK    2  A    between atoms: C_9  and  C_10
REMARK    3  A    between atoms: C_10  and  N_11
REMARK                            x       y       z     vdW  Elec       q    Type
REMARK                         _______ _______ _______ _____ _____    ______ ____
ROOT
ATOM      1  C   UNL     1       4.530   2.135  19.804  0.00  0.00    +0.000 A 
ATOM      2  C   UNL     1       3.599   1.409  19.066  0.00  0.00    +0.000 A 
ATOM      3  C   UNL     1       2.664   2.087  18.283  0.00  0.00    +0.000 A 
ATOM      4  C   UNL     1       2.659   3.487  18.245  0.00  0.00    +0.000 A 
ATOM      5  C   UNL     1       3.643   4.203  18.946  0.00  0.00    +0.000 A 
ATOM      6  C   UNL     1       4.565   3.525  19.743  0.00  0.00    +0.000 A 
ATOM      7  O   UNL     1       3.733   5.576  18.931  0.00  0.00    +0.000 OA
ATOM      8  C   UNL     1       2.979   6.205  17.879  0.00  0.00    +0.000 C 
ATOM      9  C   UNL     1       1.546   5.666  17.890  0.00  0.00    +0.000 C 
ATOM     10  C   UNL     1       1.610   4.210  17.449  0.00  0.00    +0.000 C 
ENDROOT
BRANCH   1  11
ATOM     11  O   UNL     1       5.433   1.504  20.610  0.00  0.00    +0.000 OA
ATOM     12  H   UNL     1       6.054   2.166  20.955  0.00  0.00    +0.000 HD
ENDBRANCH   1  11
BRANCH   8  13
ATOM     13  C   UNL     1       2.969   7.745  18.062  0.00  0.00    +0.000 C 
BRANCH  13  14
ATOM     14  N   UNL     1       1.773   8.340  18.704  0.00  0.00    +0.000 NA
ATOM     15  C   UNL     1       1.607   9.733  18.250  0.00  0.00    +0.000 C 
ATOM     16  C   UNL     1       0.275  10.312  18.739  0.00  0.00    +0.000 C 
ATOM     17  C   UNL     1       0.136  10.180  20.231  0.00  0.00    +0.000 A 
ATOM     18  C   UNL     1      -0.738  11.016  20.942  0.00  0.00    +0.000 A 
ATOM     19  C   UNL     1      -0.880  10.877  22.319  0.00  0.00    +0.000 A 
ATOM     20  C   UNL     1      -0.164   9.892  22.997  0.00  0.00    +0.000 A 
ATOM     21  C   UNL     1       0.697   9.048  22.295  0.00  0.00    +0.000 A 
ATOM     22  C   UNL     1       0.852   9.179  20.907  0.00  0.00    +0.000 A 
ATOM     23  C   UNL     1       1.844   8.290  20.179  0.00  0.00    +0.000 C 
ENDBRANCH  13  14
ENDBRANCH   8  13
TORSDOF 3
ENDMDL
MODEL 5
REMARK VINA RESULT:      -7.5      1.880      3.028
REMARK  Name = 
REMARK  3 active torsions:
REMARK  status: ('A' for Active; 'I' for Inactive)
REMARK    1  A    between atoms: O_1  and  C_2
REMARK    2  A    between atoms: C_9  and  C_10
REMARK    3  A    between atoms: C_10  and  N_11
REMARK                            x       y       z     vdW  Elec       q    Type
REMARK                         _______ _______ _______ _____ _____    ______ ____
ROOT
ATOM      1  C   UNL     1       6.546   4.548  17.083  0.00  0.00    +0.000 A 
ATOM      2  C   UNL     1       5.747   3.873  16.164  0.00  0.00    +0.000 A 
ATOM      3  C   UNL     1       4.360   3.879  16.327  0.00  0.00    +0.000 A 
ATOM      4  C   UNL     1       3.779   4.553  17.408  0.00  0.00    +0.000 A 
ATOM      5  C   UNL     1       4.595   5.279  18.291  0.00  0.00    +0.000 A 
ATOM      6  C   UNL     1       5.981   5.258  18.139  0.00  0.00    +0.000 A 
ATOM      7  O   UNL     1       4.102   6.000  19.355  0.00  0.00    +0.000 OA
ATOM      8  C   UNL     1       2.685   6.245  19.295  0.00  0.00    +0.000 C 
ATOM      9  C   UNL     1       1.953   4.926  19.031  0.00  0.00    +0.000 C 
ATOM     10  C   UNL     1       2.292   4.501  17.610  0.00  0.00    +0.000 C 
ENDROOT
BRANCH   1  11
ATOM     11  O   UNL     1       7.906   4.531  16.976  0.00  0.00    +0.000 OA
ATOM     12  H   UNL     1       8.170   5.151  16.277  0.00  0.00    +0.000 HD
ENDBRANCH   1  11
BRANCH   8  13
ATOM     13  C   UNL     1       2.185   6.874  20.621  0.00  0.00    +0.000 C 
BRANCH  13  14
ATOM     14  N   UNL     1       1.101   7.880  20.525  0.00  0.00    +0.000 NA
ATOM     15  C   UNL     1       1.503   8.955  19.599  0.00  0.00    +0.000 C 
ATOM     16  C   UNL     1       0.332   9.905  19.325  0.00  0.00    +0.000 C 
ATOM     17  C   UNL     1      -0.246  10.444  20.605  0.00  0.00    +0.000 A 
ATOM     18  C   UNL     1      -0.982  11.638  20.607  0.00  0.00    +0.000 A 
ATOM     19  C   UNL     1      -1.533  12.123  21.790  0.00  0.00    +0.000 A 
ATOM     20  C   UNL     1      -1.369  11.412  22.978  0.00  0.00    +0.000 A 
ATOM     21  C   UNL     1      -0.650  10.216  22.980  0.00  0.00    +0.000 A 
ATOM     22  C   UNL     1      -0.087   9.717  21.796  0.00  0.00    +0.000 A 
ATOM     23  C   UNL     1       0.745   8.449  21.841  0.00  0.00    +0.000 C 
ENDBRANCH  13  14
ENDBRANCH   8  13
TORSDOF 3
ENDMDL
MODEL 6
REMARK VINA RESULT:      -7.4      2.349      3.612
REMARK  Name = 
REMARK  3 active torsions:
REMARK  status: ('A' for Active; 'I' for Inactive)
REMARK    1  A    between atoms: O_1  and  C_2
REMARK    2  A    between atoms: C_9  and  C_10
REMARK    3  A    between atoms: C_10  and  N_11
REMARK                            x       y       z     vdW  Elec       q    Type
REMARK                         _______ _______ _______ _____ _____    ______ ____
ROOT
ATOM      1  C   UNL     1       7.024   5.121  14.810  0.00  0.00    +0.000 A 
ATOM      2  C   UNL     1       6.460   3.906  14.432  0.00  0.00    +0.000 A 
ATOM      3  C   UNL     1       5.359   3.412  15.134  0.00  0.00    +0.000 A 
ATOM      4  C   UNL     1       4.831   4.131  16.213  0.00  0.00    +0.000 A 
ATOM      5  C   UNL     1       5.373   5.384  16.543  0.00  0.00    +0.000 A 
ATOM      6  C   UNL     1       6.484   5.867  15.854  0.00  0.00    +0.000 A 
ATOM      7  O   UNL     1       4.889   6.171  17.563  0.00  0.00    +0.000 OA
ATOM      8  C   UNL     1       3.584   5.790  18.034  0.00  0.00    +0.000 C 
ATOM      9  C   UNL     1       3.571   4.289  18.335  0.00  0.00    +0.000 C 
ATOM     10  C   UNL     1       3.685   3.562  17.002  0.00  0.00    +0.000 C 
ENDROOT
BRANCH   1  11
ATOM     11  O   UNL     1       8.124   5.613  14.171  0.00  0.00    +0.000 OA
ATOM     12  H   UNL     1       8.859   4.990  14.295  0.00  0.00    +0.000 HD
ENDBRANCH   1  11
BRANCH   8  13
ATOM     13  C   UNL     1       3.210   6.590  19.309  0.00  0.00    +0.000 C 
BRANCH  13  14
ATOM     14  N   UNL     1       2.042   7.498  19.218  0.00  0.00    +0.000 NA
ATOM     15  C   UNL     1       2.341   8.598  18.283  0.00  0.00    +0.000 C 
ATOM     16  C   UNL     1       1.090   9.442  18.016  0.00  0.00    +0.000 C 
ATOM     17  C   UNL     1       0.479   9.936  19.298  0.00  0.00    +0.000 A 
ATOM     18  C   UNL     1      -0.358  11.062  19.302  0.00  0.00    +0.000 A 
ATOM     19  C   UNL     1      -0.938  11.504  20.487  0.00  0.00    +0.000 A 
ATOM     20  C   UNL     1      -0.703  10.817  21.677  0.00  0.00    +0.000 A 
ATOM     21  C   UNL     1       0.117   9.688  21.678  0.00  0.00    +0.000 A 
ATOM     22  C   UNL     1       0.711   9.233  20.491  0.00  0.00    +0.000 A 
ATOM     23  C   UNL     1       1.650   8.041  20.535  0.00  0.00    +0.000 C 
ENDBRANCH  13  14
ENDBRANCH   8  13
TORSDOF 3
ENDMDL
MODEL 7
REMARK VINA RESULT:      -7.4      2.705      7.830
REMARK  Name = 
REMARK  3 active torsions:
REMARK  status: ('A' for Active; 'I' for Inactive)
REMARK    1  A    between atoms: O_1  and  C_2
REMARK    2  A    between atoms: C_9  and  C_10
REMARK    3  A    between atoms: C_10  and  N_11
REMARK                            x       y       z     vdW  Elec       q    Type
REMARK                         _______ _______ _______ _____ _____    ______ ____
ROOT
ATOM      1  C   UNL     1       1.911   9.502  18.266  0.00  0.00    +0.000 A 
ATOM      2  C   UNL     1       1.217   9.758  19.446  0.00  0.00    +0.000 A 
ATOM      3  C   UNL     1       1.092   8.748  20.402  0.00  0.00    +0.000 A 
ATOM      4  C   UNL     1       1.656   7.487  20.172  0.00  0.00    +0.000 A 
ATOM      5  C   UNL     1       2.404   7.263  19.005  0.00  0.00    +0.000 A 
ATOM      6  C   UNL     1       2.512   8.266  18.042  0.00  0.00    +0.000 A 
ATOM      7  O   UNL     1       3.022   6.067  18.722  0.00  0.00    +0.000 OA
ATOM      8  C   UNL     1       3.145   5.184  19.851  0.00  0.00    +0.000 C 
ATOM      9  C   UNL     1       1.783   5.045  20.537  0.00  0.00    +0.000 C 
ATOM     10  C   UNL     1       1.463   6.388  21.178  0.00  0.00    +0.000 C 
ENDROOT
BRANCH   1  11
ATOM     11  O   UNL     1       2.019  10.454  17.294  0.00  0.00    +0.000 OA
ATOM     12  H   UNL     1       2.878  10.350  16.854  0.00  0.00    +0.000 HD
ENDBRANCH   1  11
BRANCH   8  13
ATOM     13  C   UNL     1       3.657   3.792  19.401  0.00  0.00    +0.000 C 
BRANCH  13  14
ATOM     14  N   UNL     1       4.797   3.766  18.453  0.00  0.00    +0.000 NA
ATOM     15  C   UNL     1       5.676   4.922  18.702  0.00  0.00    +0.000 C 
ATOM     16  C   UNL     1       6.962   4.818  17.876  0.00  0.00    +0.000 C 
ATOM     17  C   UNL     1       6.659   4.639  16.413  0.00  0.00    +0.000 A 
ATOM     18  C   UNL     1       7.613   4.976  15.441  0.00  0.00    +0.000 A 
ATOM     19  C   UNL     1       7.337   4.789  14.090  0.00  0.00    +0.000 A 
ATOM     20  C   UNL     1       6.113   4.250  13.697  0.00  0.00    +0.000 A 
ATOM     21  C   UNL     1       5.165   3.900  14.659  0.00  0.00    +0.000 A 
ATOM     22  C   UNL     1       5.429   4.085  16.024  0.00  0.00    +0.000 A 
ATOM     23  C   UNL     1       4.354   3.757  17.044  0.00  0.00    +0.000 C 
ENDBRANCH  13  14
ENDBRANCH   8  13
TORSDOF 3
ENDMDL
MODEL 8
REMARK VINA RESULT:      -7.4      2.369      7.463
REMARK  Name = 
REMARK  3 active torsions:
REMARK  status: ('A' for Active; 'I' for Inactive)
REMARK    1  A    between atoms: O_1  and  C_2
REMARK    2  A    between atoms: C_9  and  C_10
REMARK    3  A    between atoms: C_10  and  N_11
REMARK                            x       y       z     vdW  Elec       q    Type
REMARK                         _______ _______ _______ _____ _____    ______ ____
ROOT
ATOM      1  C   UNL     1      -2.518  11.525  18.102  0.00  0.00    +0.000 A 
ATOM      2  C   UNL     1      -2.419  11.919  19.434  0.00  0.00    +0.000 A 
ATOM      3  C   UNL     1      -1.350  11.462  20.208  0.00  0.00    +0.000 A 
ATOM      4  C   UNL     1      -0.390  10.609  19.650  0.00  0.00    +0.000 A 
ATOM      5  C   UNL     1      -0.470  10.270  18.290  0.00  0.00    +0.000 A 
ATOM      6  C   UNL     1      -1.548  10.711  17.523  0.00  0.00    +0.000 A 
ATOM      7  O   UNL     1       0.452   9.470  17.655  0.00  0.00    +0.000 OA
ATOM      8  C   UNL     1       1.681   9.295  18.382  0.00  0.00    +0.000 C 
ATOM      9  C   UNL     1       1.364   8.876  19.821  0.00  0.00    +0.000 C 
ATOM     10  C   UNL     1       0.721  10.073  20.507  0.00  0.00    +0.000 C 
ENDROOT
BRANCH   1  11
ATOM     11  O   UNL     1      -3.570  11.921  17.329  0.00  0.00    +0.000 OA
ATOM     12  H   UNL     1      -3.517  11.461  16.476  0.00  0.00    +0.000 HD
ENDBRANCH   1  11
BRANCH   8  13
ATOM     13  C   UNL     1       2.570   8.224  17.700  0.00  0.00    +0.000 C 
BRANCH  13  14
ATOM     14  N   UNL     1       2.792   6.959  18.442  0.00  0.00    +0.000 NA
ATOM     15  C   UNL     1       4.203   6.550  18.313  0.00  0.00    +0.000 C 
ATOM     16  C   UNL     1       4.511   5.359  19.227  0.00  0.00    +0.000 C 
ATOM     17  C   UNL     1       3.563   4.218  18.976  0.00  0.00    +0.000 A 
ATOM     18  C   UNL     1       3.915   2.908  19.333  0.00  0.00    +0.000 A 
ATOM     19  C   UNL     1       3.026   1.858  19.119  0.00  0.00    +0.000 A 
ATOM     20  C   UNL     1       1.774   2.107  18.561  0.00  0.00    +0.000 A 
ATOM     21  C   UNL     1       1.412   3.410  18.216  0.00  0.00    +0.000 A 
ATOM     22  C   UNL     1       2.298   4.478  18.424  0.00  0.00    +0.000 A 
ATOM     23  C   UNL     1       1.903   5.874  17.979  0.00  0.00    +0.000 C 
ENDBRANCH  13  14
ENDBRANCH   8  13
TORSDOF 3
ENDMDL
MODEL 9
REMARK VINA RESULT:      -7.3      1.864      3.071
REMARK  Name = 
REMARK  3 active torsions:
REMARK  status: ('A' for Active; 'I' for Inactive)
REMARK    1  A    between atoms: O_1  and  C_2
REMARK    2  A    between atoms: C_9  and  C_10
REMARK    3  A    between atoms: C_10  and  N_11
REMARK                            x       y       z     vdW  Elec       q    Type
REMARK                         _______ _______ _______ _____ _____    ______ ____
ROOT
ATOM      1  C   UNL     1       5.202   5.448  16.346  0.00  0.00    +0.000 A 
ATOM      2  C   UNL     1       4.641   4.178  16.232  0.00  0.00    +0.000 A 
ATOM      3  C   UNL     1       3.636   3.789  17.119  0.00  0.00    +0.000 A 
ATOM      4  C   UNL     1       3.199   4.667  18.119  0.00  0.00    +0.000 A 
ATOM      5  C   UNL     1       3.731   5.965  18.182  0.00  0.00    +0.000 A 
ATOM      6  C   UNL     1       4.749   6.346  17.308  0.00  0.00    +0.000 A 
ATOM      7  O   UNL     1       3.331   6.902  19.108  0.00  0.00    +0.000 OA
ATOM      8  C   UNL     1       2.095   6.583  19.772  0.00  0.00    +0.000 C 
ATOM      9  C   UNL     1       2.163   5.151  20.310  0.00  0.00    +0.000 C 
ATOM     10  C   UNL     1       2.162   4.218  19.108  0.00  0.00    +0.000 C 
ENDROOT
BRANCH   1  11
ATOM     11  O   UNL     1       6.213   5.845  15.521  0.00  0.00    +0.000 OA
ATOM     12  H   UNL     1       7.041   5.443  15.830  0.00  0.00    +0.000 HD
ENDBRANCH   1  11
BRANCH   8  13
ATOM     13  C   UNL     1       1.830   7.574  20.934  0.00  0.00    +0.000 C 
BRANCH  13  14
ATOM     14  N   UNL     1       0.685   8.503  20.782  0.00  0.00    +0.000 NA
ATOM     15  C   UNL     1       0.993   9.505  19.746  0.00  0.00    +0.000 C 
ATOM     16  C   UNL     1      -0.240  10.356  19.425  0.00  0.00    +0.000 C 
ATOM     17  C   UNL     1      -0.813  10.981  20.668  0.00  0.00    +0.000 A 
ATOM     18  C   UNL     1      -1.619  12.125  20.583  0.00  0.00    +0.000 A 
ATOM     19  C   UNL     1      -2.164  12.688  21.734  0.00  0.00    +0.000 A 
ATOM     20  C   UNL     1      -1.923  12.105  22.976  0.00  0.00    +0.000 A 
ATOM     21  C   UNL     1      -1.133  10.959  23.066  0.00  0.00    +0.000 A 
ATOM     22  C   UNL     1      -0.575  10.382  21.915  0.00  0.00    +0.000 A 
ATOM     23  C   UNL     1       0.333   9.173  22.050  0.00  0.00    +0.000 C 
ENDBRANCH  13  14
ENDBRANCH   8  13
TORSDOF 3
ENDMDL
