MODEL 1
REMARK VINA RESULT:      -7.7      0.000      0.000
REMARK  Name = 
REMARK  5 active torsions:
REMARK  status: ('A' for Active; 'I' for Inactive)
REMARK    1  A    between atoms: C_1  and  N_2
REMARK    2  A    between atoms: C_4  and  N_5
REMARK    3  A    between atoms: C_6  and  C_8
REMARK    4  A    between atoms: C_8  and  N_9
REMARK    5  A    between atoms: C_12  and  C_13
REMARK                            x       y       z     vdW  Elec       q    Type
REMARK                         _______ _______ _______ _____ _____    ______ ____
ROOT
ATOM      1  N   UNL     1       3.390   4.546  19.807  0.00  0.00    +0.000 N 
ATOM      2  C   UNL     1       2.453   4.403  20.786  0.00  0.00    +0.000 A 
ATOM      3  C   UNL     1       1.727   5.569  20.780  0.00  0.00    +0.000 A 
ATOM      4  C   UNL     1       2.298   6.371  19.757  0.00  0.00    +0.000 A 
ATOM      5  N   UNL     1       3.304   5.719  19.149  0.00  0.00    +0.000 NA
ENDROOT
BRANCH   4   6
ATOM      6  C   UNL     1       1.935   7.732  19.378  0.00  0.00    +0.000 A 
ATOM      7  C   UNL     1       2.316   8.254  18.134  0.00  0.00    +0.000 A 
ATOM      8  C   UNL     1       2.005   9.573  17.793  0.00  0.00    +0.000 A 
ATOM      9  C   UNL     1       1.318  10.381  18.698  0.00  0.00    +0.000 A 
ATOM     10  C   UNL     1       0.935   9.864  19.935  0.00  0.00    +0.000 A 
ATOM     11 CL   UNL     1       0.100  10.864  21.059  0.00  0.00    +0.000 Cl
ATOM     12  C   UNL     1       1.233   8.546  20.276  0.00  0.00    +0.000 A 
ENDBRANCH   4   6
BRANCH   1  13
ATOM     13  C   UNL     1       4.380   3.568  19.407  0.00  0.00    +0.000 C 
BRANCH  13  15
ATOM     14  N   UNL     1       5.039   4.061  17.086  0.00  0.00    +0.000 N 
ATOM     15  C   UNL     1       5.406   4.080  18.419  0.00  0.00    +0.000 C 
ATOM     16  O   UNL     1       6.513   4.408  18.848  0.00  0.00    +0.000 OA
ATOM     17  H   UNL     1       4.083   3.786  16.852  0.00  0.00    +0.000 HD
BRANCH  14  21
ATOM     18  C   UNL     1       7.204   4.512  12.703  0.00  0.00    +0.000 C 
ATOM     19  N   UNL     1       6.842   4.678  14.091  0.00  0.00    +0.000 N 
ATOM     20  C   UNL     1       5.836   4.030  14.741  0.00  0.00    +0.000 A 
ATOM     21  C   UNL     1       5.866   4.457  16.044  0.00  0.00    +0.000 A 
ATOM     22  C   UNL     1       6.933   5.386  16.072  0.00  0.00    +0.000 A 
ATOM     23  N   UNL     1       7.530   5.523  14.880  0.00  0.00    +0.000 NA
ENDBRANCH  14  21
ENDBRANCH  13  15
ENDBRANCH   1  13
TORSDOF 4
ENDMDL
MODEL 2
REMARK VINA RESULT:      -7.5      2.852      4.404
REMARK  Name = 
REMARK  5 active torsions:
REMARK  status: ('A' for Active; 'I' for Inactive)
REMARK    1  A    between atoms: C_1  and  N_2
REMARK    2  A    between atoms: C_4  and  N_5
REMARK    3  A    between atoms: C_6  and  C_8
REMARK    4  A    between atoms: C_8  and  N_9
REMARK    5  A    between atoms: C_12  and  C_13
REMARK                            x       y       z     vdW  Elec       q    Type
REMARK                         _______ _______ _______ _____ _____    ______ ____
ROOT
ATOM      1  N   UNL     1       5.265   6.289  17.602  0.00  0.00    +0.000 N 
ATOM      2  C   UNL     1       4.385   7.329  17.634  0.00  0.00    +0.000 A 
ATOM      3  C   UNL     1       3.207   6.806  18.108  0.00  0.00    +0.000 A 
ATOM      4  C   UNL     1       3.465   5.429  18.340  0.00  0.00    +0.000 A 
ATOM      5  N   UNL     1       4.742   5.129  18.049  0.00  0.00    +0.000 NA
ENDROOT
BRANCH   4   6
ATOM      6  C   UNL     1       2.527   4.406  18.790  0.00  0.00    +0.000 A 
ATOM      7  C   UNL     1       1.597   3.847  17.901  0.00  0.00    +0.000 A 
ATOM      8  C   UNL     1       0.672   2.900  18.346  0.00  0.00    +0.000 A 
ATOM      9  C   UNL     1       0.665   2.512  19.686  0.00  0.00    +0.000 A 
ATOM     10  C   UNL     1       1.589   3.063  20.571  0.00  0.00    +0.000 A 
ATOM     11 CL   UNL     1       1.573   2.597  22.227  0.00  0.00    +0.000 Cl
ATOM     12  C   UNL     1       2.522   4.001  20.131  0.00  0.00    +0.000 A 
ENDBRANCH   4   6
BRANCH   1  13
ATOM     13  C   UNL     1       6.655   6.343  17.200  0.00  0.00    +0.000 C 
BRANCH  13  15
ATOM     14  N   UNL     1       6.268   5.531  14.906  0.00  0.00    +0.000 N 
ATOM     15  C   UNL     1       7.017   5.411  16.063  0.00  0.00    +0.000 C 
ATOM     16  O   UNL     1       7.892   4.567  16.260  0.00  0.00    +0.000 OA
ATOM     17  H   UNL     1       5.580   6.284  14.854  0.00  0.00    +0.000 HD
BRANCH  14  21
ATOM     18  C   UNL     1       5.779   2.034  11.497  0.00  0.00    +0.000 C 
ATOM     19  N   UNL     1       6.229   3.184  12.244  0.00  0.00    +0.000 N 
ATOM     20  C   UNL     1       5.681   3.657  13.398  0.00  0.00    +0.000 A 
ATOM     21  C   UNL     1       6.437   4.735  13.782  0.00  0.00    +0.000 A 
ATOM     22  C   UNL     1       7.420   4.839  12.771  0.00  0.00    +0.000 A 
ATOM     23  N   UNL     1       7.295   3.893  11.830  0.00  0.00    +0.000 NA
ENDBRANCH  14  21
ENDBRANCH  13  15
ENDBRANCH   1  13
TORSDOF 4
ENDMDL
MODEL 3
REMARK VINA RESULT:      -7.4      1.090      1.579
REMARK  Name = 
REMARK  5 active torsions:
REMARK  status: ('A' for Active; 'I' for Inactive)
REMARK    1  A    between atoms: C_1  and  N_2
REMARK    2  A    between atoms: C_4  and  N_5
REMARK    3  A    between atoms: C_6  and  C_8
REMARK    4  A    between atoms: C_8  and  N_9
REMARK    5  A    between atoms: C_12  and  C_13
REMARK                            x       y       z     vdW  Elec       q    Type
REMARK                         _______ _______ _______ _____ _____    ______ ____
ROOT
ATOM      1  N   UNL     1       3.330   3.946  19.992  0.00  0.00    +0.000 N 
ATOM      2  C   UNL     1       2.145   3.457  20.455  0.00  0.00    +0.000 A 
ATOM      3  C   UNL     1       1.322   4.546  20.599  0.00  0.00    +0.000 A 
ATOM      4  C   UNL     1       2.096   5.667  20.198  0.00  0.00    +0.000 A 
ATOM      5  N   UNL     1       3.321   5.281  19.802  0.00  0.00    +0.000 NA
ENDROOT
BRANCH   4   6
ATOM      6  C   UNL     1       1.711   7.074  20.218  0.00  0.00    +0.000 A 
ATOM      7  C   UNL     1       0.992   7.605  21.298  0.00  0.00    +0.000 A 
ATOM      8  C   UNL     1       0.587   8.941  21.293  0.00  0.00    +0.000 A 
ATOM      9  C   UNL     1       0.891   9.755  20.202  0.00  0.00    +0.000 A 
ATOM     10  C   UNL     1       1.609   9.233  19.128  0.00  0.00    +0.000 A 
ATOM     11 CL   UNL     1       1.973  10.230  17.774  0.00  0.00    +0.000 Cl
ATOM     12  C   UNL     1       2.025   7.902  19.132  0.00  0.00    +0.000 A 
ENDBRANCH   4   6
BRANCH   1  13
ATOM     13  C   UNL     1       4.511   3.180  19.655  0.00  0.00    +0.000 C 
BRANCH  13  15
ATOM     14  N   UNL     1       5.126   3.801  17.352  0.00  0.00    +0.000 N 
ATOM     15  C   UNL     1       5.454   3.870  18.694  0.00  0.00    +0.000 C 
ATOM     16  O   UNL     1       6.479   4.379  19.150  0.00  0.00    +0.000 OA
ATOM     17  H   UNL     1       4.237   3.367  17.095  0.00  0.00    +0.000 HD
BRANCH  14  21
ATOM     18  C   UNL     1       7.290   4.647  13.028  0.00  0.00    +0.000 C 
ATOM     19  N   UNL     1       6.866   4.741  14.405  0.00  0.00    +0.000 N 
ATOM     20  C   UNL     1       5.978   3.920  15.030  0.00  0.00    +0.000 A 
ATOM     21  C   UNL     1       5.895   4.343  16.332  0.00  0.00    +0.000 A 
ATOM     22  C   UNL     1       6.773   5.450  16.386  0.00  0.00    +0.000 A 
ATOM     23  N   UNL     1       7.368   5.696  15.210  0.00  0.00    +0.000 NA
ENDBRANCH  14  21
ENDBRANCH  13  15
ENDBRANCH   1  13
TORSDOF 4
ENDMDL
MODEL 4
REMARK VINA RESULT:      -7.3      2.973      4.492
REMARK  Name = 
REMARK  5 active torsions:
REMARK  status: ('A' for Active; 'I' for Inactive)
REMARK    1  A    between atoms: C_1  and  N_2
REMARK    2  A    between atoms: C_4  and  N_5
REMARK    3  A    between atoms: C_6  and  C_8
REMARK    4  A    between atoms: C_8  and  N_9
REMARK    5  A    between atoms: C_12  and  C_13
REMARK                            x       y       z     vdW  Elec       q    Type
REMARK                         _______ _______ _______ _____ _____    ______ ____
ROOT
ATOM      1  N   UNL     1       5.419   6.369  17.660  0.00  0.00    +0.000 N 
ATOM      2  C   UNL     1       4.479   7.323  17.410  0.00  0.00    +0.000 A 
ATOM      3  C   UNL     1       3.337   6.897  18.044  0.00  0.00    +0.000 A 
ATOM      4  C   UNL     1       3.678   5.663  18.658  0.00  0.00    +0.000 A 
ATOM      5  N   UNL     1       4.969   5.362  18.436  0.00  0.00    +0.000 NA
ENDROOT
BRANCH   4   6
ATOM      6  C   UNL     1       2.807   4.765  19.407  0.00  0.00    +0.000 A 
ATOM      7  C   UNL     1       2.770   4.806  20.809  0.00  0.00    +0.000 A 
ATOM      8  C   UNL     1       1.968   3.914  21.524  0.00  0.00    +0.000 A 
ATOM      9  C   UNL     1       1.203   2.968  20.843  0.00  0.00    +0.000 A 
ATOM     10  C   UNL     1       1.234   2.926  19.450  0.00  0.00    +0.000 A 
ATOM     11 CL   UNL     1       0.302   1.750  18.608  0.00  0.00    +0.000 Cl
ATOM     12  C   UNL     1       2.024   3.820  18.730  0.00  0.00    +0.000 A 
ENDBRANCH   4   6
BRANCH   1  13
ATOM     13  C   UNL     1       6.800   6.381  17.226  0.00  0.00    +0.000 C 
BRANCH  13  15
ATOM     14  N   UNL     1       6.431   5.625  14.910  0.00  0.00    +0.000 N 
ATOM     15  C   UNL     1       7.111   5.422  16.097  0.00  0.00    +0.000 C 
ATOM     16  O   UNL     1       7.884   4.489  16.323  0.00  0.00    +0.000 OA
ATOM     17  H   UNL     1       5.828   6.447  14.835  0.00  0.00    +0.000 HD
BRANCH  14  21
ATOM     18  C   UNL     1       5.842   2.098  11.547  0.00  0.00    +0.000 C 
ATOM     19  N   UNL     1       6.311   3.257  12.269  0.00  0.00    +0.000 N 
ATOM     20  C   UNL     1       5.802   3.736  13.438  0.00  0.00    +0.000 A 
ATOM     21  C   UNL     1       6.564   4.821  13.786  0.00  0.00    +0.000 A 
ATOM     22  C   UNL     1       7.510   4.923  12.740  0.00  0.00    +0.000 A 
ATOM     23  N   UNL     1       7.357   3.969  11.811  0.00  0.00    +0.000 NA
ENDBRANCH  14  21
ENDBRANCH  13  15
ENDBRANCH   1  13
TORSDOF 4
ENDMDL
MODEL 5
REMARK VINA RESULT:      -7.3      3.486      7.664
REMARK  Name = 
REMARK  5 active torsions:
REMARK  status: ('A' for Active; 'I' for Inactive)
REMARK    1  A    between atoms: C_1  and  N_2
REMARK    2  A    between atoms: C_4  and  N_5
REMARK    3  A    between atoms: C_6  and  C_8
REMARK    4  A    between atoms: C_8  and  N_9
REMARK    5  A    between atoms: C_12  and  C_13
REMARK                            x       y       z     vdW  Elec       q    Type
REMARK                         _______ _______ _______ _____ _____    ______ ____
ROOT
ATOM      1  N   UNL     1       5.188   4.414  17.928  0.00  0.00    +0.000 N 
ATOM      2  C   UNL     1       6.452   4.721  18.335  0.00  0.00    +0.000 A 
ATOM      3  C   UNL     1       7.204   4.799  17.189  0.00  0.00    +0.000 A 
ATOM      4  C   UNL     1       6.308   4.523  16.123  0.00  0.00    +0.000 A 
ATOM      5  N   UNL     1       5.065   4.313  16.589  0.00  0.00    +0.000 NA
ENDROOT
BRANCH   4   6
ATOM      6  C   UNL     1       6.613   4.421  14.700  0.00  0.00    +0.000 A 
ATOM      7  C   UNL     1       7.561   5.269  14.109  0.00  0.00    +0.000 A 
ATOM      8  C   UNL     1       7.818   5.199  12.738  0.00  0.00    +0.000 A 
ATOM      9  C   UNL     1       7.123   4.285  11.947  0.00  0.00    +0.000 A 
ATOM     10  C   UNL     1       6.182   3.438  12.531  0.00  0.00    +0.000 A 
ATOM     11 CL   UNL     1       5.312   2.320  11.554  0.00  0.00    +0.000 Cl
ATOM     12  C   UNL     1       5.929   3.496  13.900  0.00  0.00    +0.000 A 
ENDBRANCH   4   6
BRANCH   1  13
ATOM     13  C   UNL     1       4.022   4.252  18.771  0.00  0.00    +0.000 C 
BRANCH  13  15
ATOM     14  N   UNL     1       3.145   6.403  19.593  0.00  0.00    +0.000 N 
ATOM     15  C   UNL     1       3.015   5.377  18.674  0.00  0.00    +0.000 C 
ATOM     16  O   UNL     1       2.111   5.278  17.843  0.00  0.00    +0.000 OA
ATOM     17  H   UNL     1       3.950   6.385  20.223  0.00  0.00    +0.000 HD
BRANCH  14  21
ATOM     18  C   UNL     1       0.600  10.475  18.579  0.00  0.00    +0.000 C 
ATOM     19  N   UNL     1       1.138   9.308  19.236  0.00  0.00    +0.000 N 
ATOM     20  C   UNL     1       2.019   8.419  18.700  0.00  0.00    +0.000 A 
ATOM     21  C   UNL     1       2.289   7.492  19.673  0.00  0.00    +0.000 A 
ATOM     22  C   UNL     1       1.498   7.909  20.769  0.00  0.00    +0.000 A 
ATOM     23  N   UNL     1       0.793   9.018  20.504  0.00  0.00    +0.000 NA
ENDBRANCH  14  21
ENDBRANCH  13  15
ENDBRANCH   1  13
TORSDOF 4
ENDMDL
MODEL 6
REMARK VINA RESULT:      -7.2      3.485      7.780
REMARK  Name = 
REMARK  5 active torsions:
REMARK  status: ('A' for Active; 'I' for Inactive)
REMARK    1  A    between atoms: C_1  and  N_2
REMARK    2  A    between atoms: C_4  and  N_5
REMARK    3  A    between atoms: C_6  and  C_8
REMARK    4  A    between atoms: C_8  and  N_9
REMARK    5  A    between atoms: C_12  and  C_13
REMARK                            x       y       z     vdW  Elec       q    Type
REMARK                         _______ _______ _______ _____ _____    ______ ____
ROOT
ATOM      1  N   UNL     1       5.189   4.388  17.849  0.00  0.00    +0.000 N 
ATOM      2  C   UNL     1       6.376   4.957  18.205  0.00  0.00    +0.000 A 
ATOM      3  C   UNL     1       7.090   5.089  17.039  0.00  0.00    +0.000 A 
ATOM      4  C   UNL     1       6.255   4.569  16.016  0.00  0.00    +0.000 A 
ATOM      5  N   UNL     1       5.078   4.165  16.524  0.00  0.00    +0.000 NA
ENDROOT
BRANCH   4   6
ATOM      6  C   UNL     1       6.563   4.419  14.599  0.00  0.00    +0.000 A 
ATOM      7  C   UNL     1       7.569   5.190  13.999  0.00  0.00    +0.000 A 
ATOM      8  C   UNL     1       7.831   5.076  12.632  0.00  0.00    +0.000 A 
ATOM      9  C   UNL     1       7.082   4.195  11.852  0.00  0.00    +0.000 A 
ATOM     10  C   UNL     1       6.083   3.424  12.445  0.00  0.00    +0.000 A 
ATOM     11 CL   UNL     1       5.147   2.347  11.483  0.00  0.00    +0.000 Cl
ATOM     12  C   UNL     1       5.824   3.526  13.811  0.00  0.00    +0.000 A 
ENDBRANCH   4   6
BRANCH   1  13
ATOM     13  C   UNL     1       4.082   4.074  18.727  0.00  0.00    +0.000 C 
BRANCH  13  15
ATOM     14  N   UNL     1       3.252   6.253  19.523  0.00  0.00    +0.000 N 
ATOM     15  C   UNL     1       2.993   5.125  18.765  0.00  0.00    +0.000 C 
ATOM     16  O   UNL     1       1.931   4.882  18.189  0.00  0.00    +0.000 OA
ATOM     17  H   UNL     1       4.179   6.351  19.940  0.00  0.00    +0.000 HD
BRANCH  14  21
ATOM     18  C   UNL     1      -0.170   9.261  21.349  0.00  0.00    +0.000 C 
ATOM     19  N   UNL     1       0.831   8.656  20.503  0.00  0.00    +0.000 N 
ATOM     20  C   UNL     1       1.549   7.534  20.784  0.00  0.00    +0.000 A 
ATOM     21  C   UNL     1       2.354   7.296  19.700  0.00  0.00    +0.000 A 
ATOM     22  C   UNL     1       2.052   8.356  18.813  0.00  0.00    +0.000 A 
ATOM     23  N   UNL     1       1.122   9.189  19.302  0.00  0.00    +0.000 NA
ENDBRANCH  14  21
ENDBRANCH  13  15
ENDBRANCH   1  13
TORSDOF 4
ENDMDL
MODEL 7
REMARK VINA RESULT:      -7.2      4.910      6.308
REMARK  Name = 
REMARK  5 active torsions:
REMARK  status: ('A' for Active; 'I' for Inactive)
REMARK    1  A    between atoms: C_1  and  N_2
REMARK    2  A    between atoms: C_4  and  N_5
REMARK    3  A    between atoms: C_6  and  C_8
REMARK    4  A    between atoms: C_8  and  N_9
REMARK    5  A    between atoms: C_12  and  C_13
REMARK                            x       y       z     vdW  Elec       q    Type
REMARK                         _______ _______ _______ _____ _____    ______ ____
ROOT
ATOM      1  N   UNL     1       6.443   6.204  17.837  0.00  0.00    +0.000 N 
ATOM      2  C   UNL     1       5.932   6.097  16.578  0.00  0.00    +0.000 A 
ATOM      3  C   UNL     1       4.630   5.691  16.737  0.00  0.00    +0.000 A 
ATOM      4  C   UNL     1       4.433   5.575  18.138  0.00  0.00    +0.000 A 
ATOM      5  N   UNL     1       5.549   5.919  18.805  0.00  0.00    +0.000 NA
ENDROOT
BRANCH   4   6
ATOM      6  C   UNL     1       3.239   5.118  18.840  0.00  0.00    +0.000 A 
ATOM      7  C   UNL     1       2.762   5.807  19.965  0.00  0.00    +0.000 A 
ATOM      8  C   UNL     1       1.644   5.342  20.661  0.00  0.00    +0.000 A 
ATOM      9  C   UNL     1       1.001   4.178  20.242  0.00  0.00    +0.000 A 
ATOM     10  C   UNL     1       1.469   3.491  19.123  0.00  0.00    +0.000 A 
ATOM     11 CL   UNL     1       0.686   2.047  18.613  0.00  0.00    +0.000 Cl
ATOM     12  C   UNL     1       2.578   3.957  18.418  0.00  0.00    +0.000 A 
ENDBRANCH   4   6
BRANCH   1  13
ATOM     13  C   UNL     1       7.779   6.630  18.195  0.00  0.00    +0.000 C 
BRANCH  13  15
ATOM     14  N   UNL     1       8.872   8.680  19.015  0.00  0.00    +0.000 N 
ATOM     15  C   UNL     1       8.014   8.121  18.085  0.00  0.00    +0.000 C 
ATOM     16  O   UNL     1       7.380   8.748  17.235  0.00  0.00    +0.000 OA
ATOM     17  H   UNL     1       9.356   8.054  19.662  0.00  0.00    +0.000 HD
BRANCH  14  21
ATOM     18  C   UNL     1       9.976  13.325  17.873  0.00  0.00    +0.000 C 
ATOM     19  N   UNL     1       9.658  12.116  18.596  0.00  0.00    +0.000 N 
ATOM     20  C   UNL     1       9.378  10.902  18.046  0.00  0.00    +0.000 A 
ATOM     21  C   UNL     1       9.171  10.034  19.086  0.00  0.00    +0.000 A 
ATOM     22  C   UNL     1       9.336  10.838  20.238  0.00  0.00    +0.000 A 
ATOM     23  N   UNL     1       9.633  12.111  19.941  0.00  0.00    +0.000 NA
ENDBRANCH  14  21
ENDBRANCH  13  15
ENDBRANCH   1  13
TORSDOF 4
ENDMDL
MODEL 8
REMARK VINA RESULT:      -7.1      5.267      6.996
REMARK  Name = 
REMARK  5 active torsions:
REMARK  status: ('A' for Active; 'I' for Inactive)
REMARK    1  A    between atoms: C_1  and  N_2
REMARK    2  A    between atoms: C_4  and  N_5
REMARK    3  A    between atoms: C_6  and  C_8
REMARK    4  A    between atoms: C_8  and  N_9
REMARK    5  A    between atoms: C_12  and  C_13
REMARK                            x       y       z     vdW  Elec       q    Type
REMARK                         _______ _______ _______ _____ _____    ______ ____
ROOT
ATOM      1  N   UNL     1       7.937   7.061  18.451  0.00  0.00    +0.000 N 
ATOM      2  C   UNL     1       7.165   7.641  17.488  0.00  0.00    +0.000 A 
ATOM      3  C   UNL     1       7.529   8.965  17.467  0.00  0.00    +0.000 A 
ATOM      4  C   UNL     1       8.536   9.102  18.458  0.00  0.00    +0.000 A 
ATOM      5  N   UNL     1       8.796   7.918  19.038  0.00  0.00    +0.000 NA
ENDROOT
BRANCH   4   6
ATOM      6  C   UNL     1       9.217  10.321  18.880  0.00  0.00    +0.000 A 
ATOM      7  C   UNL     1       9.365  10.624  20.242  0.00  0.00    +0.000 A 
ATOM      8  C   UNL     1       9.977  11.814  20.642  0.00  0.00    +0.000 A 
ATOM      9  C   UNL     1      10.440  12.714  19.682  0.00  0.00    +0.000 A 
ATOM     10  C   UNL     1      10.299  12.415  18.327  0.00  0.00    +0.000 A 
ATOM     11 CL   UNL     1      10.855  13.530  17.141  0.00  0.00    +0.000 Cl
ATOM     12  C   UNL     1       9.697  11.225  17.923  0.00  0.00    +0.000 A 
ENDBRANCH   4   6
BRANCH   1  13
ATOM     13  C   UNL     1       7.942   5.664  18.831  0.00  0.00    +0.000 C 
BRANCH  13  15
ATOM     14  N   UNL     1       5.777   4.687  19.482  0.00  0.00    +0.000 N 
ATOM     15  C   UNL     1       6.683   4.909  18.462  0.00  0.00    +0.000 C 
ATOM     16  O   UNL     1       6.578   4.481  17.311  0.00  0.00    +0.000 OA
ATOM     17  H   UNL     1       5.964   5.109  20.394  0.00  0.00    +0.000 HD
BRANCH  14  21
ATOM     18  C   UNL     1       1.097   3.467  18.644  0.00  0.00    +0.000 C 
ATOM     19  N   UNL     1       2.505   3.415  18.956  0.00  0.00    +0.000 N 
ATOM     20  C   UNL     1       3.370   4.466  18.941  0.00  0.00    +0.000 A 
ATOM     21  C   UNL     1       4.591   3.981  19.333  0.00  0.00    +0.000 A 
ATOM     22  C   UNL     1       4.355   2.603  19.550  0.00  0.00    +0.000 A 
ATOM     23  N   UNL     1       3.082   2.255  19.320  0.00  0.00    +0.000 NA
ENDBRANCH  14  21
ENDBRANCH  13  15
ENDBRANCH   1  13
TORSDOF 4
ENDMDL
MODEL 9
REMARK VINA RESULT:      -7.1      3.596      7.104
REMARK  Name = 
REMARK  5 active torsions:
REMARK  status: ('A' for Active; 'I' for Inactive)
REMARK    1  A    between atoms: C_1  and  N_2
REMARK    2  A    between atoms: C_4  and  N_5
REMARK    3  A    between atoms: C_6  and  C_8
REMARK    4  A    between atoms: C_8  and  N_9
REMARK    5  A    between atoms: C_12  and  C_13
REMARK                            x       y       z     vdW  Elec       q    Type
REMARK                         _______ _______ _______ _____ _____    ______ ____
ROOT
ATOM      1  N   UNL     1       3.180   3.463  19.489  0.00  0.00    +0.000 N 
ATOM      2  C   UNL     1       2.980   2.244  18.915  0.00  0.00    +0.000 A 
ATOM      3  C   UNL     1       3.784   2.219  17.802  0.00  0.00    +0.000 A 
ATOM      4  C   UNL     1       4.443   3.476  17.777  0.00  0.00    +0.000 A 
ATOM      5  N   UNL     1       4.082   4.223  18.835  0.00  0.00    +0.000 NA
ENDROOT
BRANCH   4   6
ATOM      6  C   UNL     1       5.364   3.985  16.766  0.00  0.00    +0.000 A 
ATOM      7  C   UNL     1       6.331   4.945  17.097  0.00  0.00    +0.000 A 
ATOM      8  C   UNL     1       7.181   5.463  16.117  0.00  0.00    +0.000 A 
ATOM      9  C   UNL     1       7.064   5.029  14.797  0.00  0.00    +0.000 A 
ATOM     10  C   UNL     1       6.107   4.072  14.464  0.00  0.00    +0.000 A 
ATOM     11 CL   UNL     1       5.951   3.547  12.834  0.00  0.00    +0.000 Cl
ATOM     12  C   UNL     1       5.262   3.545  15.440  0.00  0.00    +0.000 A 
ENDBRANCH   4   6
BRANCH   1  13
ATOM     13  C   UNL     1       2.575   3.956  20.708  0.00  0.00    +0.000 C 
BRANCH  13  15
ATOM     14  N   UNL     1       2.430   6.405  20.476  0.00  0.00    +0.000 N 
ATOM     15  C   UNL     1       1.740   5.207  20.534  0.00  0.00    +0.000 C 
ATOM     16  O   UNL     1       0.514   5.091  20.528  0.00  0.00    +0.000 OA
ATOM     17  H   UNL     1       3.451   6.373  20.471  0.00  0.00    +0.000 HD
BRANCH  14  21
ATOM     18  C   UNL     1       0.767  10.685  18.743  0.00  0.00    +0.000 C 
ATOM     19  N   UNL     1       1.068   9.563  19.600  0.00  0.00    +0.000 N 
ATOM     20  C   UNL     1       1.726   8.428  19.234  0.00  0.00    +0.000 A 
ATOM     21  C   UNL     1       1.825   7.648  20.358  0.00  0.00    +0.000 A 
ATOM     22  C   UNL     1       1.174   8.408  21.357  0.00  0.00    +0.000 A 
ATOM     23  N   UNL     1       0.710   9.578  20.897  0.00  0.00    +0.000 NA
ENDBRANCH  14  21
ENDBRANCH  13  15
ENDBRANCH   1  13
TORSDOF 4
ENDMDL
