MODEL 1
REMARK VINA RESULT:      -8.4      0.000      0.000
REMARK  Name = 
REMARK  10 active torsions:
REMARK  status: ('A' for Active; 'I' for Inactive)
REMARK    1  A    between atoms: C_1  and  C_2
REMARK    2  A    between atoms: C_2  and  C_3
REMARK    3  A    between atoms: C_2  and  O_4
REMARK    4  A    between atoms: O_4  and  C_5
REMARK    5  A    between atoms: C_10  and  O_11
REMARK    6  A    between atoms: O_11  and  C_12
REMARK    7  A    between atoms: C_17  and  C_18
REMARK    8  A    between atoms: N_19  and  O_20
REMARK    9  A    between atoms: N_21  and  C_22
REMARK   10  A    between atoms: C_22  and  C_23
REMARK                            x       y       z     vdW  Elec       q    Type
REMARK                         _______ _______ _______ _____ _____    ______ ____
ROOT
ATOM      1  C   UNL     1       3.746   4.689  19.727  0.00  0.00    +0.000 A 
ATOM      2  N   UNL     1       3.770   3.342  19.845  0.00  0.00    +0.000 NA
ATOM      3  C   UNL     1       2.773   2.720  20.497  0.00  0.00    +0.000 A 
ATOM      4  C   UNL     1       1.703   3.382  21.030  0.00  0.00    +0.000 A 
ATOM      5  C   UNL     1       1.601   4.741  20.765  0.00  0.00    +0.000 A 
ATOM      6  C   UNL     1       2.605   5.427  20.047  0.00  0.00    +0.000 A 
ENDROOT
BRANCH   6   7
ATOM      7  C   UNL     1       2.276   6.856  19.612  0.00  0.00    +0.000 C 
ATOM      8  N   UNL     1       2.338   7.037  18.317  0.00  0.00    +0.000 NA
ATOM      9  N   UNL     1       2.034   7.825  20.575  0.00  0.00    +0.000 N 
ATOM     10  H   UNL     1       1.963   7.482  21.531  0.00  0.00    +0.000 HD
BRANCH   8  11
ATOM     11  O   UNL     1       2.224   8.358  17.894  0.00  0.00    +0.000 OA
ATOM     12  H   UNL     1       1.431   8.661  18.372  0.00  0.00    +0.000 HD
ENDBRANCH   8  11
BRANCH   9  13
ATOM     13  C   UNL     1       1.141   8.965  20.363  0.00  0.00    +0.000 C 
BRANCH  13  14
ATOM     14  C   UNL     1       0.795   9.666  21.682  0.00  0.00    +0.000 C 
ATOM     15  C   UNL     1      -0.496   9.197  22.335  0.00  0.00    +0.000 C 
ATOM     16  C   UNL     1      -0.875  10.406  23.154  0.00  0.00    +0.000 C 
ATOM     17  C   UNL     1      -0.460  11.546  22.250  0.00  0.00    +0.000 C 
ATOM     18  O   UNL     1       0.667  11.086  21.490  0.00  0.00    +0.000 OA
ENDBRANCH  13  14
ENDBRANCH   9  13
ENDBRANCH   6   7
BRANCH   1  19
ATOM     19  O   UNL     1       4.877   5.272  19.184  0.00  0.00    +0.000 OA
BRANCH  19  25
ATOM     20  C   UNL     1       5.692   6.251  16.981  0.00  0.00    +0.000 A 
ATOM     21  C   UNL     1       5.962   5.952  15.633  0.00  0.00    +0.000 A 
ATOM     22  C   UNL     1       5.537   4.756  15.056  0.00  0.00    +0.000 A 
ATOM     23  C   UNL     1       4.869   3.828  15.839  0.00  0.00    +0.000 A 
ATOM     24  C   UNL     1       4.643   4.090  17.193  0.00  0.00    +0.000 A 
ATOM     25  C   UNL     1       5.056   5.291  17.800  0.00  0.00    +0.000 A 
BRANCH  20  26
ATOM     26  O   UNL     1       6.180   7.434  17.470  0.00  0.00    +0.000 OA
BRANCH  26  28
ATOM     27  C   UNL     1       8.074   8.982  17.843  0.00  0.00    +0.000 C 
ATOM     28  C   UNL     1       7.612   7.543  17.590  0.00  0.00    +0.000 C 
ATOM     29  C   UNL     1       8.036   6.604  18.718  0.00  0.00    +0.000 C 
ENDBRANCH  26  28
ENDBRANCH  20  26
ENDBRANCH  19  25
ENDBRANCH   1  19
TORSDOF 8
ENDMDL
MODEL 2
REMARK VINA RESULT:      -8.4      2.089      6.271
REMARK  Name = 
REMARK  10 active torsions:
REMARK  status: ('A' for Active; 'I' for Inactive)
REMARK    1  A    between atoms: C_1  and  C_2
REMARK    2  A    between atoms: C_2  and  C_3
REMARK    3  A    between atoms: C_2  and  O_4
REMARK    4  A    between atoms: O_4  and  C_5
REMARK    5  A    between atoms: C_10  and  O_11
REMARK    6  A    between atoms: O_11  and  C_12
REMARK    7  A    between atoms: C_17  and  C_18
REMARK    8  A    between atoms: N_19  and  O_20
REMARK    9  A    between atoms: N_21  and  C_22
REMARK   10  A    between atoms: C_22  and  C_23
REMARK                            x       y       z     vdW  Elec       q    Type
REMARK                         _______ _______ _______ _____ _____    ______ ____
ROOT
ATOM      1  C   UNL     1       2.648   4.496  19.567  0.00  0.00    +0.000 A 
ATOM      2  N   UNL     1       1.595   4.161  20.348  0.00  0.00    +0.000 NA
ATOM      3  C   UNL     1       0.893   3.051  20.065  0.00  0.00    +0.000 A 
ATOM      4  C   UNL     1       1.207   2.211  19.034  0.00  0.00    +0.000 A 
ATOM      5  C   UNL     1       2.381   2.470  18.341  0.00  0.00    +0.000 A 
ATOM      6  C   UNL     1       3.173   3.603  18.632  0.00  0.00    +0.000 A 
ENDROOT
BRANCH   6   7
ATOM      7  C   UNL     1       4.553   3.657  17.974  0.00  0.00    +0.000 C 
ATOM      8  N   UNL     1       4.526   3.450  16.682  0.00  0.00    +0.000 NA
ATOM      9  N   UNL     1       5.681   3.827  18.765  0.00  0.00    +0.000 N 
ATOM     10  H   UNL     1       5.499   4.038  19.744  0.00  0.00    +0.000 HD
BRANCH   8  11
ATOM     11  O   UNL     1       5.771   3.310  16.075  0.00  0.00    +0.000 OA
ATOM     12  H   UNL     1       6.183   4.177  16.246  0.00  0.00    +0.000 HD
ENDBRANCH   8  11
BRANCH   9  13
ATOM     13  C   UNL     1       6.894   4.502  18.302  0.00  0.00    +0.000 C 
BRANCH  13  14
ATOM     14  C   UNL     1       6.783   6.023  18.441  0.00  0.00    +0.000 C 
ATOM     15  C   UNL     1       6.583   6.772  17.132  0.00  0.00    +0.000 C 
ATOM     16  C   UNL     1       7.136   8.132  17.475  0.00  0.00    +0.000 C 
ATOM     17  C   UNL     1       8.309   7.784  18.366  0.00  0.00    +0.000 C 
ATOM     18  O   UNL     1       7.966   6.571  19.051  0.00  0.00    +0.000 OA
ENDBRANCH  13  14
ENDBRANCH   9  13
ENDBRANCH   6   7
BRANCH   1  19
ATOM     19  O   UNL     1       3.226   5.727  19.820  0.00  0.00    +0.000 OA
BRANCH  19  25
ATOM     20  C   UNL     1       1.903   7.899  19.901  0.00  0.00    +0.000 A 
ATOM     21  C   UNL     1       1.638   9.097  19.211  0.00  0.00    +0.000 A 
ATOM     22  C   UNL     1       2.037   9.276  17.888  0.00  0.00    +0.000 A 
ATOM     23  C   UNL     1       2.743   8.267  17.253  0.00  0.00    +0.000 A 
ATOM     24  C   UNL     1       3.061   7.095  17.945  0.00  0.00    +0.000 A 
ATOM     25  C   UNL     1       2.665   6.885  19.279  0.00  0.00    +0.000 A 
BRANCH  20  26
ATOM     26  O   UNL     1       1.504   7.829  21.209  0.00  0.00    +0.000 OA
BRANCH  26  28
ATOM     27  C   UNL     1      -0.768   8.507  21.918  0.00  0.00    +0.000 C 
ATOM     28  C   UNL     1       0.692   8.915  21.698  0.00  0.00    +0.000 C 
ATOM     29  C   UNL     1       1.344   9.411  22.989  0.00  0.00    +0.000 C 
ENDBRANCH  26  28
ENDBRANCH  20  26
ENDBRANCH  19  25
ENDBRANCH   1  19
TORSDOF 8
ENDMDL
MODEL 3
REMARK VINA RESULT:      -8.3      1.934      6.942
REMARK  Name = 
REMARK  10 active torsions:
REMARK  status: ('A' for Active; 'I' for Inactive)
REMARK    1  A    between atoms: C_1  and  C_2
REMARK    2  A    between atoms: C_2  and  C_3
REMARK    3  A    between atoms: C_2  and  O_4
REMARK    4  A    between atoms: O_4  and  C_5
REMARK    5  A    between atoms: C_10  and  O_11
REMARK    6  A    between atoms: O_11  and  C_12
REMARK    7  A    between atoms: C_17  and  C_18
REMARK    8  A    between atoms: N_19  and  O_20
REMARK    9  A    between atoms: N_21  and  C_22
REMARK   10  A    between atoms: C_22  and  C_23
REMARK                            x       y       z     vdW  Elec       q    Type
REMARK                         _______ _______ _______ _____ _____    ______ ____
ROOT
ATOM      1  C   UNL     1       2.588   5.304  19.494  0.00  0.00    +0.000 A 
ATOM      2  N   UNL     1       1.454   4.626  19.784  0.00  0.00    +0.000 NA
ATOM      3  C   UNL     1       1.187   3.480  19.134  0.00  0.00    +0.000 A 
ATOM      4  C   UNL     1       2.026   2.939  18.201  0.00  0.00    +0.000 A 
ATOM      5  C   UNL     1       3.260   3.550  18.027  0.00  0.00    +0.000 A 
ATOM      6  C   UNL     1       3.600   4.732  18.722  0.00  0.00    +0.000 A 
ENDROOT
BRANCH   6   7
ATOM      7  C   UNL     1       5.060   5.179  18.633  0.00  0.00    +0.000 C 
ATOM      8  N   UNL     1       5.888   4.397  19.279  0.00  0.00    +0.000 NA
ATOM      9  N   UNL     1       5.374   6.364  17.982  0.00  0.00    +0.000 N 
ATOM     10  H   UNL     1       4.604   6.804  17.482  0.00  0.00    +0.000 HD
BRANCH   8  11
ATOM     11  O   UNL     1       7.195   4.864  19.376  0.00  0.00    +0.000 OA
ATOM     12  H   UNL     1       7.159   5.415  20.179  0.00  0.00    +0.000 HD
ENDBRANCH   8  11
BRANCH   9  13
ATOM     13  C   UNL     1       6.643   6.590  17.289  0.00  0.00    +0.000 C 
BRANCH  13  14
ATOM     14  C   UNL     1       6.715   5.809  15.973  0.00  0.00    +0.000 C 
ATOM     15  C   UNL     1       5.407   5.739  15.199  0.00  0.00    +0.000 C 
ATOM     16  C   UNL     1       5.600   4.477  14.396  0.00  0.00    +0.000 C 
ATOM     17  C   UNL     1       6.341   3.589  15.371  0.00  0.00    +0.000 C 
ATOM     18  O   UNL     1       7.129   4.450  16.204  0.00  0.00    +0.000 OA
ENDBRANCH  13  14
ENDBRANCH   9  13
ENDBRANCH   6   7
BRANCH   1  19
ATOM     19  O   UNL     1       2.721   6.548  20.085  0.00  0.00    +0.000 OA
BRANCH  19  25
ATOM     20  C   UNL     1       1.127   8.530  20.171  0.00  0.00    +0.000 A 
ATOM     21  C   UNL     1       0.746   9.713  19.511  0.00  0.00    +0.000 A 
ATOM     22  C   UNL     1       1.186   9.998  18.220  0.00  0.00    +0.000 A 
ATOM     23  C   UNL     1       2.047   9.115  17.589  0.00  0.00    +0.000 A 
ATOM     24  C   UNL     1       2.477   7.963  18.254  0.00  0.00    +0.000 A 
ATOM     25  C   UNL     1       2.044   7.648  19.556  0.00  0.00    +0.000 A 
BRANCH  20  26
ATOM     26  O   UNL     1       0.675   8.353  21.451  0.00  0.00    +0.000 OA
BRANCH  26  28
ATOM     27  C   UNL     1      -0.582   9.665  23.131  0.00  0.00    +0.000 C 
ATOM     28  C   UNL     1       0.704   9.508  22.314  0.00  0.00    +0.000 C 
ATOM     29  C   UNL     1       1.933   9.362  23.210  0.00  0.00    +0.000 C 
ENDBRANCH  26  28
ENDBRANCH  20  26
ENDBRANCH  19  25
ENDBRANCH   1  19
TORSDOF 8
ENDMDL
MODEL 4
REMARK VINA RESULT:      -8.1      2.300      7.310
REMARK  Name = 
REMARK  10 active torsions:
REMARK  status: ('A' for Active; 'I' for Inactive)
REMARK    1  A    between atoms: C_1  and  C_2
REMARK    2  A    between atoms: C_2  and  C_3
REMARK    3  A    between atoms: C_2  and  O_4
REMARK    4  A    between atoms: O_4  and  C_5
REMARK    5  A    between atoms: C_10  and  O_11
REMARK    6  A    between atoms: O_11  and  C_12
REMARK    7  A    between atoms: C_17  and  C_18
REMARK    8  A    between atoms: N_19  and  O_20
REMARK    9  A    between atoms: N_21  and  C_22
REMARK   10  A    between atoms: C_22  and  C_23
REMARK                            x       y       z     vdW  Elec       q    Type
REMARK                         _______ _______ _______ _____ _____    ______ ____
ROOT
ATOM      1  C   UNL     1       3.037   4.597  19.379  0.00  0.00    +0.000 A 
ATOM      2  N   UNL     1       1.987   3.908  19.882  0.00  0.00    +0.000 NA
ATOM      3  C   UNL     1       1.635   2.740  19.317  0.00  0.00    +0.000 A 
ATOM      4  C   UNL     1       2.308   2.187  18.264  0.00  0.00    +0.000 A 
ATOM      5  C   UNL     1       3.479   2.814  17.860  0.00  0.00    +0.000 A 
ATOM      6  C   UNL     1       3.909   4.022  18.454  0.00  0.00    +0.000 A 
ENDROOT
BRANCH   6   7
ATOM      7  C   UNL     1       5.321   4.492  18.097  0.00  0.00    +0.000 C 
ATOM      8  N   UNL     1       6.214   4.211  19.013  0.00  0.00    +0.000 NA
ATOM      9  N   UNL     1       5.525   5.218  16.933  0.00  0.00    +0.000 N 
ATOM     10  H   UNL     1       4.722   5.281  16.311  0.00  0.00    +0.000 HD
BRANCH   8  11
ATOM     11  O   UNL     1       7.469   4.777  18.814  0.00  0.00    +0.000 OA
ATOM     12  H   UNL     1       7.955   4.489  19.608  0.00  0.00    +0.000 HD
ENDBRANCH   8  11
BRANCH   9  13
ATOM     13  C   UNL     1       6.773   5.179  16.169  0.00  0.00    +0.000 C 
BRANCH  13  14
ATOM     14  C   UNL     1       6.512   5.173  14.659  0.00  0.00    +0.000 C 
ATOM     15  C   UNL     1       6.054   3.836  14.096  0.00  0.00    +0.000 C 
ATOM     16  C   UNL     1       6.492   3.950  12.657  0.00  0.00    +0.000 C 
ATOM     17  C   UNL     1       7.806   4.690  12.782  0.00  0.00    +0.000 C 
ATOM     18  O   UNL     1       7.698   5.541  13.931  0.00  0.00    +0.000 OA
ENDBRANCH  13  14
ENDBRANCH   9  13
ENDBRANCH   6   7
BRANCH   1  19
ATOM     19  O   UNL     1       3.244   5.859  19.907  0.00  0.00    +0.000 OA
BRANCH  19  25
ATOM     20  C   UNL     1       1.731   7.903  19.973  0.00  0.00    +0.000 A 
ATOM     21  C   UNL     1       1.365   9.072  19.279  0.00  0.00    +0.000 A 
ATOM     22  C   UNL     1       1.758   9.285  17.959  0.00  0.00    +0.000 A 
ATOM     23  C   UNL     1       2.557   8.343  17.331  0.00  0.00    +0.000 A 
ATOM     24  C   UNL     1       2.973   7.205  18.028  0.00  0.00    +0.000 A 
ATOM     25  C   UNL     1       2.587   6.961  19.359  0.00  0.00    +0.000 A 
BRANCH  20  26
ATOM     26  O   UNL     1       1.329   7.798  21.278  0.00  0.00    +0.000 OA
BRANCH  26  28
ATOM     27  C   UNL     1      -0.596   8.833  22.439  0.00  0.00    +0.000 C 
ATOM     28  C   UNL     1       0.828   8.999  21.900  0.00  0.00    +0.000 C 
ATOM     29  C   UNL     1       1.815   9.370  23.006  0.00  0.00    +0.000 C 
ENDBRANCH  26  28
ENDBRANCH  20  26
ENDBRANCH  19  25
ENDBRANCH   1  19
TORSDOF 8
ENDMDL
MODEL 5
REMARK VINA RESULT:      -8.1      1.509      2.568
REMARK  Name = 
REMARK  10 active torsions:
REMARK  status: ('A' for Active; 'I' for Inactive)
REMARK    1  A    between atoms: C_1  and  C_2
REMARK    2  A    between atoms: C_2  and  C_3
REMARK    3  A    between atoms: C_2  and  O_4
REMARK    4  A    between atoms: O_4  and  C_5
REMARK    5  A    between atoms: C_10  and  O_11
REMARK    6  A    between atoms: O_11  and  C_12
REMARK    7  A    between atoms: C_17  and  C_18
REMARK    8  A    between atoms: N_19  and  O_20
REMARK    9  A    between atoms: N_21  and  C_22
REMARK   10  A    between atoms: C_22  and  C_23
REMARK                            x       y       z     vdW  Elec       q    Type
REMARK                         _______ _______ _______ _____ _____    ______ ____
ROOT
ATOM      1  C   UNL     1       2.902   4.479  18.478  0.00  0.00    +0.000 A 
ATOM      2  N   UNL     1       2.574   3.167  18.502  0.00  0.00    +0.000 NA
ATOM      3  C   UNL     1       1.835   2.691  19.519  0.00  0.00    +0.000 A 
ATOM      4  C   UNL     1       1.364   3.479  20.531  0.00  0.00    +0.000 A 
ATOM      5  C   UNL     1       1.563   4.848  20.416  0.00  0.00    +0.000 A 
ATOM      6  C   UNL     1       2.299   5.395  19.341  0.00  0.00    +0.000 A 
ENDROOT
BRANCH   6   7
ATOM      7  C   UNL     1       2.252   6.917  19.189  0.00  0.00    +0.000 C 
ATOM      8  N   UNL     1       2.559   7.333  17.986  0.00  0.00    +0.000 NA
ATOM      9  N   UNL     1       1.986   7.707  20.298  0.00  0.00    +0.000 N 
ATOM     10  H   UNL     1       1.705   7.201  21.137  0.00  0.00    +0.000 HD
BRANCH   8  11
ATOM     11  O   UNL     1       2.706   8.711  17.852  0.00  0.00    +0.000 OA
ATOM     12  H   UNL     1       2.351   8.871  16.959  0.00  0.00    +0.000 HD
ENDBRANCH   8  11
BRANCH   9  13
ATOM     13  C   UNL     1       1.311   9.003  20.221  0.00  0.00    +0.000 C 
BRANCH  13  14
ATOM     14  C   UNL     1       0.936   9.529  21.610  0.00  0.00    +0.000 C 
ATOM     15  C   UNL     1      -0.327   8.924  22.204  0.00  0.00    +0.000 C 
ATOM     16  C   UNL     1      -0.763  10.010  23.155  0.00  0.00    +0.000 C 
ATOM     17  C   UNL     1      -0.411  11.265  22.388  0.00  0.00    +0.000 C 
ATOM     18  O   UNL     1       0.735  10.954  21.582  0.00  0.00    +0.000 OA
ENDBRANCH  13  14
ENDBRANCH   9  13
ENDBRANCH   6   7
BRANCH   1  19
ATOM     19  O   UNL     1       3.791   4.866  17.491  0.00  0.00    +0.000 OA
BRANCH  19  25
ATOM     20  C   UNL     1       6.187   4.271  16.877  0.00  0.00    +0.000 A 
ATOM     21  C   UNL     1       7.536   4.489  17.212  0.00  0.00    +0.000 A 
ATOM     22  C   UNL     1       7.895   5.117  18.404  0.00  0.00    +0.000 A 
ATOM     23  C   UNL     1       6.900   5.569  19.256  0.00  0.00    +0.000 A 
ATOM     24  C   UNL     1       5.556   5.408  18.908  0.00  0.00    +0.000 A 
ATOM     25  C   UNL     1       5.165   4.772  17.714  0.00  0.00    +0.000 A 
BRANCH  20  26
ATOM     26  O   UNL     1       5.930   3.678  15.669  0.00  0.00    +0.000 OA
BRANCH  26  28
ATOM     27  C   UNL     1       7.290   5.165  14.231  0.00  0.00    +0.000 C 
ATOM     28  C   UNL     1       5.920   4.541  14.513  0.00  0.00    +0.000 C 
ATOM     29  C   UNL     1       5.424   3.702  13.337  0.00  0.00    +0.000 C 
ENDBRANCH  26  28
ENDBRANCH  20  26
ENDBRANCH  19  25
ENDBRANCH   1  19
TORSDOF 8
ENDMDL
MODEL 6
REMARK VINA RESULT:      -8.0      2.163      3.333
REMARK  Name = 
REMARK  10 active torsions:
REMARK  status: ('A' for Active; 'I' for Inactive)
REMARK    1  A    between atoms: C_1  and  C_2
REMARK    2  A    between atoms: C_2  and  C_3
REMARK    3  A    between atoms: C_2  and  O_4
REMARK    4  A    between atoms: O_4  and  C_5
REMARK    5  A    between atoms: C_10  and  O_11
REMARK    6  A    between atoms: O_11  and  C_12
REMARK    7  A    between atoms: C_17  and  C_18
REMARK    8  A    between atoms: N_19  and  O_20
REMARK    9  A    between atoms: N_21  and  C_22
REMARK   10  A    between atoms: C_22  and  C_23
REMARK                            x       y       z     vdW  Elec       q    Type
REMARK                         _______ _______ _______ _____ _____    ______ ____
ROOT
ATOM      1  C   UNL     1       2.819   4.200  18.080  0.00  0.00    +0.000 A 
ATOM      2  N   UNL     1       2.513   2.934  17.714  0.00  0.00    +0.000 NA
ATOM      3  C   UNL     1       1.717   2.194  18.503  0.00  0.00    +0.000 A 
ATOM      4  C   UNL     1       1.165   2.667  19.660  0.00  0.00    +0.000 A 
ATOM      5  C   UNL     1       1.347   4.013  19.946  0.00  0.00    +0.000 A 
ATOM      6  C   UNL     1       2.143   4.839  19.120  0.00  0.00    +0.000 A 
ENDROOT
BRANCH   6   7
ATOM      7  C   UNL     1       2.079   6.342  19.396  0.00  0.00    +0.000 C 
ATOM      8  N   UNL     1       2.060   6.641  20.671  0.00  0.00    +0.000 NA
ATOM      9  N   UNL     1       1.963   7.228  18.334  0.00  0.00    +0.000 N 
ATOM     10  H   UNL     1       2.061   6.815  17.409  0.00  0.00    +0.000 HD
BRANCH   8  11
ATOM     11  O   UNL     1       1.820   7.980  20.965  0.00  0.00    +0.000 OA
ATOM     12  H   UNL     1       1.343   8.284  20.172  0.00  0.00    +0.000 HD
ENDBRANCH   8  11
BRANCH   9  13
ATOM     13  C   UNL     1       2.504   8.587  18.357  0.00  0.00    +0.000 C 
BRANCH  13  14
ATOM     14  C   UNL     1       1.401   9.638  18.196  0.00  0.00    +0.000 C 
ATOM     15  C   UNL     1       1.876  11.081  18.278  0.00  0.00    +0.000 C 
ATOM     16  C   UNL     1       0.619  11.787  18.722  0.00  0.00    +0.000 C 
ATOM     17  C   UNL     1       0.010  10.783  19.675  0.00  0.00    +0.000 C 
ATOM     18  O   UNL     1       0.390   9.481  19.208  0.00  0.00    +0.000 OA
ENDBRANCH  13  14
ENDBRANCH   9  13
ENDBRANCH   6   7
BRANCH   1  19
ATOM     19  O   UNL     1       3.764   4.847  17.304  0.00  0.00    +0.000 OA
BRANCH  19  25
ATOM     20  C   UNL     1       6.200   4.247  16.882  0.00  0.00    +0.000 A 
ATOM     21  C   UNL     1       7.519   4.470  17.318  0.00  0.00    +0.000 A 
ATOM     22  C   UNL     1       7.786   5.109  18.527  0.00  0.00    +0.000 A 
ATOM     23  C   UNL     1       6.728   5.569  19.296  0.00  0.00    +0.000 A 
ATOM     24  C   UNL     1       5.415   5.403  18.847  0.00  0.00    +0.000 A 
ATOM     25  C   UNL     1       5.117   4.756  17.633  0.00  0.00    +0.000 A 
BRANCH  20  26
ATOM     26  O   UNL     1       6.037   3.643  15.663  0.00  0.00    +0.000 OA
BRANCH  26  28
ATOM     27  C   UNL     1       6.190   3.652  13.193  0.00  0.00    +0.000 C 
ATOM     28  C   UNL     1       6.368   4.430  14.501  0.00  0.00    +0.000 C 
ATOM     29  C   UNL     1       5.486   5.677  14.544  0.00  0.00    +0.000 C 
ENDBRANCH  26  28
ENDBRANCH  20  26
ENDBRANCH  19  25
ENDBRANCH   1  19
TORSDOF 8
ENDMDL
MODEL 7
REMARK VINA RESULT:      -7.9      1.969      4.413
REMARK  Name = 
REMARK  10 active torsions:
REMARK  status: ('A' for Active; 'I' for Inactive)
REMARK    1  A    between atoms: C_1  and  C_2
REMARK    2  A    between atoms: C_2  and  C_3
REMARK    3  A    between atoms: C_2  and  O_4
REMARK    4  A    between atoms: O_4  and  C_5
REMARK    5  A    between atoms: C_10  and  O_11
REMARK    6  A    between atoms: O_11  and  C_12
REMARK    7  A    between atoms: C_17  and  C_18
REMARK    8  A    between atoms: N_19  and  O_20
REMARK    9  A    between atoms: N_21  and  C_22
REMARK   10  A    between atoms: C_22  and  C_23
REMARK                            x       y       z     vdW  Elec       q    Type
REMARK                         _______ _______ _______ _____ _____    ______ ____
ROOT
ATOM      1  C   UNL     1       1.783   7.741  19.951  0.00  0.00    +0.000 A 
ATOM      2  N   UNL     1       2.384   7.663  18.741  0.00  0.00    +0.000 NA
ATOM      3  C   UNL     1       2.114   8.594  17.810  0.00  0.00    +0.000 A 
ATOM      4  C   UNL     1       1.275   9.649  18.032  0.00  0.00    +0.000 A 
ATOM      5  C   UNL     1       0.791   9.815  19.322  0.00  0.00    +0.000 A 
ATOM      6  C   UNL     1       1.084   8.883  20.343  0.00  0.00    +0.000 A 
ENDROOT
BRANCH   6   7
ATOM      7  C   UNL     1       0.699   9.289  21.767  0.00  0.00    +0.000 C 
ATOM      8  N   UNL     1       1.710   9.308  22.598  0.00  0.00    +0.000 NA
ATOM      9  N   UNL     1      -0.635   9.511  22.077  0.00  0.00    +0.000 N 
ATOM     10  H   UNL     1      -1.273   9.514  21.284  0.00  0.00    +0.000 HD
BRANCH   8  11
ATOM     11  O   UNL     1       1.378   9.494  23.936  0.00  0.00    +0.000 OA
ATOM     12  H   UNL     1       2.147   9.110  24.396  0.00  0.00    +0.000 HD
ENDBRANCH   8  11
BRANCH   9  13
ATOM     13  C   UNL     1      -1.076  10.456  23.104  0.00  0.00    +0.000 C 
BRANCH  13  14
ATOM     14  C   UNL     1      -1.219  11.875  22.544  0.00  0.00    +0.000 C 
ATOM     15  C   UNL     1      -1.702  11.947  21.103  0.00  0.00    +0.000 C 
ATOM     16  C   UNL     1      -1.148  13.280  20.666  0.00  0.00    +0.000 C 
ATOM     17  C   UNL     1       0.190  13.315  21.372  0.00  0.00    +0.000 C 
ATOM     18  O   UNL     1       0.038  12.575  22.591  0.00  0.00    +0.000 OA
ENDBRANCH  13  14
ENDBRANCH   9  13
ENDBRANCH   6   7
BRANCH   1  19
ATOM     19  O   UNL     1       1.985   6.669  20.801  0.00  0.00    +0.000 OA
BRANCH  19  25
ATOM     20  C   UNL     1       3.350   4.772  19.794  0.00  0.00    +0.000 A 
ATOM     21  C   UNL     1       3.356   3.390  19.529  0.00  0.00    +0.000 A 
ATOM     22  C   UNL     1       2.199   2.623  19.648  0.00  0.00    +0.000 A 
ATOM     23  C   UNL     1       1.028   3.229  20.074  0.00  0.00    +0.000 A 
ATOM     24  C   UNL     1       1.022   4.590  20.394  0.00  0.00    +0.000 A 
ATOM     25  C   UNL     1       2.175   5.389  20.277  0.00  0.00    +0.000 A 
BRANCH  20  26
ATOM     26  O   UNL     1       4.543   5.436  19.685  0.00  0.00    +0.000 OA
BRANCH  26  28
ATOM     27  C   UNL     1       4.969   5.695  17.260  0.00  0.00    +0.000 C 
ATOM     28  C   UNL     1       5.397   5.057  18.585  0.00  0.00    +0.000 C 
ATOM     29  C   UNL     1       6.821   5.452  18.973  0.00  0.00    +0.000 C 
ENDBRANCH  26  28
ENDBRANCH  20  26
ENDBRANCH  19  25
ENDBRANCH   1  19
TORSDOF 8
ENDMDL
MODEL 8
REMARK VINA RESULT:      -7.9      3.366      6.921
REMARK  Name = 
REMARK  10 active torsions:
REMARK  status: ('A' for Active; 'I' for Inactive)
REMARK    1  A    between atoms: C_1  and  C_2
REMARK    2  A    between atoms: C_2  and  C_3
REMARK    3  A    between atoms: C_2  and  O_4
REMARK    4  A    between atoms: O_4  and  C_5
REMARK    5  A    between atoms: C_10  and  O_11
REMARK    6  A    between atoms: O_11  and  C_12
REMARK    7  A    between atoms: C_17  and  C_18
REMARK    8  A    between atoms: N_19  and  O_20
REMARK    9  A    between atoms: N_21  and  C_22
REMARK   10  A    between atoms: C_22  and  C_23
REMARK                            x       y       z     vdW  Elec       q    Type
REMARK                         _______ _______ _______ _____ _____    ______ ____
ROOT
ATOM      1  C   UNL     1       5.585   4.451  16.877  0.00  0.00    +0.000 A 
ATOM      2  N   UNL     1       5.300   3.671  15.810  0.00  0.00    +0.000 NA
ATOM      3  C   UNL     1       5.942   3.883  14.648  0.00  0.00    +0.000 A 
ATOM      4  C   UNL     1       6.904   4.841  14.492  0.00  0.00    +0.000 A 
ATOM      5  C   UNL     1       7.309   5.526  15.630  0.00  0.00    +0.000 A 
ATOM      6  C   UNL     1       6.690   5.304  16.881  0.00  0.00    +0.000 A 
ENDROOT
BRANCH   6   7
ATOM      7  C   UNL     1       7.369   5.933  18.098  0.00  0.00    +0.000 C 
ATOM      8  N   UNL     1       7.625   5.078  19.056  0.00  0.00    +0.000 NA
ATOM      9  N   UNL     1       7.575   7.305  18.133  0.00  0.00    +0.000 N 
ATOM     10  H   UNL     1       7.371   7.799  17.266  0.00  0.00    +0.000 HD
BRANCH   8  11
ATOM     11  O   UNL     1       8.075   5.637  20.249  0.00  0.00    +0.000 OA
ATOM     12  H   UNL     1       8.483   6.469  19.947  0.00  0.00    +0.000 HD
ENDBRANCH   8  11
BRANCH   9  13
ATOM     13  C   UNL     1       8.691   7.934  18.840  0.00  0.00    +0.000 C 
BRANCH  13  14
ATOM     14  C   UNL     1       8.539   9.458  18.896  0.00  0.00    +0.000 C 
ATOM     15  C   UNL     1       8.744  10.170  17.568  0.00  0.00    +0.000 C 
ATOM     16  C   UNL     1       9.162  11.545  18.025  0.00  0.00    +0.000 C 
ATOM     17  C   UNL     1      10.010  11.233  19.238  0.00  0.00    +0.000 C 
ATOM     18  O   UNL     1       9.479  10.034  19.821  0.00  0.00    +0.000 OA
ENDBRANCH  13  14
ENDBRANCH   9  13
ENDBRANCH   6   7
BRANCH   1  19
ATOM     19  O   UNL     1       4.779   4.279  17.989  0.00  0.00    +0.000 OA
BRANCH  19  25
ATOM     20  C   UNL     1       2.979   5.334  19.445  0.00  0.00    +0.000 A 
ATOM     21  C   UNL     1       2.289   6.530  19.714  0.00  0.00    +0.000 A 
ATOM     22  C   UNL     1       2.372   7.625  18.856  0.00  0.00    +0.000 A 
ATOM     23  C   UNL     1       3.183   7.545  17.735  0.00  0.00    +0.000 A 
ATOM     24  C   UNL     1       3.917   6.382  17.486  0.00  0.00    +0.000 A 
ATOM     25  C   UNL     1       3.847   5.259  18.333  0.00  0.00    +0.000 A 
BRANCH  20  26
ATOM     26  O   UNL     1       2.865   4.324  20.364  0.00  0.00    +0.000 OA
BRANCH  26  28
ATOM     27  C   UNL     1       1.053   3.040  19.273  0.00  0.00    +0.000 C 
ATOM     28  C   UNL     1       1.553   3.750  20.534  0.00  0.00    +0.000 C 
ATOM     29  C   UNL     1       1.638   2.797  21.726  0.00  0.00    +0.000 C 
ENDBRANCH  26  28
ENDBRANCH  20  26
ENDBRANCH  19  25
ENDBRANCH   1  19
TORSDOF 8
ENDMDL
MODEL 9
REMARK VINA RESULT:      -7.8      1.855      6.517
REMARK  Name = 
REMARK  10 active torsions:
REMARK  status: ('A' for Active; 'I' for Inactive)
REMARK    1  A    between atoms: C_1  and  C_2
REMARK    2  A    between atoms: C_2  and  C_3
REMARK    3  A    between atoms: C_2  and  O_4
REMARK    4  A    between atoms: O_4  and  C_5
REMARK    5  A    between atoms: C_10  and  O_11
REMARK    6  A    between atoms: O_11  and  C_12
REMARK    7  A    between atoms: C_17  and  C_18
REMARK    8  A    between atoms: N_19  and  O_20
REMARK    9  A    between atoms: N_21  and  C_22
REMARK   10  A    between atoms: C_22  and  C_23
REMARK                            x       y       z     vdW  Elec       q    Type
REMARK                         _______ _______ _______ _____ _____    ______ ____
ROOT
ATOM      1  C   UNL     1       2.261   5.335  19.557  0.00  0.00    +0.000 A 
ATOM      2  N   UNL     1       1.341   4.962  20.476  0.00  0.00    +0.000 NA
ATOM      3  C   UNL     1       0.664   3.815  20.302  0.00  0.00    +0.000 A 
ATOM      4  C   UNL     1       0.877   2.975  19.246  0.00  0.00    +0.000 A 
ATOM      5  C   UNL     1       1.933   3.278  18.397  0.00  0.00    +0.000 A 
ATOM      6  C   UNL     1       2.699   4.453  18.568  0.00  0.00    +0.000 A 
ENDROOT
BRANCH   6   7
ATOM      7  C   UNL     1       3.973   4.564  17.729  0.00  0.00    +0.000 C 
ATOM      8  N   UNL     1       4.286   3.457  17.103  0.00  0.00    +0.000 NA
ATOM      9  N   UNL     1       4.712   5.738  17.759  0.00  0.00    +0.000 N 
ATOM     10  H   UNL     1       4.276   6.515  18.251  0.00  0.00    +0.000 HD
BRANCH   8  11
ATOM     11  O   UNL     1       5.529   3.458  16.477  0.00  0.00    +0.000 OA
ATOM     12  H   UNL     1       5.295   3.265  15.551  0.00  0.00    +0.000 HD
ENDBRANCH   8  11
BRANCH   9  13
ATOM     13  C   UNL     1       5.507   6.218  16.628  0.00  0.00    +0.000 C 
BRANCH  13  14
ATOM     14  C   UNL     1       6.949   6.530  17.043  0.00  0.00    +0.000 C 
ATOM     15  C   UNL     1       7.269   6.249  18.503  0.00  0.00    +0.000 C 
ATOM     16  C   UNL     1       8.422   7.191  18.745  0.00  0.00    +0.000 C 
ATOM     17  C   UNL     1       8.023   8.400  17.928  0.00  0.00    +0.000 C 
ATOM     18  O   UNL     1       7.260   7.917  16.814  0.00  0.00    +0.000 OA
ENDBRANCH  13  14
ENDBRANCH   9  13
ENDBRANCH   6   7
BRANCH   1  19
ATOM     19  O   UNL     1       2.805   6.596  19.718  0.00  0.00    +0.000 OA
BRANCH  19  25
ATOM     20  C   UNL     1       1.491   8.699  20.289  0.00  0.00    +0.000 A 
ATOM     21  C   UNL     1       0.954   9.885  19.756  0.00  0.00    +0.000 A 
ATOM     22  C   UNL     1       0.873  10.092  18.380  0.00  0.00    +0.000 A 
ATOM     23  C   UNL     1       1.367   9.123  17.521  0.00  0.00    +0.000 A 
ATOM     24  C   UNL     1       1.953   7.964  18.039  0.00  0.00    +0.000 A 
ATOM     25  C   UNL     1       2.043   7.728  19.424  0.00  0.00    +0.000 A 
BRANCH  20  26
ATOM     26  O   UNL     1       1.562   8.601  21.653  0.00  0.00    +0.000 OA
BRANCH  26  28
ATOM     27  C   UNL     1       0.035   9.604  23.323  0.00  0.00    +0.000 C 
ATOM     28  C   UNL     1       0.313   8.447  22.358  0.00  0.00    +0.000 C 
ATOM     29  C   UNL     1      -0.780   8.316  21.298  0.00  0.00    +0.000 C 
ENDBRANCH  26  28
ENDBRANCH  20  26
ENDBRANCH  19  25
ENDBRANCH   1  19
TORSDOF 8
ENDMDL
