MODEL 1
REMARK VINA RESULT:      -8.2      0.000      0.000
REMARK  Name = 
REMARK  2 active torsions:
REMARK  status: ('A' for Active; 'I' for Inactive)
REMARK    1  A    between atoms: C_2  and  C_3
REMARK    2  A    between atoms: C_5  and  C_6
REMARK                            x       y       z     vdW  Elec       q    Type
REMARK                         _______ _______ _______ _____ _____    ______ ____
ROOT
ATOM      1  C   UNL     1       7.459   6.586  17.598  0.00  0.00    +0.000 A 
ATOM      2  C   UNL     1       7.557   7.939  17.174  0.00  0.00    +0.000 A 
ATOM      3  C   UNL     1       8.258   8.575  18.170  0.00  0.00    +0.000 A 
ATOM      4  O   UNL     1       8.576   7.656  19.124  0.00  0.00    +0.000 OA
ATOM      5  N   UNL     1       8.113   6.413  18.756  0.00  0.00    +0.000 NA
ENDROOT
BRANCH   3   6
ATOM      6  C   UNL     1       8.699   9.940  18.418  0.00  0.00    +0.000 A 
ATOM      7  C   UNL     1       8.310  10.985  17.560  0.00  0.00    +0.000 A 
ATOM      8  C   UNL     1       8.742  12.301  17.744  0.00  0.00    +0.000 A 
ATOM      9  C   UNL     1       9.588  12.538  18.828  0.00  0.00    +0.000 A 
ATOM     10  N   UNL     1      10.196  13.684  19.270  0.00  0.00    +0.000 N 
ATOM     11  N   UNL     1      10.948  13.513  20.372  0.00  0.00    +0.000 NA
ATOM     12  C   UNL     1      10.817  12.211  20.638  0.00  0.00    +0.000 A 
ATOM     13  C   UNL     1       9.987  11.547  19.710  0.00  0.00    +0.000 A 
ATOM     14  C   UNL     1       9.534  10.227  19.516  0.00  0.00    +0.000 A 
ATOM     15  H   UNL     1      10.141  14.608  18.862  0.00  0.00    +0.000 HD
ENDBRANCH   3   6
BRANCH   1  17
ATOM     16  O   UNL     1       7.538   4.684  16.259  0.00  0.00    +0.000 OA
ATOM     17  C   UNL     1       6.825   5.499  16.848  0.00  0.00    +0.000 C 
ATOM     18  N   UNL     1       5.428   5.416  16.786  0.00  0.00    +0.000 N 
ATOM     19  C   UNL     1       4.464   6.394  17.295  0.00  0.00    +0.000 C 
ATOM     20  C   UNL     1       3.551   5.738  18.326  0.00  0.00    +0.000 C 
ATOM     21  C   UNL     1       2.880   4.491  17.746  0.00  0.00    +0.000 C 
ATOM     22  C   UNL     1       3.905   3.534  17.132  0.00  0.00    +0.000 C 
ATOM     23  C   UNL     1       4.819   4.257  16.145  0.00  0.00    +0.000 C 
ENDBRANCH   1  17
TORSDOF 2
ENDMDL
MODEL 2
REMARK VINA RESULT:      -8.1      0.743      1.443
REMARK  Name = 
REMARK  2 active torsions:
REMARK  status: ('A' for Active; 'I' for Inactive)
REMARK    1  A    between atoms: C_2  and  C_3
REMARK    2  A    between atoms: C_5  and  C_6
REMARK                            x       y       z     vdW  Elec       q    Type
REMARK                         _______ _______ _______ _____ _____    ______ ____
ROOT
ATOM      1  C   UNL     1       7.537   7.000  17.582  0.00  0.00    +0.000 A 
ATOM      2  C   UNL     1       7.761   8.379  17.319  0.00  0.00    +0.000 A 
ATOM      3  C   UNL     1       8.483   8.834  18.395  0.00  0.00    +0.000 A 
ATOM      4  O   UNL     1       8.696   7.789  19.242  0.00  0.00    +0.000 OA
ATOM      5  N   UNL     1       8.141   6.640  18.724  0.00  0.00    +0.000 NA
ENDROOT
BRANCH   3   6
ATOM      6  C   UNL     1       9.030  10.119  18.808  0.00  0.00    +0.000 A 
ATOM      7  C   UNL     1       9.330  10.369  20.159  0.00  0.00    +0.000 A 
ATOM      8  C   UNL     1       9.824  11.600  20.599  0.00  0.00    +0.000 A 
ATOM      9  C   UNL     1      10.006  12.585  19.628  0.00  0.00    +0.000 A 
ATOM     10  N   UNL     1      10.444  13.880  19.721  0.00  0.00    +0.000 N 
ATOM     11  N   UNL     1      10.491  14.528  18.543  0.00  0.00    +0.000 NA
ATOM     12  C   UNL     1      10.063  13.613  17.669  0.00  0.00    +0.000 A 
ATOM     13  C   UNL     1       9.740  12.384  18.283  0.00  0.00    +0.000 A 
ATOM     14  C   UNL     1       9.254  11.133  17.856  0.00  0.00    +0.000 A 
ATOM     15  H   UNL     1      10.720  14.380  20.557  0.00  0.00    +0.000 HD
ENDBRANCH   3   6
BRANCH   1  17
ATOM     16  O   UNL     1       7.449   5.559  15.757  0.00  0.00    +0.000 OA
ATOM     17  C   UNL     1       6.836   6.064  16.698  0.00  0.00    +0.000 C 
ATOM     18  N   UNL     1       5.482   5.781  16.916  0.00  0.00    +0.000 N 
ATOM     19  C   UNL     1       4.592   6.424  17.885  0.00  0.00    +0.000 C 
ATOM     20  C   UNL     1       4.030   5.382  18.847  0.00  0.00    +0.000 C 
ATOM     21  C   UNL     1       3.351   4.243  18.084  0.00  0.00    +0.000 C 
ATOM     22  C   UNL     1       4.272   3.658  17.010  0.00  0.00    +0.000 C 
ATOM     23  C   UNL     1       4.839   4.752  16.108  0.00  0.00    +0.000 C 
ENDBRANCH   1  17
TORSDOF 2
ENDMDL
MODEL 3
REMARK VINA RESULT:      -8.0      6.026      7.802
REMARK  Name = 
REMARK  2 active torsions:
REMARK  status: ('A' for Active; 'I' for Inactive)
REMARK    1  A    between atoms: C_2  and  C_3
REMARK    2  A    between atoms: C_5  and  C_6
REMARK                            x       y       z     vdW  Elec       q    Type
REMARK                         _______ _______ _______ _____ _____    ______ ____
ROOT
ATOM      1  C   UNL     1       2.847   7.063  18.529  0.00  0.00    +0.000 A 
ATOM      2  C   UNL     1       2.296   7.208  19.831  0.00  0.00    +0.000 A 
ATOM      3  C   UNL     1       1.600   8.392  19.794  0.00  0.00    +0.000 A 
ATOM      4  O   UNL     1       1.711   8.915  18.542  0.00  0.00    +0.000 OA
ATOM      5  N   UNL     1       2.455   8.077  17.742  0.00  0.00    +0.000 NA
ENDROOT
BRANCH   3   6
ATOM      6  C   UNL     1       0.823   9.167  20.750  0.00  0.00    +0.000 A 
ATOM      7  C   UNL     1       0.814   8.821  22.114  0.00  0.00    +0.000 A 
ATOM      8  C   UNL     1       0.054   9.520  23.056  0.00  0.00    +0.000 A 
ATOM      9  C   UNL     1      -0.709  10.587  22.580  0.00  0.00    +0.000 A 
ATOM     10  N   UNL     1      -1.563  11.446  23.219  0.00  0.00    +0.000 N 
ATOM     11  N   UNL     1      -2.120  12.366  22.410  0.00  0.00    +0.000 NA
ATOM     12  C   UNL     1      -1.605  12.077  21.212  0.00  0.00    +0.000 A 
ATOM     13  C   UNL     1      -0.722  10.976  21.250  0.00  0.00    +0.000 A 
ATOM     14  C   UNL     1       0.059  10.268  20.316  0.00  0.00    +0.000 A 
ATOM     15  H   UNL     1      -1.812  11.454  24.200  0.00  0.00    +0.000 HD
ENDBRANCH   3   6
BRANCH   1  17
ATOM     16  O   UNL     1       4.866   6.071  17.932  0.00  0.00    +0.000 OA
ATOM     17  C   UNL     1       3.649   5.929  18.061  0.00  0.00    +0.000 C 
ATOM     18  N   UNL     1       3.024   4.718  17.743  0.00  0.00    +0.000 N 
ATOM     19  C   UNL     1       1.584   4.456  17.693  0.00  0.00    +0.000 C 
ATOM     20  C   UNL     1       1.223   3.340  18.669  0.00  0.00    +0.000 C 
ATOM     21  C   UNL     1       2.063   2.089  18.403  0.00  0.00    +0.000 C 
ATOM     22  C   UNL     1       3.558   2.413  18.362  0.00  0.00    +0.000 C 
ATOM     23  C   UNL     1       3.851   3.566  17.404  0.00  0.00    +0.000 C 
ENDBRANCH   1  17
TORSDOF 2
ENDMDL
MODEL 4
REMARK VINA RESULT:      -7.9      1.397      1.864
REMARK  Name = 
REMARK  2 active torsions:
REMARK  status: ('A' for Active; 'I' for Inactive)
REMARK    1  A    between atoms: C_2  and  C_3
REMARK    2  A    between atoms: C_5  and  C_6
REMARK                            x       y       z     vdW  Elec       q    Type
REMARK                         _______ _______ _______ _____ _____    ______ ____
ROOT
ATOM      1  C   UNL     1       7.432   6.726  17.856  0.00  0.00    +0.000 A 
ATOM      2  C   UNL     1       8.216   7.428  18.812  0.00  0.00    +0.000 A 
ATOM      3  C   UNL     1       8.360   8.692  18.294  0.00  0.00    +0.000 A 
ATOM      4  O   UNL     1       7.689   8.750  17.110  0.00  0.00    +0.000 OA
ATOM      5  N   UNL     1       7.081   7.542  16.851  0.00  0.00    +0.000 NA
ENDROOT
BRANCH   3   6
ATOM      6  C   UNL     1       9.043   9.910  18.708  0.00  0.00    +0.000 A 
ATOM      7  C   UNL     1       9.202  10.213  20.072  0.00  0.00    +0.000 A 
ATOM      8  C   UNL     1       9.821  11.388  20.508  0.00  0.00    +0.000 A 
ATOM      9  C   UNL     1      10.278  12.260  19.520  0.00  0.00    +0.000 A 
ATOM     10  N   UNL     1      10.897  13.480  19.602  0.00  0.00    +0.000 N 
ATOM     11  N   UNL     1      11.195  14.024  18.409  0.00  0.00    +0.000 NA
ATOM     12  C   UNL     1      10.746  13.119  17.535  0.00  0.00    +0.000 A 
ATOM     13  C   UNL     1      10.160  12.000  18.164  0.00  0.00    +0.000 A 
ATOM     14  C   UNL     1       9.543  10.806  17.742  0.00  0.00    +0.000 A 
ATOM     15  H   UNL     1      11.137  13.995  20.440  0.00  0.00    +0.000 HD
ENDBRANCH   3   6
BRANCH   1  17
ATOM     16  O   UNL     1       7.816   4.436  18.017  0.00  0.00    +0.000 OA
ATOM     17  C   UNL     1       6.977   5.338  17.978  0.00  0.00    +0.000 C 
ATOM     18  N   UNL     1       5.607   5.054  18.019  0.00  0.00    +0.000 N 
ATOM     19  C   UNL     1       4.505   6.000  17.820  0.00  0.00    +0.000 C 
ATOM     20  C   UNL     1       3.613   6.027  19.057  0.00  0.00    +0.000 C 
ATOM     21  C   UNL     1       3.130   4.619  19.413  0.00  0.00    +0.000 C 
ATOM     22  C   UNL     1       4.295   3.633  19.515  0.00  0.00    +0.000 C 
ATOM     23  C   UNL     1       5.178   3.684  18.270  0.00  0.00    +0.000 C 
ENDBRANCH   1  17
TORSDOF 2
ENDMDL
MODEL 5
REMARK VINA RESULT:      -7.9      6.008      8.378
REMARK  Name = 
REMARK  2 active torsions:
REMARK  status: ('A' for Active; 'I' for Inactive)
REMARK    1  A    between atoms: C_2  and  C_3
REMARK    2  A    between atoms: C_5  and  C_6
REMARK                            x       y       z     vdW  Elec       q    Type
REMARK                         _______ _______ _______ _____ _____    ______ ____
ROOT
ATOM      1  C   UNL     1       5.828   5.012  15.304  0.00  0.00    +0.000 A 
ATOM      2  C   UNL     1       5.162   3.941  15.960  0.00  0.00    +0.000 A 
ATOM      3  C   UNL     1       4.309   4.545  16.851  0.00  0.00    +0.000 A 
ATOM      4  O   UNL     1       4.441   5.895  16.724  0.00  0.00    +0.000 OA
ATOM      5  N   UNL     1       5.358   6.190  15.740  0.00  0.00    +0.000 NA
ENDROOT
BRANCH   3   6
ATOM      6  C   UNL     1       3.356   4.082  17.850  0.00  0.00    +0.000 A 
ATOM      7  C   UNL     1       1.976   4.076  17.574  0.00  0.00    +0.000 A 
ATOM      8  C   UNL     1       1.028   3.672  18.519  0.00  0.00    +0.000 A 
ATOM      9  C   UNL     1       1.514   3.273  19.764  0.00  0.00    +0.000 A 
ATOM     10  N   UNL     1       0.869   2.849  20.896  0.00  0.00    +0.000 N 
ATOM     11  N   UNL     1       1.694   2.542  21.913  0.00  0.00    +0.000 NA
ATOM     12  C   UNL     1       2.908   2.784  21.412  0.00  0.00    +0.000 A 
ATOM     13  C   UNL     1       2.864   3.247  20.079  0.00  0.00    +0.000 A 
ATOM     14  C   UNL     1       3.806   3.647  19.112  0.00  0.00    +0.000 A 
ATOM     15  H   UNL     1      -0.128   2.753  21.038  0.00  0.00    +0.000 HD
ENDBRANCH   3   6
BRANCH   1  17
ATOM     16  O   UNL     1       7.975   5.250  14.436  0.00  0.00    +0.000 OA
ATOM     17  C   UNL     1       6.819   4.874  14.232  0.00  0.00    +0.000 C 
ATOM     18  N   UNL     1       6.436   4.347  12.993  0.00  0.00    +0.000 N 
ATOM     19  C   UNL     1       5.077   4.013  12.559  0.00  0.00    +0.000 C 
ATOM     20  C   UNL     1       4.997   2.535  12.191  0.00  0.00    +0.000 C 
ATOM     21  C   UNL     1       6.058   2.173  11.149  0.00  0.00    +0.000 C 
ATOM     22  C   UNL     1       7.453   2.625  11.586  0.00  0.00    +0.000 C 
ATOM     23  C   UNL     1       7.461   4.098  11.987  0.00  0.00    +0.000 C 
ENDBRANCH   1  17
TORSDOF 2
ENDMDL
MODEL 6
REMARK VINA RESULT:      -7.9      6.002      7.058
REMARK  Name = 
REMARK  2 active torsions:
REMARK  status: ('A' for Active; 'I' for Inactive)
REMARK    1  A    between atoms: C_2  and  C_3
REMARK    2  A    between atoms: C_5  and  C_6
REMARK                            x       y       z     vdW  Elec       q    Type
REMARK                         _______ _______ _______ _____ _____    ______ ____
ROOT
ATOM      1  C   UNL     1       2.716   7.132  18.483  0.00  0.00    +0.000 A 
ATOM      2  C   UNL     1       2.289   8.311  17.814  0.00  0.00    +0.000 A 
ATOM      3  C   UNL     1       1.580   9.017  18.754  0.00  0.00    +0.000 A 
ATOM      4  O   UNL     1       1.596   8.315  19.921  0.00  0.00    +0.000 OA
ATOM      5  N   UNL     1       2.331   7.160  19.767  0.00  0.00    +0.000 NA
ENDROOT
BRANCH   3   6
ATOM      6  C   UNL     1       0.849  10.276  18.771  0.00  0.00    +0.000 A 
ATOM      7  C   UNL     1      -0.558  10.288  18.733  0.00  0.00    +0.000 A 
ATOM      8  C   UNL     1      -1.294  11.476  18.713  0.00  0.00    +0.000 A 
ATOM      9  C   UNL     1      -0.565  12.666  18.729  0.00  0.00    +0.000 A 
ATOM     10  N   UNL     1      -0.966  13.975  18.696  0.00  0.00    +0.000 N 
ATOM     11  N   UNL     1       0.047  14.859  18.733  0.00  0.00    +0.000 NA
ATOM     12  C   UNL     1       1.133  14.083  18.787  0.00  0.00    +0.000 A 
ATOM     13  C   UNL     1       0.819  12.707  18.782  0.00  0.00    +0.000 A 
ATOM     14  C   UNL     1       1.545  11.500  18.813  0.00  0.00    +0.000 A 
ATOM     15  H   UNL     1      -1.913  14.330  18.643  0.00  0.00    +0.000 HD
ENDBRANCH   3   6
BRANCH   1  17
ATOM     16  O   UNL     1       4.734   6.298  17.676  0.00  0.00    +0.000 OA
ATOM     17  C   UNL     1       3.544   6.071  17.901  0.00  0.00    +0.000 C 
ATOM     18  N   UNL     1       2.971   4.833  17.586  0.00  0.00    +0.000 N 
ATOM     19  C   UNL     1       1.551   4.479  17.647  0.00  0.00    +0.000 C 
ATOM     20  C   UNL     1       1.347   3.307  18.603  0.00  0.00    +0.000 C 
ATOM     21  C   UNL     1       2.238   2.125  18.215  0.00  0.00    +0.000 C 
ATOM     22  C   UNL     1       3.700   2.548  18.060  0.00  0.00    +0.000 C 
ATOM     23  C   UNL     1       3.835   3.752  17.131  0.00  0.00    +0.000 C 
ENDBRANCH   1  17
TORSDOF 2
ENDMDL
MODEL 7
REMARK VINA RESULT:      -7.8      5.431      7.079
REMARK  Name = 
REMARK  2 active torsions:
REMARK  status: ('A' for Active; 'I' for Inactive)
REMARK    1  A    between atoms: C_2  and  C_3
REMARK    2  A    between atoms: C_5  and  C_6
REMARK                            x       y       z     vdW  Elec       q    Type
REMARK                         _______ _______ _______ _____ _____    ______ ____
ROOT
ATOM      1  C   UNL     1       3.108   5.081  18.482  0.00  0.00    +0.000 A 
ATOM      2  C   UNL     1       2.569   6.380  18.278  0.00  0.00    +0.000 A 
ATOM      3  C   UNL     1       2.190   6.809  19.527  0.00  0.00    +0.000 A 
ATOM      4  O   UNL     1       2.499   5.835  20.427  0.00  0.00    +0.000 OA
ATOM      5  N   UNL     1       3.102   4.774  19.788  0.00  0.00    +0.000 NA
ENDROOT
BRANCH   3   6
ATOM      6  C   UNL     1       1.558   8.005  20.064  0.00  0.00    +0.000 A 
ATOM      7  C   UNL     1       1.433   9.164  19.276  0.00  0.00    +0.000 A 
ATOM      8  C   UNL     1       0.864  10.343  19.767  0.00  0.00    +0.000 A 
ATOM      9  C   UNL     1       0.421  10.321  21.090  0.00  0.00    +0.000 A 
ATOM     10  N   UNL     1      -0.153  11.291  21.870  0.00  0.00    +0.000 N 
ATOM     11  N   UNL     1      -0.452  10.884  23.117  0.00  0.00    +0.000 NA
ATOM     12  C   UNL     1      -0.050   9.610  23.132  0.00  0.00    +0.000 A 
ATOM     13  C   UNL     1       0.507   9.201  21.901  0.00  0.00    +0.000 A 
ATOM     14  C   UNL     1       1.073   8.019  21.387  0.00  0.00    +0.000 A 
ATOM     15  H   UNL     1      -0.360  12.248  21.612  0.00  0.00    +0.000 HD
ENDBRANCH   3   6
BRANCH   1  17
ATOM     16  O   UNL     1       2.958   3.403  16.876  0.00  0.00    +0.000 OA
ATOM     17  C   UNL     1       3.684   4.221  17.444  0.00  0.00    +0.000 C 
ATOM     18  N   UNL     1       5.045   4.321  17.132  0.00  0.00    +0.000 N 
ATOM     19  C   UNL     1       6.052   5.125  17.829  0.00  0.00    +0.000 C 
ATOM     20  C   UNL     1       6.688   6.117  16.860  0.00  0.00    +0.000 C 
ATOM     21  C   UNL     1       7.249   5.398  15.632  0.00  0.00    +0.000 C 
ATOM     22  C   UNL     1       6.202   4.488  14.985  0.00  0.00    +0.000 C 
ATOM     23  C   UNL     1       5.569   3.551  16.011  0.00  0.00    +0.000 C 
ENDBRANCH   1  17
TORSDOF 2
ENDMDL
MODEL 8
REMARK VINA RESULT:      -7.7      5.931      7.481
REMARK  Name = 
REMARK  2 active torsions:
REMARK  status: ('A' for Active; 'I' for Inactive)
REMARK    1  A    between atoms: C_2  and  C_3
REMARK    2  A    between atoms: C_5  and  C_6
REMARK                            x       y       z     vdW  Elec       q    Type
REMARK                         _______ _______ _______ _____ _____    ______ ____
ROOT
ATOM      1  C   UNL     1       3.191   6.780  18.556  0.00  0.00    +0.000 A 
ATOM      2  C   UNL     1       2.333   7.131  19.633  0.00  0.00    +0.000 A 
ATOM      3  C   UNL     1       1.830   8.366  19.301  0.00  0.00    +0.000 A 
ATOM      4  O   UNL     1       2.340   8.725  18.090  0.00  0.00    +0.000 OA
ATOM      5  N   UNL     1       3.157   7.728  17.607  0.00  0.00    +0.000 NA
ENDROOT
BRANCH   3   6
ATOM      6  C   UNL     1       0.931   9.322  19.931  0.00  0.00    +0.000 A 
ATOM      7  C   UNL     1       0.467  10.443  19.219  0.00  0.00    +0.000 A 
ATOM      8  C   UNL     1      -0.370  11.401  19.799  0.00  0.00    +0.000 A 
ATOM      9  C   UNL     1      -0.727  11.197  21.132  0.00  0.00    +0.000 A 
ATOM     10  N   UNL     1      -1.498  11.939  21.988  0.00  0.00    +0.000 N 
ATOM     11  N   UNL     1      -1.619  11.405  23.217  0.00  0.00    +0.000 NA
ATOM     12  C   UNL     1      -0.895  10.285  23.142  0.00  0.00    +0.000 A 
ATOM     13  C   UNL     1      -0.309  10.101  21.871  0.00  0.00    +0.000 A 
ATOM     14  C   UNL     1       0.525   9.140  21.267  0.00  0.00    +0.000 A 
ATOM     15  H   UNL     1      -1.963  12.817  21.796  0.00  0.00    +0.000 HD
ENDBRANCH   3   6
BRANCH   1  17
ATOM     16  O   UNL     1       5.157   5.535  18.605  0.00  0.00    +0.000 OA
ATOM     17  C   UNL     1       3.937   5.525  18.431  0.00  0.00    +0.000 C 
ATOM     18  N   UNL     1       3.265   4.345  18.091  0.00  0.00    +0.000 N 
ATOM     19  C   UNL     1       1.859   4.213  17.700  0.00  0.00    +0.000 C 
ATOM     20  C   UNL     1       1.137   3.275  18.662  0.00  0.00    +0.000 C 
ATOM     21  C   UNL     1       1.856   1.927  18.753  0.00  0.00    +0.000 C 
ATOM     22  C   UNL     1       3.344   2.103  19.064  0.00  0.00    +0.000 C 
ATOM     23  C   UNL     1       4.001   3.087  18.098  0.00  0.00    +0.000 C 
ENDBRANCH   1  17
TORSDOF 2
ENDMDL
MODEL 9
REMARK VINA RESULT:      -7.7      5.996      7.181
REMARK  Name = 
REMARK  2 active torsions:
REMARK  status: ('A' for Active; 'I' for Inactive)
REMARK    1  A    between atoms: C_2  and  C_3
REMARK    2  A    between atoms: C_5  and  C_6
REMARK                            x       y       z     vdW  Elec       q    Type
REMARK                         _______ _______ _______ _____ _____    ______ ____
ROOT
ATOM      1  C   UNL     1       3.188   6.807  18.642  0.00  0.00    +0.000 A 
ATOM      2  C   UNL     1       2.227   7.607  19.318  0.00  0.00    +0.000 A 
ATOM      3  C   UNL     1       1.923   8.618  18.438  0.00  0.00    +0.000 A 
ATOM      4  O   UNL     1       2.643   8.425  17.298  0.00  0.00    +0.000 OA
ATOM      5  N   UNL     1       3.403   7.281  17.406  0.00  0.00    +0.000 NA
ENDROOT
BRANCH   3   6
ATOM      6  C   UNL     1       1.057   9.787  18.463  0.00  0.00    +0.000 A 
ATOM      7  C   UNL     1      -0.310   9.672  18.149  0.00  0.00    +0.000 A 
ATOM      8  C   UNL     1      -1.166  10.777  18.128  0.00  0.00    +0.000 A 
ATOM      9  C   UNL     1      -0.600  12.015  18.432  0.00  0.00    +0.000 A 
ATOM     10  N   UNL     1      -1.142  13.273  18.479  0.00  0.00    +0.000 N 
ATOM     11  N   UNL     1      -0.265  14.234  18.822  0.00  0.00    +0.000 NA
ATOM     12  C   UNL     1       0.878  13.563  18.995  0.00  0.00    +0.000 A 
ATOM     13  C   UNL     1       0.736  12.178  18.762  0.00  0.00    +0.000 A 
ATOM     14  C   UNL     1       1.582  11.053  18.789  0.00  0.00    +0.000 A 
ATOM     15  H   UNL     1      -2.098  13.541  18.284  0.00  0.00    +0.000 HD
ENDBRANCH   3   6
BRANCH   1  17
ATOM     16  O   UNL     1       4.999   5.573  19.425  0.00  0.00    +0.000 OA
ATOM     17  C   UNL     1       3.795   5.578  19.163  0.00  0.00    +0.000 C 
ATOM     18  N   UNL     1       3.013   4.429  19.328  0.00  0.00    +0.000 N 
ATOM     19  C   UNL     1       1.621   4.243  18.910  0.00  0.00    +0.000 C 
ATOM     20  C   UNL     1       0.755   3.905  20.119  0.00  0.00    +0.000 C 
ATOM     21  C   UNL     1       1.315   2.695  20.871  0.00  0.00    +0.000 C 
ATOM     22  C   UNL     1       2.798   2.877  21.205  0.00  0.00    +0.000 C 
ATOM     23  C   UNL     1       3.604   3.260  19.966  0.00  0.00    +0.000 C 
ENDBRANCH   1  17
TORSDOF 2
ENDMDL
