MODEL 1
REMARK VINA RESULT:      -5.9      0.000      0.000
REMARK  Name = 
REMARK  13 active torsions:
REMARK  status: ('A' for Active; 'I' for Inactive)
REMARK    1  A    between atoms: C_1  and  C_2
REMARK    2  A    between atoms: C_2  and  C_3
REMARK    3  A    between atoms: C_3  and  C_4
REMARK    4  A    between atoms: C_4  and  C_5
REMARK    5  A    between atoms: C_5  and  C_6
REMARK    6  A    between atoms: C_6  and  C_7
REMARK    7  A    between atoms: C_7  and  C_8
REMARK    8  A    between atoms: C_8  and  C_9
REMARK    9  A    between atoms: C_9  and  C_10
REMARK   10  A    between atoms: C_10  and  N_11
REMARK   11  A    between atoms: C_13  and  C_14
REMARK   12  A    between atoms: C_14  and  O_15
REMARK   13  A    between atoms: N_16  and  C_17
REMARK                            x       y       z     vdW  Elec       q    Type
REMARK                         _______ _______ _______ _____ _____    ______ ____
ROOT
ATOM      1  C   UNL     1       6.981   4.675  17.165  0.00  0.00    +0.000 C 
ENDROOT
BRANCH   1   2
ATOM      2  N   UNL     1       6.831   4.640  15.709  0.00  0.00    +0.000 N 
ATOM      3  C   UNL     1       5.967   3.825  14.998  0.00  0.00    +0.000 A 
ATOM      4  C   UNL     1       6.306   3.999  13.685  0.00  0.00    +0.000 A 
ATOM      5  N   UNL     1       7.327   4.962  13.742  0.00  0.00    +0.000 N 
ATOM      6  C   UNL     1       8.051   5.567  12.624  0.00  0.00    +0.000 C 
ATOM      7  N   UNL     1       7.659   5.348  14.964  0.00  0.00    +0.000 NA
BRANCH   4   8
ATOM      8  C   UNL     1       5.789   3.357  12.464  0.00  0.00    +0.000 C 
BRANCH   8   9
ATOM      9  O   UNL     1       6.703   2.373  12.008  0.00  0.00    +0.000 OA
ATOM     10  H   UNL     1       7.383   2.249  12.694  0.00  0.00    +0.000 HD
ENDBRANCH   8   9
ENDBRANCH   4   8
ENDBRANCH   1   2
BRANCH   1  11
ATOM     11  C   UNL     1       5.625   4.458  17.807  0.00  0.00    +0.000 C 
BRANCH  11  12
ATOM     12  C   UNL     1       4.832   5.751  17.904  0.00  0.00    +0.000 C 
BRANCH  12  13
ATOM     13  C   UNL     1       3.935   5.638  19.117  0.00  0.00    +0.000 C 
BRANCH  13  14
ATOM     14  C   UNL     1       2.463   5.822  18.791  0.00  0.00    +0.000 C 
BRANCH  14  15
ATOM     15  C   UNL     1       1.971   4.647  17.957  0.00  0.00    +0.000 C 
BRANCH  15  16
ATOM     16  C   UNL     1       1.391   3.514  18.804  0.00  0.00    +0.000 C 
BRANCH  16  17
ATOM     17  C   UNL     1       0.922   4.077  20.133  0.00  0.00    +0.000 C 
BRANCH  17  19
ATOM     18  C   UNL     1       2.744   2.600  20.977  0.00  0.00    +0.000 C 
ATOM     19  C   UNL     1       1.402   3.229  21.300  0.00  0.00    +0.000 C 
ENDBRANCH  17  19
ENDBRANCH  16  17
ENDBRANCH  15  16
ENDBRANCH  14  15
ENDBRANCH  13  14
ENDBRANCH  12  13
ENDBRANCH  11  12
ENDBRANCH   1  11
TORSDOF 11
ENDMDL
MODEL 2
REMARK VINA RESULT:      -5.8      2.892      4.643
REMARK  Name = 
REMARK  13 active torsions:
REMARK  status: ('A' for Active; 'I' for Inactive)
REMARK    1  A    between atoms: C_1  and  C_2
REMARK    2  A    between atoms: C_2  and  C_3
REMARK    3  A    between atoms: C_3  and  C_4
REMARK    4  A    between atoms: C_4  and  C_5
REMARK    5  A    between atoms: C_5  and  C_6
REMARK    6  A    between atoms: C_6  and  C_7
REMARK    7  A    between atoms: C_7  and  C_8
REMARK    8  A    between atoms: C_8  and  C_9
REMARK    9  A    between atoms: C_9  and  C_10
REMARK   10  A    between atoms: C_10  and  N_11
REMARK   11  A    between atoms: C_13  and  C_14
REMARK   12  A    between atoms: C_14  and  O_15
REMARK   13  A    between atoms: N_16  and  C_17
REMARK                            x       y       z     vdW  Elec       q    Type
REMARK                         _______ _______ _______ _____ _____    ______ ____
ROOT
ATOM      1  C   UNL     1       3.399   2.030  18.673  0.00  0.00    +0.000 C 
ENDROOT
BRANCH   1   2
ATOM      2  N   UNL     1       4.250   3.164  18.310  0.00  0.00    +0.000 N 
ATOM      3  C   UNL     1       4.400   3.697  17.040  0.00  0.00    +0.000 A 
ATOM      4  C   UNL     1       5.421   4.600  17.146  0.00  0.00    +0.000 A 
ATOM      5  N   UNL     1       5.751   4.552  18.512  0.00  0.00    +0.000 N 
ATOM      6  C   UNL     1       6.760   5.343  19.217  0.00  0.00    +0.000 C 
ATOM      7  N   UNL     1       5.054   3.679  19.221  0.00  0.00    +0.000 NA
BRANCH   4   8
ATOM      8  C   UNL     1       6.078   5.434  16.127  0.00  0.00    +0.000 C 
BRANCH   8   9
ATOM      9  O   UNL     1       5.531   6.742  16.143  0.00  0.00    +0.000 OA
ATOM     10  H   UNL     1       6.098   7.316  15.595  0.00  0.00    +0.000 HD
ENDBRANCH   8   9
ENDBRANCH   4   8
ENDBRANCH   1   2
BRANCH   1  11
ATOM     11  C   UNL     1       1.991   2.288  18.172  0.00  0.00    +0.000 C 
BRANCH  11  12
ATOM     12  C   UNL     1       1.276   3.335  19.010  0.00  0.00    +0.000 C 
BRANCH  12  13
ATOM     13  C   UNL     1       1.654   3.091  20.454  0.00  0.00    +0.000 C 
BRANCH  13  14
ATOM     14  C   UNL     1       2.143   4.341  21.164  0.00  0.00    +0.000 C 
BRANCH  14  15
ATOM     15  C   UNL     1       1.674   5.578  20.409  0.00  0.00    +0.000 C 
BRANCH  15  16
ATOM     16  C   UNL     1       2.820   6.338  19.739  0.00  0.00    +0.000 C 
BRANCH  16  17
ATOM     17  C   UNL     1       2.448   6.624  18.296  0.00  0.00    +0.000 C 
BRANCH  17  19
ATOM     18  C   UNL     1       1.581   8.923  17.874  0.00  0.00    +0.000 C 
ATOM     19  C   UNL     1       2.817   8.044  17.895  0.00  0.00    +0.000 C 
ENDBRANCH  17  19
ENDBRANCH  16  17
ENDBRANCH  15  16
ENDBRANCH  14  15
ENDBRANCH  13  14
ENDBRANCH  12  13
ENDBRANCH  11  12
ENDBRANCH   1  11
TORSDOF 11
ENDMDL
MODEL 3
REMARK VINA RESULT:      -5.6      2.565      4.287
REMARK  Name = 
REMARK  13 active torsions:
REMARK  status: ('A' for Active; 'I' for Inactive)
REMARK    1  A    between atoms: C_1  and  C_2
REMARK    2  A    between atoms: C_2  and  C_3
REMARK    3  A    between atoms: C_3  and  C_4
REMARK    4  A    between atoms: C_4  and  C_5
REMARK    5  A    between atoms: C_5  and  C_6
REMARK    6  A    between atoms: C_6  and  C_7
REMARK    7  A    between atoms: C_7  and  C_8
REMARK    8  A    between atoms: C_8  and  C_9
REMARK    9  A    between atoms: C_9  and  C_10
REMARK   10  A    between atoms: C_10  and  N_11
REMARK   11  A    between atoms: C_13  and  C_14
REMARK   12  A    between atoms: C_14  and  O_15
REMARK   13  A    between atoms: N_16  and  C_17
REMARK                            x       y       z     vdW  Elec       q    Type
REMARK                         _______ _______ _______ _____ _____    ______ ____
ROOT
ATOM      1  C   UNL     1       4.240   2.741  19.586  0.00  0.00    +0.000 C 
ENDROOT
BRANCH   1   2
ATOM      2  N   UNL     1       4.991   3.738  18.821  0.00  0.00    +0.000 N 
ATOM      3  C   UNL     1       4.881   3.974  17.461  0.00  0.00    +0.000 A 
ATOM      4  C   UNL     1       5.893   4.843  17.162  0.00  0.00    +0.000 A 
ATOM      5  N   UNL     1       6.488   5.084  18.413  0.00  0.00    +0.000 N 
ATOM      6  C   UNL     1       7.609   5.975  18.714  0.00  0.00    +0.000 C 
ATOM      7  N   UNL     1       5.955   4.412  19.420  0.00  0.00    +0.000 NA
BRANCH   4   8
ATOM      8  C   UNL     1       6.327   5.410  15.875  0.00  0.00    +0.000 C 
BRANCH   8   9
ATOM      9  O   UNL     1       7.484   4.735  15.410  0.00  0.00    +0.000 OA
ATOM     10  H   UNL     1       7.512   4.811  14.439  0.00  0.00    +0.000 HD
ENDBRANCH   8   9
ENDBRANCH   4   8
ENDBRANCH   1   2
BRANCH   1  11
ATOM     11  C   UNL     1       3.373   1.939  18.636  0.00  0.00    +0.000 C 
BRANCH  11  12
ATOM     12  C   UNL     1       1.914   2.361  18.709  0.00  0.00    +0.000 C 
BRANCH  12  13
ATOM     13  C   UNL     1       1.698   2.997  20.064  0.00  0.00    +0.000 C 
BRANCH  13  14
ATOM     14  C   UNL     1       1.053   4.370  19.984  0.00  0.00    +0.000 C 
BRANCH  14  15
ATOM     15  C   UNL     1       1.877   5.372  20.782  0.00  0.00    +0.000 C 
BRANCH  15  16
ATOM     16  C   UNL     1       2.038   6.715  20.068  0.00  0.00    +0.000 C 
BRANCH  16  17
ATOM     17  C   UNL     1       2.707   6.487  18.725  0.00  0.00    +0.000 C 
BRANCH  17  19
ATOM     18  C   UNL     1       1.801   8.800  18.518  0.00  0.00    +0.000 C 
ATOM     19  C   UNL     1       2.644   7.729  17.851  0.00  0.00    +0.000 C 
ENDBRANCH  17  19
ENDBRANCH  16  17
ENDBRANCH  15  16
ENDBRANCH  14  15
ENDBRANCH  13  14
ENDBRANCH  12  13
ENDBRANCH  11  12
ENDBRANCH   1  11
TORSDOF 11
ENDMDL
MODEL 4
REMARK VINA RESULT:      -5.5      1.198      1.615
REMARK  Name = 
REMARK  13 active torsions:
REMARK  status: ('A' for Active; 'I' for Inactive)
REMARK    1  A    between atoms: C_1  and  C_2
REMARK    2  A    between atoms: C_2  and  C_3
REMARK    3  A    between atoms: C_3  and  C_4
REMARK    4  A    between atoms: C_4  and  C_5
REMARK    5  A    between atoms: C_5  and  C_6
REMARK    6  A    between atoms: C_6  and  C_7
REMARK    7  A    between atoms: C_7  and  C_8
REMARK    8  A    between atoms: C_8  and  C_9
REMARK    9  A    between atoms: C_9  and  C_10
REMARK   10  A    between atoms: C_10  and  N_11
REMARK   11  A    between atoms: C_13  and  C_14
REMARK   12  A    between atoms: C_14  and  O_15
REMARK   13  A    between atoms: N_16  and  C_17
REMARK                            x       y       z     vdW  Elec       q    Type
REMARK                         _______ _______ _______ _____ _____    ______ ____
ROOT
ATOM      1  C   UNL     1       5.970   5.220  17.098  0.00  0.00    +0.000 C 
ENDROOT
BRANCH   1   2
ATOM      2  N   UNL     1       6.218   4.994  15.673  0.00  0.00    +0.000 N 
ATOM      3  C   UNL     1       5.555   4.087  14.864  0.00  0.00    +0.000 A 
ATOM      4  C   UNL     1       6.241   4.089  13.681  0.00  0.00    +0.000 A 
ATOM      5  N   UNL     1       7.237   5.059  13.890  0.00  0.00    +0.000 N 
ATOM      6  C   UNL     1       8.253   5.518  12.942  0.00  0.00    +0.000 C 
ATOM      7  N   UNL     1       7.237   5.604  15.096  0.00  0.00    +0.000 NA
BRANCH   4   8
ATOM      8  C   UNL     1       6.055   3.290  12.458  0.00  0.00    +0.000 C 
BRANCH   8   9
ATOM      9  O   UNL     1       4.728   3.436  11.979  0.00  0.00    +0.000 OA
ATOM     10  H   UNL     1       4.140   2.906  12.547  0.00  0.00    +0.000 HD
ENDBRANCH   8   9
ENDBRANCH   4   8
ENDBRANCH   1   2
BRANCH   1  11
ATOM     11  C   UNL     1       4.492   5.033  17.378  0.00  0.00    +0.000 C 
BRANCH  11  12
ATOM     12  C   UNL     1       4.050   5.800  18.614  0.00  0.00    +0.000 C 
BRANCH  12  13
ATOM     13  C   UNL     1       2.548   5.654  18.719  0.00  0.00    +0.000 C 
BRANCH  13  14
ATOM     14  C   UNL     1       2.083   5.228  20.100  0.00  0.00    +0.000 C 
BRANCH  14  15
ATOM     15  C   UNL     1       1.067   4.101  19.976  0.00  0.00    +0.000 C 
BRANCH  15  16
ATOM     16  C   UNL     1       1.695   2.713  20.109  0.00  0.00    +0.000 C 
BRANCH  16  17
ATOM     17  C   UNL     1       2.009   2.176  18.724  0.00  0.00    +0.000 C 
BRANCH  17  19
ATOM     18  C   UNL     1       4.281   2.224  19.750  0.00  0.00    +0.000 C 
ATOM     19  C   UNL     1       3.426   1.631  18.645  0.00  0.00    +0.000 C 
ENDBRANCH  17  19
ENDBRANCH  16  17
ENDBRANCH  15  16
ENDBRANCH  14  15
ENDBRANCH  13  14
ENDBRANCH  12  13
ENDBRANCH  11  12
ENDBRANCH   1  11
TORSDOF 11
ENDMDL
MODEL 5
REMARK VINA RESULT:      -5.5      3.260      4.488
REMARK  Name = 
REMARK  13 active torsions:
REMARK  status: ('A' for Active; 'I' for Inactive)
REMARK    1  A    between atoms: C_1  and  C_2
REMARK    2  A    between atoms: C_2  and  C_3
REMARK    3  A    between atoms: C_3  and  C_4
REMARK    4  A    between atoms: C_4  and  C_5
REMARK    5  A    between atoms: C_5  and  C_6
REMARK    6  A    between atoms: C_6  and  C_7
REMARK    7  A    between atoms: C_7  and  C_8
REMARK    8  A    between atoms: C_8  and  C_9
REMARK    9  A    between atoms: C_9  and  C_10
REMARK   10  A    between atoms: C_10  and  N_11
REMARK   11  A    between atoms: C_13  and  C_14
REMARK   12  A    between atoms: C_14  and  O_15
REMARK   13  A    between atoms: N_16  and  C_17
REMARK                            x       y       z     vdW  Elec       q    Type
REMARK                         _______ _______ _______ _____ _____    ______ ____
ROOT
ATOM      1  C   UNL     1       3.944   3.036  18.065  0.00  0.00    +0.000 C 
ENDROOT
BRANCH   1   2
ATOM      2  N   UNL     1       4.841   4.187  18.183  0.00  0.00    +0.000 N 
ATOM      3  C   UNL     1       4.888   5.276  17.329  0.00  0.00    +0.000 A 
ATOM      4  C   UNL     1       5.988   5.990  17.715  0.00  0.00    +0.000 A 
ATOM      5  N   UNL     1       6.469   5.266  18.820  0.00  0.00    +0.000 N 
ATOM      6  C   UNL     1       7.618   5.585  19.668  0.00  0.00    +0.000 C 
ATOM      7  N   UNL     1       5.787   4.168  19.104  0.00  0.00    +0.000 NA
BRANCH   4   8
ATOM      8  C   UNL     1       6.591   7.208  17.151  0.00  0.00    +0.000 C 
BRANCH   8   9
ATOM      9  O   UNL     1       7.765   6.879  16.426  0.00  0.00    +0.000 OA
ATOM     10  H   UNL     1       8.037   7.663  15.915  0.00  0.00    +0.000 HD
ENDBRANCH   8   9
ENDBRANCH   4   8
ENDBRANCH   1   2
BRANCH   1  11
ATOM     11  C   UNL     1       2.776   3.410  17.174  0.00  0.00    +0.000 C 
BRANCH  11  12
ATOM     12  C   UNL     1       1.503   3.637  17.974  0.00  0.00    +0.000 C 
BRANCH  12  13
ATOM     13  C   UNL     1       1.670   2.919  19.295  0.00  0.00    +0.000 C 
BRANCH  13  14
ATOM     14  C   UNL     1       0.990   3.631  20.452  0.00  0.00    +0.000 C 
BRANCH  14  15
ATOM     15  C   UNL     1       1.984   4.551  21.146  0.00  0.00    +0.000 C 
BRANCH  15  16
ATOM     16  C   UNL     1       2.405   5.738  20.279  0.00  0.00    +0.000 C 
BRANCH  16  17
ATOM     17  C   UNL     1       1.580   6.952  20.663  0.00  0.00    +0.000 C 
BRANCH  17  19
ATOM     18  C   UNL     1       2.366   7.652  18.403  0.00  0.00    +0.000 C 
ATOM     19  C   UNL     1       1.870   8.135  19.753  0.00  0.00    +0.000 C 
ENDBRANCH  17  19
ENDBRANCH  16  17
ENDBRANCH  15  16
ENDBRANCH  14  15
ENDBRANCH  13  14
ENDBRANCH  12  13
ENDBRANCH  11  12
ENDBRANCH   1  11
TORSDOF 11
ENDMDL
MODEL 6
REMARK VINA RESULT:      -5.5      3.475      7.569
REMARK  Name = 
REMARK  13 active torsions:
REMARK  status: ('A' for Active; 'I' for Inactive)
REMARK    1  A    between atoms: C_1  and  C_2
REMARK    2  A    between atoms: C_2  and  C_3
REMARK    3  A    between atoms: C_3  and  C_4
REMARK    4  A    between atoms: C_4  and  C_5
REMARK    5  A    between atoms: C_5  and  C_6
REMARK    6  A    between atoms: C_6  and  C_7
REMARK    7  A    between atoms: C_7  and  C_8
REMARK    8  A    between atoms: C_8  and  C_9
REMARK    9  A    between atoms: C_9  and  C_10
REMARK   10  A    between atoms: C_10  and  N_11
REMARK   11  A    between atoms: C_13  and  C_14
REMARK   12  A    between atoms: C_14  and  O_15
REMARK   13  A    between atoms: N_16  and  C_17
REMARK                            x       y       z     vdW  Elec       q    Type
REMARK                         _______ _______ _______ _____ _____    ______ ____
ROOT
ATOM      1  C   UNL     1       5.608   4.205  16.943  0.00  0.00    +0.000 C 
ENDROOT
BRANCH   1   2
ATOM      2  N   UNL     1       4.543   4.125  17.944  0.00  0.00    +0.000 N 
ATOM      3  C   UNL     1       3.534   5.054  18.137  0.00  0.00    +0.000 A 
ATOM      4  C   UNL     1       2.900   4.664  19.284  0.00  0.00    +0.000 A 
ATOM      5  N   UNL     1       3.576   3.485  19.640  0.00  0.00    +0.000 N 
ATOM      6  C   UNL     1       3.302   2.603  20.775  0.00  0.00    +0.000 C 
ATOM      7  N   UNL     1       4.578   3.157  18.841  0.00  0.00    +0.000 NA
BRANCH   4   8
ATOM      8  C   UNL     1       1.793   5.285  20.030  0.00  0.00    +0.000 C 
BRANCH   8   9
ATOM      9  O   UNL     1       2.265   5.798  21.265  0.00  0.00    +0.000 OA
ATOM     10  H   UNL     1       2.269   5.072  21.915  0.00  0.00    +0.000 HD
ENDBRANCH   8   9
ENDBRANCH   4   8
ENDBRANCH   1   2
BRANCH   1  11
ATOM     11  C   UNL     1       4.985   4.298  15.564  0.00  0.00    +0.000 C 
BRANCH  11  12
ATOM     12  C   UNL     1       5.839   5.119  14.612  0.00  0.00    +0.000 C 
BRANCH  12  13
ATOM     13  C   UNL     1       6.817   4.172  13.955  0.00  0.00    +0.000 C 
BRANCH  13  14
ATOM     14  C   UNL     1       6.968   4.408  12.462  0.00  0.00    +0.000 C 
BRANCH  14  15
ATOM     15  C   UNL     1       6.784   3.095  11.712  0.00  0.00    +0.000 C 
BRANCH  15  16
ATOM     16  C   UNL     1       5.377   2.516  11.859  0.00  0.00    +0.000 C 
BRANCH  16  17
ATOM     17  C   UNL     1       4.359   3.594  11.532  0.00  0.00    +0.000 C 
BRANCH  17  19
ATOM     18  C   UNL     1       2.918   4.290   9.620  0.00  0.00    +0.000 C 
ATOM     19  C   UNL     1       3.366   3.124  10.481  0.00  0.00    +0.000 C 
ENDBRANCH  17  19
ENDBRANCH  16  17
ENDBRANCH  15  16
ENDBRANCH  14  15
ENDBRANCH  13  14
ENDBRANCH  12  13
ENDBRANCH  11  12
ENDBRANCH   1  11
TORSDOF 11
ENDMDL
MODEL 7
REMARK VINA RESULT:      -5.5      2.764      4.296
REMARK  Name = 
REMARK  13 active torsions:
REMARK  status: ('A' for Active; 'I' for Inactive)
REMARK    1  A    between atoms: C_1  and  C_2
REMARK    2  A    between atoms: C_2  and  C_3
REMARK    3  A    between atoms: C_3  and  C_4
REMARK    4  A    between atoms: C_4  and  C_5
REMARK    5  A    between atoms: C_5  and  C_6
REMARK    6  A    between atoms: C_6  and  C_7
REMARK    7  A    between atoms: C_7  and  C_8
REMARK    8  A    between atoms: C_8  and  C_9
REMARK    9  A    between atoms: C_9  and  C_10
REMARK   10  A    between atoms: C_10  and  N_11
REMARK   11  A    between atoms: C_13  and  C_14
REMARK   12  A    between atoms: C_14  and  O_15
REMARK   13  A    between atoms: N_16  and  C_17
REMARK                            x       y       z     vdW  Elec       q    Type
REMARK                         _______ _______ _______ _____ _____    ______ ____
ROOT
ATOM      1  C   UNL     1       3.698   2.135  18.392  0.00  0.00    +0.000 C 
ENDROOT
BRANCH   1   2
ATOM      2  N   UNL     1       4.564   3.290  18.148  0.00  0.00    +0.000 N 
ATOM      3  C   UNL     1       4.805   3.883  16.920  0.00  0.00    +0.000 A 
ATOM      4  C   UNL     1       5.806   4.786  17.147  0.00  0.00    +0.000 A 
ATOM      5  N   UNL     1       6.031   4.676  18.530  0.00  0.00    +0.000 N 
ATOM      6  C   UNL     1       6.976   5.438  19.346  0.00  0.00    +0.000 C 
ATOM      7  N   UNL     1       5.291   3.766  19.142  0.00  0.00    +0.000 NA
BRANCH   4   8
ATOM      8  C   UNL     1       6.531   5.672  16.221  0.00  0.00    +0.000 C 
BRANCH   8   9
ATOM      9  O   UNL     1       5.783   5.846  15.028  0.00  0.00    +0.000 OA
ATOM     10  H   UNL     1       6.335   6.337  14.392  0.00  0.00    +0.000 HD
ENDBRANCH   8   9
ENDBRANCH   4   8
ENDBRANCH   1   2
BRANCH   1  11
ATOM     11  C   UNL     1       2.390   2.333  17.653  0.00  0.00    +0.000 C 
BRANCH  11  12
ATOM     12  C   UNL     1       1.329   2.965  18.538  0.00  0.00    +0.000 C 
BRANCH  12  13
ATOM     13  C   UNL     1       1.663   2.603  19.968  0.00  0.00    +0.000 C 
BRANCH  13  14
ATOM     14  C   UNL     1       1.731   3.807  20.891  0.00  0.00    +0.000 C 
BRANCH  14  15
ATOM     15  C   UNL     1       1.247   5.048  20.153  0.00  0.00    +0.000 C 
BRANCH  15  16
ATOM     16  C   UNL     1       1.661   6.350  20.840  0.00  0.00    +0.000 C 
BRANCH  16  17
ATOM     17  C   UNL     1       2.223   7.303  19.800  0.00  0.00    +0.000 C 
BRANCH  17  19
ATOM     18  C   UNL     1       3.477   7.318  17.646  0.00  0.00    +0.000 C 
ATOM     19  C   UNL     1       2.399   6.620  18.454  0.00  0.00    +0.000 C 
ENDBRANCH  17  19
ENDBRANCH  16  17
ENDBRANCH  15  16
ENDBRANCH  14  15
ENDBRANCH  13  14
ENDBRANCH  12  13
ENDBRANCH  11  12
ENDBRANCH   1  11
TORSDOF 11
ENDMDL
MODEL 8
REMARK VINA RESULT:      -5.5      1.021      1.453
REMARK  Name = 
REMARK  13 active torsions:
REMARK  status: ('A' for Active; 'I' for Inactive)
REMARK    1  A    between atoms: C_1  and  C_2
REMARK    2  A    between atoms: C_2  and  C_3
REMARK    3  A    between atoms: C_3  and  C_4
REMARK    4  A    between atoms: C_4  and  C_5
REMARK    5  A    between atoms: C_5  and  C_6
REMARK    6  A    between atoms: C_6  and  C_7
REMARK    7  A    between atoms: C_7  and  C_8
REMARK    8  A    between atoms: C_8  and  C_9
REMARK    9  A    between atoms: C_9  and  C_10
REMARK   10  A    between atoms: C_10  and  N_11
REMARK   11  A    between atoms: C_13  and  C_14
REMARK   12  A    between atoms: C_14  and  O_15
REMARK   13  A    between atoms: N_16  and  C_17
REMARK                            x       y       z     vdW  Elec       q    Type
REMARK                         _______ _______ _______ _____ _____    ______ ____
ROOT
ATOM      1  C   UNL     1       6.373   5.045  16.967  0.00  0.00    +0.000 C 
ENDROOT
BRANCH   1   2
ATOM      2  N   UNL     1       6.517   4.883  15.519  0.00  0.00    +0.000 N 
ATOM      3  C   UNL     1       5.836   3.971  14.729  0.00  0.00    +0.000 A 
ATOM      4  C   UNL     1       6.425   4.051  13.497  0.00  0.00    +0.000 A 
ATOM      5  N   UNL     1       7.385   5.063  13.666  0.00  0.00    +0.000 N 
ATOM      6  C   UNL     1       8.298   5.608  12.660  0.00  0.00    +0.000 C 
ATOM      7  N   UNL     1       7.455   5.565  14.888  0.00  0.00    +0.000 NA
BRANCH   4   8
ATOM      8  C   UNL     1       6.181   3.287  12.263  0.00  0.00    +0.000 C 
BRANCH   8   9
ATOM      9  O   UNL     1       4.805   3.339  11.923  0.00  0.00    +0.000 OA
ATOM     10  H   UNL     1       4.427   2.450  12.049  0.00  0.00    +0.000 HD
ENDBRANCH   8   9
ENDBRANCH   4   8
ENDBRANCH   1   2
BRANCH   1  11
ATOM     11  C   UNL     1       4.944   5.439  17.280  0.00  0.00    +0.000 C 
BRANCH  11  12
ATOM     12  C   UNL     1       4.318   4.522  18.318  0.00  0.00    +0.000 C 
BRANCH  12  13
ATOM     13  C   UNL     1       4.041   5.357  19.548  0.00  0.00    +0.000 C 
BRANCH  13  14
ATOM     14  C   UNL     1       2.562   5.606  19.782  0.00  0.00    +0.000 C 
BRANCH  14  15
ATOM     15  C   UNL     1       2.129   4.949  21.085  0.00  0.00    +0.000 C 
BRANCH  15  16
ATOM     16  C   UNL     1       1.732   3.482  20.911  0.00  0.00    +0.000 C 
BRANCH  16  17
ATOM     17  C   UNL     1       0.596   3.391  19.908  0.00  0.00    +0.000 C 
BRANCH  17  19
ATOM     18  C   UNL     1       2.260   1.765  19.012  0.00  0.00    +0.000 C 
ATOM     19  C   UNL     1       0.957   2.492  18.736  0.00  0.00    +0.000 C 
ENDBRANCH  17  19
ENDBRANCH  16  17
ENDBRANCH  15  16
ENDBRANCH  14  15
ENDBRANCH  13  14
ENDBRANCH  12  13
ENDBRANCH  11  12
ENDBRANCH   1  11
TORSDOF 11
ENDMDL
MODEL 9
REMARK VINA RESULT:      -5.4      3.017      6.929
REMARK  Name = 
REMARK  13 active torsions:
REMARK  status: ('A' for Active; 'I' for Inactive)
REMARK    1  A    between atoms: C_1  and  C_2
REMARK    2  A    between atoms: C_2  and  C_3
REMARK    3  A    between atoms: C_3  and  C_4
REMARK    4  A    between atoms: C_4  and  C_5
REMARK    5  A    between atoms: C_5  and  C_6
REMARK    6  A    between atoms: C_6  and  C_7
REMARK    7  A    between atoms: C_7  and  C_8
REMARK    8  A    between atoms: C_8  and  C_9
REMARK    9  A    between atoms: C_9  and  C_10
REMARK   10  A    between atoms: C_10  and  N_11
REMARK   11  A    between atoms: C_13  and  C_14
REMARK   12  A    between atoms: C_14  and  O_15
REMARK   13  A    between atoms: N_16  and  C_17
REMARK                            x       y       z     vdW  Elec       q    Type
REMARK                         _______ _______ _______ _____ _____    ______ ____
ROOT
ATOM      1  C   UNL     1       5.715   6.368  17.640  0.00  0.00    +0.000 C 
ENDROOT
BRANCH   1   2
ATOM      2  N   UNL     1       4.865   5.348  18.258  0.00  0.00    +0.000 N 
ATOM      3  C   UNL     1       5.276   4.383  19.162  0.00  0.00    +0.000 A 
ATOM      4  C   UNL     1       4.203   3.550  19.313  0.00  0.00    +0.000 A 
ATOM      5  N   UNL     1       3.218   4.145  18.506  0.00  0.00    +0.000 N 
ATOM      6  C   UNL     1       1.837   3.706  18.307  0.00  0.00    +0.000 C 
ATOM      7  N   UNL     1       3.614   5.228  17.856  0.00  0.00    +0.000 NA
BRANCH   4   8
ATOM      8  C   UNL     1       4.048   2.310  20.092  0.00  0.00    +0.000 C 
BRANCH   8   9
ATOM      9  O   UNL     1       5.231   1.532  20.008  0.00  0.00    +0.000 OA
ATOM     10  H   UNL     1       5.902   1.936  20.589  0.00  0.00    +0.000 HD
ENDBRANCH   8   9
ENDBRANCH   4   8
ENDBRANCH   1   2
BRANCH   1  11
ATOM     11  C   UNL     1       7.058   5.753  17.301  0.00  0.00    +0.000 C 
BRANCH  11  12
ATOM     12  C   UNL     1       7.302   5.718  15.802  0.00  0.00    +0.000 C 
BRANCH  12  13
ATOM     13  C   UNL     1       6.141   4.979  15.174  0.00  0.00    +0.000 C 
BRANCH  13  14
ATOM     14  C   UNL     1       6.506   4.286  13.873  0.00  0.00    +0.000 C 
BRANCH  14  15
ATOM     15  C   UNL     1       5.250   3.726  13.219  0.00  0.00    +0.000 C 
BRANCH  15  16
ATOM     16  C   UNL     1       5.530   3.039  11.881  0.00  0.00    +0.000 C 
BRANCH  16  17
ATOM     17  C   UNL     1       4.220   2.846  11.139  0.00  0.00    +0.000 C 
BRANCH  17  19
ATOM     18  C   UNL     1       2.774   3.943   9.430  0.00  0.00    +0.000 C 
ATOM     19  C   UNL     1       3.659   4.168  10.641  0.00  0.00    +0.000 C 
ENDBRANCH  17  19
ENDBRANCH  16  17
ENDBRANCH  15  16
ENDBRANCH  14  15
ENDBRANCH  13  14
ENDBRANCH  12  13
ENDBRANCH  11  12
ENDBRANCH   1  11
TORSDOF 11
ENDMDL
