MODEL 1
REMARK VINA RESULT:      -6.7      0.000      0.000
REMARK  Name = 
REMARK  5 active torsions:
REMARK  status: ('A' for Active; 'I' for Inactive)
REMARK    1  A    between atoms: C_1  and  C_2
REMARK    2  A    between atoms: C_2  and  C_3
REMARK    3  A    between atoms: C_7  and  N_8
REMARK    4  A    between atoms: C_11  and  C_12
REMARK    5  A    between atoms: C_12  and  C_13
REMARK                            x       y       z     vdW  Elec       q    Type
REMARK                         _______ _______ _______ _____ _____    ______ ____
ROOT
ATOM      1  C   UNL     1       3.055   3.416  20.038  0.00  0.00    +0.000 C 
ATOM      2  C   UNL     1       2.237   2.840  18.851  0.00  0.00    +0.000 C 
ATOM      3  C   UNL     1       2.503   3.634  17.563  0.00  0.00    +0.000 C 
ATOM      4  C   UNL     1       3.997   3.563  17.218  0.00  0.00    +0.000 C 
ATOM      5  C   UNL     1       4.828   4.156  18.371  0.00  0.00    +0.000 C 
ATOM      6  C   UNL     1       4.556   3.355  19.663  0.00  0.00    +0.000 C 
ATOM      7  C   UNL     1       4.411   5.624  18.592  0.00  0.00    +0.000 C 
ATOM      8  C   UNL     1       2.898   5.726  18.940  0.00  0.00    +0.000 C 
ATOM      9  C   UNL     1       2.095   5.099  17.776  0.00  0.00    +0.000 C 
ATOM     10  C   UNL     1       2.646   4.898  20.224  0.00  0.00    +0.000 C 
ENDROOT
BRANCH   5  11
ATOM     11  N   UNL     1       6.249   4.093  18.026  0.00  0.00    +0.000 NA
ATOM     12  H   UNL     1       6.793   4.627  18.701  0.00  0.00    +0.000 HD
ATOM     13  H   UNL     1       6.405   4.540  17.122  0.00  0.00    +0.000 HD
ENDBRANCH   5  11
BRANCH   1  15
ATOM     14  C   UNL     1       1.296   2.608  21.780  0.00  0.00    +0.000 C 
ATOM     15  C   UNL     1       2.745   2.582  21.306  0.00  0.00    +0.000 C 
ENDBRANCH   1  15
BRANCH   8  16
ATOM     16  C   UNL     1       2.534   7.216  19.148  0.00  0.00    +0.000 C 
ATOM     17  C   UNL     1       2.544   8.084  17.894  0.00  0.00    +0.000 C 
ENDBRANCH   8  16
TORSDOF 3
ENDMDL
MODEL 2
REMARK VINA RESULT:      -6.7      2.366      4.642
REMARK  Name = 
REMARK  5 active torsions:
REMARK  status: ('A' for Active; 'I' for Inactive)
REMARK    1  A    between atoms: C_1  and  C_2
REMARK    2  A    between atoms: C_2  and  C_3
REMARK    3  A    between atoms: C_7  and  N_8
REMARK    4  A    between atoms: C_11  and  C_12
REMARK    5  A    between atoms: C_12  and  C_13
REMARK                            x       y       z     vdW  Elec       q    Type
REMARK                         _______ _______ _______ _____ _____    ______ ____
ROOT
ATOM      1  C   UNL     1       5.720   4.491  15.928  0.00  0.00    +0.000 C 
ATOM      2  C   UNL     1       5.521   5.976  15.520  0.00  0.00    +0.000 C 
ATOM      3  C   UNL     1       5.272   6.856  16.753  0.00  0.00    +0.000 C 
ATOM      4  C   UNL     1       6.473   6.758  17.703  0.00  0.00    +0.000 C 
ATOM      5  C   UNL     1       6.672   5.297  18.145  0.00  0.00    +0.000 C 
ATOM      6  C   UNL     1       6.922   4.416  16.901  0.00  0.00    +0.000 C 
ATOM      7  C   UNL     1       5.397   4.806  18.860  0.00  0.00    +0.000 C 
ATOM      8  C   UNL     1       4.161   4.899  17.920  0.00  0.00    +0.000 C 
ATOM      9  C   UNL     1       4.006   6.372  17.475  0.00  0.00    +0.000 C 
ATOM     10  C   UNL     1       4.443   4.026  16.673  0.00  0.00    +0.000 C 
ENDROOT
BRANCH   5  11
ATOM     11  N   UNL     1       7.813   5.218  19.058  0.00  0.00    +0.000 NA
ATOM     12  H   UNL     1       8.662   5.509  18.578  0.00  0.00    +0.000 HD
ATOM     13  H   UNL     1       7.965   4.248  19.337  0.00  0.00    +0.000 HD
ENDBRANCH   5  11
BRANCH   1  15
ATOM     14  C   UNL     1       6.656   4.377  13.500  0.00  0.00    +0.000 C 
ATOM     15  C   UNL     1       5.963   3.652  14.649  0.00  0.00    +0.000 C 
ENDBRANCH   1  15
BRANCH   8  16
ATOM     16  C   UNL     1       2.913   4.399  18.688  0.00  0.00    +0.000 C 
ATOM     17  C   UNL     1       1.646   4.227  17.857  0.00  0.00    +0.000 C 
ENDBRANCH   8  16
TORSDOF 3
ENDMDL
MODEL 3
REMARK VINA RESULT:      -6.6      1.627      2.471
REMARK  Name = 
REMARK  5 active torsions:
REMARK  status: ('A' for Active; 'I' for Inactive)
REMARK    1  A    between atoms: C_1  and  C_2
REMARK    2  A    between atoms: C_2  and  C_3
REMARK    3  A    between atoms: C_7  and  N_8
REMARK    4  A    between atoms: C_11  and  C_12
REMARK    5  A    between atoms: C_12  and  C_13
REMARK                            x       y       z     vdW  Elec       q    Type
REMARK                         _______ _______ _______ _____ _____    ______ ____
ROOT
ATOM      1  C   UNL     1       2.311   4.353  19.573  0.00  0.00    +0.000 C 
ATOM      2  C   UNL     1       1.583   3.586  18.437  0.00  0.00    +0.000 C 
ATOM      3  C   UNL     1       2.591   2.931  17.481  0.00  0.00    +0.000 C 
ATOM      4  C   UNL     1       3.470   1.945  18.263  0.00  0.00    +0.000 C 
ATOM      5  C   UNL     1       4.225   2.690  19.379  0.00  0.00    +0.000 C 
ATOM      6  C   UNL     1       3.207   3.347  20.336  0.00  0.00    +0.000 C 
ATOM      7  C   UNL     1       5.105   3.789  18.749  0.00  0.00    +0.000 C 
ATOM      8  C   UNL     1       4.239   4.801  17.945  0.00  0.00    +0.000 C 
ATOM      9  C   UNL     1       3.475   4.018  16.852  0.00  0.00    +0.000 C 
ATOM     10  C   UNL     1       3.213   5.430  18.919  0.00  0.00    +0.000 C 
ENDROOT
BRANCH   5  11
ATOM     11  N   UNL     1       5.068   1.742  20.110  0.00  0.00    +0.000 NA
ATOM     12  H   UNL     1       5.790   2.245  20.623  0.00  0.00    +0.000 HD
ATOM     13  H   UNL     1       5.559   1.138  19.451  0.00  0.00    +0.000 HD
ENDBRANCH   5  11
BRANCH   1  15
ATOM     14  C   UNL     1       1.426   6.483  20.782  0.00  0.00    +0.000 C 
ATOM     15  C   UNL     1       1.249   4.995  20.500  0.00  0.00    +0.000 C 
ENDBRANCH   1  15
BRANCH   8  16
ATOM     16  C   UNL     1       5.170   5.876  17.334  0.00  0.00    +0.000 C 
ATOM     17  C   UNL     1       5.280   5.872  15.812  0.00  0.00    +0.000 C 
ENDBRANCH   8  16
TORSDOF 3
ENDMDL
MODEL 4
REMARK VINA RESULT:      -6.5      2.198      4.738
REMARK  Name = 
REMARK  5 active torsions:
REMARK  status: ('A' for Active; 'I' for Inactive)
REMARK    1  A    between atoms: C_1  and  C_2
REMARK    2  A    between atoms: C_2  and  C_3
REMARK    3  A    between atoms: C_7  and  N_8
REMARK    4  A    between atoms: C_11  and  C_12
REMARK    5  A    between atoms: C_12  and  C_13
REMARK                            x       y       z     vdW  Elec       q    Type
REMARK                         _______ _______ _______ _____ _____    ______ ____
ROOT
ATOM      1  C   UNL     1       6.052   4.771  16.084  0.00  0.00    +0.000 C 
ATOM      2  C   UNL     1       5.238   6.086  15.954  0.00  0.00    +0.000 C 
ATOM      3  C   UNL     1       4.427   6.359  17.229  0.00  0.00    +0.000 C 
ATOM      4  C   UNL     1       5.380   6.481  18.426  0.00  0.00    +0.000 C 
ATOM      5  C   UNL     1       6.179   5.175  18.592  0.00  0.00    +0.000 C 
ATOM      6  C   UNL     1       6.992   4.905  17.307  0.00  0.00    +0.000 C 
ATOM      7  C   UNL     1       5.198   4.007  18.821  0.00  0.00    +0.000 C 
ATOM      8  C   UNL     1       4.215   3.864  17.623  0.00  0.00    +0.000 C 
ATOM      9  C   UNL     1       3.450   5.198  17.468  0.00  0.00    +0.000 C 
ATOM     10  C   UNL     1       5.053   3.616  16.345  0.00  0.00    +0.000 C 
ENDROOT
BRANCH   5  11
ATOM     11  N   UNL     1       7.076   5.299  19.742  0.00  0.00    +0.000 NA
ATOM     12  H   UNL     1       7.858   4.653  19.642  0.00  0.00    +0.000 HD
ATOM     13  H   UNL     1       6.587   5.019  20.593  0.00  0.00    +0.000 HD
ENDBRANCH   5  11
BRANCH   1  15
ATOM     14  C   UNL     1       6.071   3.889  13.634  0.00  0.00    +0.000 C 
ATOM     15  C   UNL     1       6.844   4.545  14.773  0.00  0.00    +0.000 C 
ENDBRANCH   1  15
BRANCH   8  16
ATOM     16  C   UNL     1       3.255   2.683  17.906  0.00  0.00    +0.000 C 
ATOM     17  C   UNL     1       1.792   3.055  18.125  0.00  0.00    +0.000 C 
ENDBRANCH   8  16
TORSDOF 3
ENDMDL
MODEL 5
REMARK VINA RESULT:      -6.4      1.911      3.937
REMARK  Name = 
REMARK  5 active torsions:
REMARK  status: ('A' for Active; 'I' for Inactive)
REMARK    1  A    between atoms: C_1  and  C_2
REMARK    2  A    between atoms: C_2  and  C_3
REMARK    3  A    between atoms: C_7  and  N_8
REMARK    4  A    between atoms: C_11  and  C_12
REMARK    5  A    between atoms: C_12  and  C_13
REMARK                            x       y       z     vdW  Elec       q    Type
REMARK                         _______ _______ _______ _____ _____    ______ ____
ROOT
ATOM      1  C   UNL     1       5.059   4.789  16.825  0.00  0.00    +0.000 C 
ATOM      2  C   UNL     1       5.887   4.468  18.098  0.00  0.00    +0.000 C 
ATOM      3  C   UNL     1       4.968   4.210  19.301  0.00  0.00    +0.000 C 
ATOM      4  C   UNL     1       4.046   3.022  18.995  0.00  0.00    +0.000 C 
ATOM      5  C   UNL     1       3.193   3.330  17.751  0.00  0.00    +0.000 C 
ATOM      6  C   UNL     1       4.121   3.590  16.545  0.00  0.00    +0.000 C 
ATOM      7  C   UNL     1       2.349   4.593  18.017  0.00  0.00    +0.000 C 
ATOM      8  C   UNL     1       3.259   5.814  18.335  0.00  0.00    +0.000 C 
ATOM      9  C   UNL     1       4.120   5.462  19.570  0.00  0.00    +0.000 C 
ATOM     10  C   UNL     1       4.195   6.041  17.122  0.00  0.00    +0.000 C 
ENDROOT
BRANCH   5  11
ATOM     11  N   UNL     1       2.310   2.196  17.476  0.00  0.00    +0.000 NA
ATOM     12  H   UNL     1       1.366   2.405  17.797  0.00  0.00    +0.000 HD
ATOM     13  H   UNL     1       2.616   1.383  18.011  0.00  0.00    +0.000 HD
ENDBRANCH   5  11
BRANCH   1  15
ATOM     14  C   UNL     1       5.763   4.247  14.377  0.00  0.00    +0.000 C 
ATOM     15  C   UNL     1       6.033   5.044  15.649  0.00  0.00    +0.000 C 
ENDBRANCH   1  15
BRANCH   8  16
ATOM     16  C   UNL     1       2.363   7.049  18.596  0.00  0.00    +0.000 C 
ATOM     17  C   UNL     1       2.679   8.287  17.762  0.00  0.00    +0.000 C 
ENDBRANCH   8  16
TORSDOF 3
ENDMDL
MODEL 6
REMARK VINA RESULT:      -6.3      3.000      5.301
REMARK  Name = 
REMARK  5 active torsions:
REMARK  status: ('A' for Active; 'I' for Inactive)
REMARK    1  A    between atoms: C_1  and  C_2
REMARK    2  A    between atoms: C_2  and  C_3
REMARK    3  A    between atoms: C_7  and  N_8
REMARK    4  A    between atoms: C_11  and  C_12
REMARK    5  A    between atoms: C_12  and  C_13
REMARK                            x       y       z     vdW  Elec       q    Type
REMARK                         _______ _______ _______ _____ _____    ______ ____
ROOT
ATOM      1  C   UNL     1       6.817   6.048  17.685  0.00  0.00    +0.000 C 
ATOM      2  C   UNL     1       5.676   7.066  17.418  0.00  0.00    +0.000 C 
ATOM      3  C   UNL     1       4.548   6.425  16.596  0.00  0.00    +0.000 C 
ATOM      4  C   UNL     1       3.975   5.225  17.362  0.00  0.00    +0.000 C 
ATOM      5  C   UNL     1       5.085   4.187  17.613  0.00  0.00    +0.000 C 
ATOM      6  C   UNL     1       6.216   4.837  18.439  0.00  0.00    +0.000 C 
ATOM      7  C   UNL     1       5.657   3.720  16.259  0.00  0.00    +0.000 C 
ATOM      8  C   UNL     1       6.241   4.919  15.458  0.00  0.00    +0.000 C 
ATOM      9  C   UNL     1       5.110   5.952  15.246  0.00  0.00    +0.000 C 
ATOM     10  C   UNL     1       7.357   5.567  16.315  0.00  0.00    +0.000 C 
ENDROOT
BRANCH   5  11
ATOM     11  N   UNL     1       4.525   3.044  18.334  0.00  0.00    +0.000 NA
ATOM     12  H   UNL     1       4.323   2.288  17.681  0.00  0.00    +0.000 HD
ATOM     13  H   UNL     1       3.630   3.303  18.750  0.00  0.00    +0.000 HD
ENDBRANCH   5  11
BRANCH   1  15
ATOM     14  C   UNL     1       8.196   8.207  18.157  0.00  0.00    +0.000 C 
ATOM     15  C   UNL     1       7.924   6.748  18.511  0.00  0.00    +0.000 C 
ENDBRANCH   1  15
BRANCH   8  16
ATOM     16  C   UNL     1       6.796   4.394  14.112  0.00  0.00    +0.000 C 
ATOM     17  C   UNL     1       5.793   3.681  13.212  0.00  0.00    +0.000 C 
ENDBRANCH   8  16
TORSDOF 3
ENDMDL
MODEL 7
REMARK VINA RESULT:      -6.3      2.052      3.794
REMARK  Name = 
REMARK  5 active torsions:
REMARK  status: ('A' for Active; 'I' for Inactive)
REMARK    1  A    between atoms: C_1  and  C_2
REMARK    2  A    between atoms: C_2  and  C_3
REMARK    3  A    between atoms: C_7  and  N_8
REMARK    4  A    between atoms: C_11  and  C_12
REMARK    5  A    between atoms: C_12  and  C_13
REMARK                            x       y       z     vdW  Elec       q    Type
REMARK                         _______ _______ _______ _____ _____    ______ ____
ROOT
ATOM      1  C   UNL     1       3.439   3.552  17.758  0.00  0.00    +0.000 C 
ATOM      2  C   UNL     1       4.290   3.377  19.044  0.00  0.00    +0.000 C 
ATOM      3  C   UNL     1       5.260   4.554  19.226  0.00  0.00    +0.000 C 
ATOM      4  C   UNL     1       4.463   5.862  19.331  0.00  0.00    +0.000 C 
ATOM      5  C   UNL     1       3.631   6.071  18.052  0.00  0.00    +0.000 C 
ATOM      6  C   UNL     1       2.659   4.885  17.873  0.00  0.00    +0.000 C 
ATOM      7  C   UNL     1       4.579   6.132  16.836  0.00  0.00    +0.000 C 
ATOM      8  C   UNL     1       5.403   4.819  16.708  0.00  0.00    +0.000 C 
ATOM      9  C   UNL     1       6.205   4.625  18.017  0.00  0.00    +0.000 C 
ATOM     10  C   UNL     1       4.408   3.643  16.553  0.00  0.00    +0.000 C 
ENDROOT
BRANCH   5  11
ATOM     11  N   UNL     1       2.885   7.325  18.159  0.00  0.00    +0.000 NA
ATOM     12  H   UNL     1       3.233   7.869  18.947  0.00  0.00    +0.000 HD
ATOM     13  H   UNL     1       1.905   7.128  18.364  0.00  0.00    +0.000 HD
ENDBRANCH   5  11
BRANCH   1  15
ATOM     14  C   UNL     1       1.333   2.285  18.620  0.00  0.00    +0.000 C 
ATOM     15  C   UNL     1       2.486   2.338  17.623  0.00  0.00    +0.000 C 
ENDBRANCH   1  15
BRANCH   8  16
ATOM     16  C   UNL     1       6.336   4.935  15.478  0.00  0.00    +0.000 C 
ATOM     17  C   UNL     1       5.973   4.061  14.283  0.00  0.00    +0.000 C 
ENDBRANCH   8  16
TORSDOF 3
ENDMDL
MODEL 8
REMARK VINA RESULT:      -6.3      2.441      3.721
REMARK  Name = 
REMARK  5 active torsions:
REMARK  status: ('A' for Active; 'I' for Inactive)
REMARK    1  A    between atoms: C_1  and  C_2
REMARK    2  A    between atoms: C_2  and  C_3
REMARK    3  A    between atoms: C_7  and  N_8
REMARK    4  A    between atoms: C_11  and  C_12
REMARK    5  A    between atoms: C_12  and  C_13
REMARK                            x       y       z     vdW  Elec       q    Type
REMARK                         _______ _______ _______ _____ _____    ______ ____
ROOT
ATOM      1  C   UNL     1       4.391   4.868  18.235  0.00  0.00    +0.000 C 
ATOM      2  C   UNL     1       3.806   6.038  17.398  0.00  0.00    +0.000 C 
ATOM      3  C   UNL     1       4.844   6.574  16.401  0.00  0.00    +0.000 C 
ATOM      4  C   UNL     1       5.270   5.448  15.451  0.00  0.00    +0.000 C 
ATOM      5  C   UNL     1       5.881   4.286  16.257  0.00  0.00    +0.000 C 
ATOM      6  C   UNL     1       4.833   3.751  17.258  0.00  0.00    +0.000 C 
ATOM      7  C   UNL     1       7.105   4.803  17.040  0.00  0.00    +0.000 C 
ATOM      8  C   UNL     1       6.702   5.951  18.009  0.00  0.00    +0.000 C 
ATOM      9  C   UNL     1       6.070   7.087  17.172  0.00  0.00    +0.000 C 
ATOM     10  C   UNL     1       5.637   5.398  18.987  0.00  0.00    +0.000 C 
ENDROOT
BRANCH   5  11
ATOM     11  N   UNL     1       6.293   3.224  15.340  0.00  0.00    +0.000 NA
ATOM     12  H   UNL     1       5.595   3.108  14.607  0.00  0.00    +0.000 HD
ATOM     13  H   UNL     1       6.329   2.333  15.837  0.00  0.00    +0.000 HD
ENDBRANCH   5  11
BRANCH   1  15
ATOM     14  C   UNL     1       1.860   4.596  18.789  0.00  0.00    +0.000 C 
ATOM     15  C   UNL     1       3.306   4.372  19.222  0.00  0.00    +0.000 C 
ENDBRANCH   1  15
BRANCH   8  16
ATOM     16  C   UNL     1       7.966   6.432  18.763  0.00  0.00    +0.000 C 
ATOM     17  C   UNL     1       8.381   7.877  18.510  0.00  0.00    +0.000 C 
ENDBRANCH   8  16
TORSDOF 3
ENDMDL
MODEL 9
REMARK VINA RESULT:      -6.3      2.263      4.383
REMARK  Name = 
REMARK  5 active torsions:
REMARK  status: ('A' for Active; 'I' for Inactive)
REMARK    1  A    between atoms: C_1  and  C_2
REMARK    2  A    between atoms: C_2  and  C_3
REMARK    3  A    between atoms: C_7  and  N_8
REMARK    4  A    between atoms: C_11  and  C_12
REMARK    5  A    between atoms: C_12  and  C_13
REMARK                            x       y       z     vdW  Elec       q    Type
REMARK                         _______ _______ _______ _____ _____    ______ ____
ROOT
ATOM      1  C   UNL     1       4.364   6.396  17.417  0.00  0.00    +0.000 C 
ATOM      2  C   UNL     1       3.418   5.181  17.607  0.00  0.00    +0.000 C 
ATOM      3  C   UNL     1       4.213   3.868  17.663  0.00  0.00    +0.000 C 
ATOM      4  C   UNL     1       5.200   3.917  18.837  0.00  0.00    +0.000 C 
ATOM      5  C   UNL     1       6.169   5.100  18.655  0.00  0.00    +0.000 C 
ATOM      6  C   UNL     1       5.365   6.417  18.598  0.00  0.00    +0.000 C 
ATOM      7  C   UNL     1       6.939   4.925  17.330  0.00  0.00    +0.000 C 
ATOM      8  C   UNL     1       5.960   4.867  16.122  0.00  0.00    +0.000 C 
ATOM      9  C   UNL     1       4.987   3.687  16.349  0.00  0.00    +0.000 C 
ATOM     10  C   UNL     1       5.151   6.186  16.099  0.00  0.00    +0.000 C 
ENDROOT
BRANCH   5  11
ATOM     11  N   UNL     1       7.113   5.130  19.773  0.00  0.00    +0.000 NA
ATOM     12  H   UNL     1       7.599   6.025  19.792  0.00  0.00    +0.000 HD
ATOM     13  H   UNL     1       7.833   4.421  19.636  0.00  0.00    +0.000 HD
ENDBRANCH   5  11
BRANCH   1  15
ATOM     14  C   UNL     1       2.286   7.713  18.272  0.00  0.00    +0.000 C 
ATOM     15  C   UNL     1       3.511   7.687  17.364  0.00  0.00    +0.000 C 
ENDBRANCH   1  15
BRANCH   8  16
ATOM     16  C   UNL     1       6.783   4.687  14.823  0.00  0.00    +0.000 C 
ATOM     17  C   UNL     1       6.102   3.899  13.708  0.00  0.00    +0.000 C 
ENDBRANCH   8  16
TORSDOF 3
ENDMDL
