MODEL 1
REMARK VINA RESULT:      -7.4      0.000      0.000
REMARK  Name = 
REMARK  2 active torsions:
REMARK  status: ('A' for Active; 'I' for Inactive)
REMARK    1  A    between atoms: C_1  and  C_2
REMARK    2  A    between atoms: C_10  and  C_11
REMARK                            x       y       z     vdW  Elec       q    Type
REMARK                         _______ _______ _______ _____ _____    ______ ____
ROOT
ATOM      1  C   UNL     1       3.547   6.712  18.045  0.00  0.00    +0.000 C 
ATOM      2  C   UNL     1       3.904   5.885  19.269  0.00  0.00    +0.000 C 
ATOM      3  C   UNL     1       2.995   4.730  19.480  0.00  0.00    +0.000 A 
ATOM      4  C   UNL     1       1.603   4.692  19.531  0.00  0.00    +0.000 A 
ATOM      5  C   UNL     1       0.983   3.465  19.771  0.00  0.00    +0.000 A 
ATOM      6  C   UNL     1       1.739   2.304  19.968  0.00  0.00    +0.000 A 
ATOM      7  C   UNL     1       3.135   2.357  19.930  0.00  0.00    +0.000 A 
ATOM      8  C   UNL     1       3.729   3.581  19.679  0.00  0.00    +0.000 A 
ATOM      9  O   UNL     1       5.078   3.761  19.598  0.00  0.00    +0.000 OA
ATOM     10  C   UNL     1       5.284   5.168  19.327  0.00  0.00    +0.000 C 
ENDROOT
BRANCH  10  11
ATOM     11  C   UNL     1       6.306   5.422  18.181  0.00  0.00    +0.000 C 
ATOM     12  O   UNL     1       7.148   6.319  18.220  0.00  0.00    +0.000 OA
ATOM     13  N   UNL     1       6.315   4.486  17.138  0.00  0.00    +0.000 N 
ATOM     14  C   UNL     1       7.444   4.492  16.206  0.00  0.00    +0.000 C 
ATOM     15  C   UNL     1       7.022   5.030  14.841  0.00  0.00    +0.000 C 
ATOM     16  C   UNL     1       5.812   4.266  14.310  0.00  0.00    +0.000 C 
ATOM     17  C   UNL     1       4.673   4.283  15.326  0.00  0.00    +0.000 C 
ATOM     18  C   UNL     1       5.134   3.761  16.689  0.00  0.00    +0.000 C 
ENDBRANCH  10  11
TORSDOF 1
ENDMDL
MODEL 2
REMARK VINA RESULT:      -6.9      1.733      5.623
REMARK  Name = 
REMARK  2 active torsions:
REMARK  status: ('A' for Active; 'I' for Inactive)
REMARK    1  A    between atoms: C_1  and  C_2
REMARK    2  A    between atoms: C_10  and  C_11
REMARK                            x       y       z     vdW  Elec       q    Type
REMARK                         _______ _______ _______ _____ _____    ______ ____
ROOT
ATOM      1  C   UNL     1       6.969   5.526  18.485  0.00  0.00    +0.000 C 
ATOM      2  C   UNL     1       5.829   5.650  17.488  0.00  0.00    +0.000 C 
ATOM      3  C   UNL     1       6.181   5.156  16.133  0.00  0.00    +0.000 A 
ATOM      4  C   UNL     1       7.274   5.471  15.327  0.00  0.00    +0.000 A 
ATOM      5  C   UNL     1       7.359   4.878  14.067  0.00  0.00    +0.000 A 
ATOM      6  C   UNL     1       6.366   4.000  13.616  0.00  0.00    +0.000 A 
ATOM      7  C   UNL     1       5.268   3.703  14.427  0.00  0.00    +0.000 A 
ATOM      8  C   UNL     1       5.209   4.292  15.677  0.00  0.00    +0.000 A 
ATOM      9  O   UNL     1       4.201   4.069  16.568  0.00  0.00    +0.000 OA
ATOM     10  C   UNL     1       4.510   4.863  17.738  0.00  0.00    +0.000 C 
ENDROOT
BRANCH  10  11
ATOM     11  C   UNL     1       4.355   4.070  19.068  0.00  0.00    +0.000 C 
ATOM     12  O   UNL     1       5.245   3.355  19.531  0.00  0.00    +0.000 OA
ATOM     13  N   UNL     1       3.185   4.307  19.801  0.00  0.00    +0.000 N 
ATOM     14  C   UNL     1       3.124   3.842  21.187  0.00  0.00    +0.000 C 
ATOM     15  C   UNL     1       2.181   2.648  21.320  0.00  0.00    +0.000 C 
ATOM     16  C   UNL     1       0.808   2.977  20.738  0.00  0.00    +0.000 C 
ATOM     17  C   UNL     1       0.934   3.468  19.299  0.00  0.00    +0.000 C 
ATOM     18  C   UNL     1       1.904   4.648  19.196  0.00  0.00    +0.000 C 
ENDBRANCH  10  11
TORSDOF 1
ENDMDL
MODEL 3
REMARK VINA RESULT:      -6.8      2.155      5.383
REMARK  Name = 
REMARK  2 active torsions:
REMARK  status: ('A' for Active; 'I' for Inactive)
REMARK    1  A    between atoms: C_1  and  C_2
REMARK    2  A    between atoms: C_10  and  C_11
REMARK                            x       y       z     vdW  Elec       q    Type
REMARK                         _______ _______ _______ _____ _____    ______ ____
ROOT
ATOM      1  C   UNL     1       2.997   6.859  18.166  0.00  0.00    +0.000 C 
ATOM      2  C   UNL     1       3.834   6.073  17.170  0.00  0.00    +0.000 C 
ATOM      3  C   UNL     1       5.270   6.001  17.541  0.00  0.00    +0.000 A 
ATOM      4  C   UNL     1       6.154   7.024  17.881  0.00  0.00    +0.000 A 
ATOM      5  C   UNL     1       7.477   6.687  18.168  0.00  0.00    +0.000 A 
ATOM      6  C   UNL     1       7.911   5.358  18.104  0.00  0.00    +0.000 A 
ATOM      7  C   UNL     1       7.019   4.342  17.747  0.00  0.00    +0.000 A 
ATOM      8  C   UNL     1       5.710   4.697  17.479  0.00  0.00    +0.000 A 
ATOM      9  O   UNL     1       4.741   3.799  17.139  0.00  0.00    +0.000 OA
ATOM     10  C   UNL     1       3.528   4.564  16.943  0.00  0.00    +0.000 C 
ENDROOT
BRANCH  10  11
ATOM     11  C   UNL     1       2.294   3.938  17.653  0.00  0.00    +0.000 C 
ATOM     12  O   UNL     1       1.166   3.933  17.159  0.00  0.00    +0.000 OA
ATOM     13  N   UNL     1       2.547   3.248  18.847  0.00  0.00    +0.000 N 
ATOM     14  C   UNL     1       1.497   2.383  19.388  0.00  0.00    +0.000 C 
ATOM     15  C   UNL     1       0.879   2.996  20.643  0.00  0.00    +0.000 C 
ATOM     16  C   UNL     1       1.960   3.338  21.665  0.00  0.00    +0.000 C 
ATOM     17  C   UNL     1       3.031   4.229  21.043  0.00  0.00    +0.000 C 
ATOM     18  C   UNL     1       3.613   3.599  19.776  0.00  0.00    +0.000 C 
ENDBRANCH  10  11
TORSDOF 1
ENDMDL
MODEL 4
REMARK VINA RESULT:      -6.8      1.831      5.401
REMARK  Name = 
REMARK  2 active torsions:
REMARK  status: ('A' for Active; 'I' for Inactive)
REMARK    1  A    between atoms: C_1  and  C_2
REMARK    2  A    between atoms: C_10  and  C_11
REMARK                            x       y       z     vdW  Elec       q    Type
REMARK                         _______ _______ _______ _____ _____    ______ ____
ROOT
ATOM      1  C   UNL     1       4.054   5.290  16.366  0.00  0.00    +0.000 C 
ATOM      2  C   UNL     1       5.385   4.688  16.783  0.00  0.00    +0.000 C 
ATOM      3  C   UNL     1       6.336   5.691  17.327  0.00  0.00    +0.000 A 
ATOM      4  C   UNL     1       6.752   6.907  16.786  0.00  0.00    +0.000 A 
ATOM      5  C   UNL     1       7.686   7.662  17.496  0.00  0.00    +0.000 A 
ATOM      6  C   UNL     1       8.203   7.205  18.714  0.00  0.00    +0.000 A 
ATOM      7  C   UNL     1       7.790   5.977  19.239  0.00  0.00    +0.000 A 
ATOM      8  C   UNL     1       6.854   5.251  18.525  0.00  0.00    +0.000 A 
ATOM      9  O   UNL     1       6.357   4.050  18.939  0.00  0.00    +0.000 OA
ATOM     10  C   UNL     1       5.418   3.628  17.922  0.00  0.00    +0.000 C 
ENDROOT
BRANCH  10  11
ATOM     11  C   UNL     1       4.069   3.126  18.513  0.00  0.00    +0.000 C 
ATOM     12  O   UNL     1       3.489   2.120  18.103  0.00  0.00    +0.000 OA
ATOM     13  N   UNL     1       3.595   3.805  19.644  0.00  0.00    +0.000 N 
ATOM     14  C   UNL     1       2.516   3.195  20.422  0.00  0.00    +0.000 C 
ATOM     15  C   UNL     1       1.206   3.956  20.228  0.00  0.00    +0.000 C 
ATOM     16  C   UNL     1       1.395   5.441  20.527  0.00  0.00    +0.000 C 
ATOM     17  C   UNL     1       2.538   6.019  19.698  0.00  0.00    +0.000 C 
ATOM     18  C   UNL     1       3.829   5.221  19.897  0.00  0.00    +0.000 C 
ENDBRANCH  10  11
TORSDOF 1
ENDMDL
MODEL 5
REMARK VINA RESULT:      -6.8      2.018      2.723
REMARK  Name = 
REMARK  2 active torsions:
REMARK  status: ('A' for Active; 'I' for Inactive)
REMARK    1  A    between atoms: C_1  and  C_2
REMARK    2  A    between atoms: C_10  and  C_11
REMARK                            x       y       z     vdW  Elec       q    Type
REMARK                         _______ _______ _______ _____ _____    ______ ____
ROOT
ATOM      1  C   UNL     1       2.763   3.833  16.776  0.00  0.00    +0.000 C 
ATOM      2  C   UNL     1       2.035   4.673  17.812  0.00  0.00    +0.000 C 
ATOM      3  C   UNL     1       1.917   4.002  19.131  0.00  0.00    +0.000 A 
ATOM      4  C   UNL     1       1.444   2.729  19.443  0.00  0.00    +0.000 A 
ATOM      5  C   UNL     1       1.415   2.344  20.784  0.00  0.00    +0.000 A 
ATOM      6  C   UNL     1       1.837   3.218  21.792  0.00  0.00    +0.000 A 
ATOM      7  C   UNL     1       2.296   4.498  21.469  0.00  0.00    +0.000 A 
ATOM      8  C   UNL     1       2.328   4.854  20.133  0.00  0.00    +0.000 A 
ATOM      9  O   UNL     1       2.770   6.065  19.688  0.00  0.00    +0.000 OA
ATOM     10  C   UNL     1       2.641   6.039  18.246  0.00  0.00    +0.000 C 
ENDROOT
BRANCH  10  11
ATOM     11  C   UNL     1       3.912   6.558  17.514  0.00  0.00    +0.000 C 
ATOM     12  O   UNL     1       3.865   7.304  16.535  0.00  0.00    +0.000 OA
ATOM     13  N   UNL     1       5.143   6.241  18.104  0.00  0.00    +0.000 N 
ATOM     14  C   UNL     1       6.339   6.952  17.649  0.00  0.00    +0.000 C 
ATOM     15  C   UNL     1       7.241   6.033  16.829  0.00  0.00    +0.000 C 
ATOM     16  C   UNL     1       7.562   4.758  17.605  0.00  0.00    +0.000 C 
ATOM     17  C   UNL     1       6.281   4.067  18.065  0.00  0.00    +0.000 C 
ATOM     18  C   UNL     1       5.389   5.021  18.862  0.00  0.00    +0.000 C 
ENDBRANCH  10  11
TORSDOF 1
ENDMDL
MODEL 6
REMARK VINA RESULT:      -6.7      0.994      1.091
REMARK  Name = 
REMARK  2 active torsions:
REMARK  status: ('A' for Active; 'I' for Inactive)
REMARK    1  A    between atoms: C_1  and  C_2
REMARK    2  A    between atoms: C_10  and  C_11
REMARK                            x       y       z     vdW  Elec       q    Type
REMARK                         _______ _______ _______ _____ _____    ______ ____
ROOT
ATOM      1  C   UNL     1       3.395   6.360  19.077  0.00  0.00    +0.000 C 
ATOM      2  C   UNL     1       3.494   5.103  19.926  0.00  0.00    +0.000 C 
ATOM      3  C   UNL     1       2.512   4.058  19.540  0.00  0.00    +0.000 A 
ATOM      4  C   UNL     1       1.132   4.155  19.368  0.00  0.00    +0.000 A 
ATOM      5  C   UNL     1       0.426   3.002  19.022  0.00  0.00    +0.000 A 
ATOM      6  C   UNL     1       1.084   1.776  18.865  0.00  0.00    +0.000 A 
ATOM      7  C   UNL     1       2.465   1.688  19.055  0.00  0.00    +0.000 A 
ATOM      8  C   UNL     1       3.147   2.846  19.385  0.00  0.00    +0.000 A 
ATOM      9  O   UNL     1       4.496   2.896  19.578  0.00  0.00    +0.000 OA
ATOM     10  C   UNL     1       4.809   4.271  19.904  0.00  0.00    +0.000 C 
ENDROOT
BRANCH  10  11
ATOM     11  C   UNL     1       6.027   4.821  19.108  0.00  0.00    +0.000 C 
ATOM     12  O   UNL     1       6.890   5.540  19.613  0.00  0.00    +0.000 OA
ATOM     13  N   UNL     1       6.176   4.350  17.796  0.00  0.00    +0.000 N 
ATOM     14  C   UNL     1       7.451   4.580  17.114  0.00  0.00    +0.000 C 
ATOM     15  C   UNL     1       7.301   5.633  16.019  0.00  0.00    +0.000 C 
ATOM     16  C   UNL     1       6.169   5.263  15.064  0.00  0.00    +0.000 C 
ATOM     17  C   UNL     1       4.871   5.024  15.830  0.00  0.00    +0.000 C 
ATOM     18  C   UNL     1       5.060   3.982  16.935  0.00  0.00    +0.000 C 
ENDBRANCH  10  11
TORSDOF 1
ENDMDL
MODEL 7
REMARK VINA RESULT:      -6.6      1.908      2.998
REMARK  Name = 
REMARK  2 active torsions:
REMARK  status: ('A' for Active; 'I' for Inactive)
REMARK    1  A    between atoms: C_1  and  C_2
REMARK    2  A    between atoms: C_10  and  C_11
REMARK                            x       y       z     vdW  Elec       q    Type
REMARK                         _______ _______ _______ _____ _____    ______ ____
ROOT
ATOM      1  C   UNL     1       4.660   3.187  17.171  0.00  0.00    +0.000 C 
ATOM      2  C   UNL     1       3.620   4.210  17.597  0.00  0.00    +0.000 C 
ATOM      3  C   UNL     1       2.492   3.615  18.357  0.00  0.00    +0.000 A 
ATOM      4  C   UNL     1       1.680   2.528  18.040  0.00  0.00    +0.000 A 
ATOM      5  C   UNL     1       0.659   2.184  18.927  0.00  0.00    +0.000 A 
ATOM      6  C   UNL     1       0.446   2.919  20.099  0.00  0.00    +0.000 A 
ATOM      7  C   UNL     1       1.257   4.016  20.400  0.00  0.00    +0.000 A 
ATOM      8  C   UNL     1       2.271   4.333  19.513  0.00  0.00    +0.000 A 
ATOM      9  O   UNL     1       3.140   5.366  19.702  0.00  0.00    +0.000 OA
ATOM     10  C   UNL     1       4.033   5.359  18.562  0.00  0.00    +0.000 C 
ENDROOT
BRANCH  10  11
ATOM     11  C   UNL     1       5.530   5.494  18.964  0.00  0.00    +0.000 C 
ATOM     12  O   UNL     1       5.995   5.008  19.996  0.00  0.00    +0.000 OA
ATOM     13  N   UNL     1       6.376   6.093  18.020  0.00  0.00    +0.000 N 
ATOM     14  C   UNL     1       7.822   5.967  18.201  0.00  0.00    +0.000 C 
ATOM     15  C   UNL     1       8.437   7.299  18.624  0.00  0.00    +0.000 C 
ATOM     16  C   UNL     1       8.049   8.407  17.647  0.00  0.00    +0.000 C 
ATOM     17  C   UNL     1       6.534   8.483  17.488  0.00  0.00    +0.000 C 
ATOM     18  C   UNL     1       5.947   7.127  17.088  0.00  0.00    +0.000 C 
ENDBRANCH  10  11
TORSDOF 1
ENDMDL
MODEL 8
REMARK VINA RESULT:      -6.6      2.481      5.287
REMARK  Name = 
REMARK  2 active torsions:
REMARK  status: ('A' for Active; 'I' for Inactive)
REMARK    1  A    between atoms: C_1  and  C_2
REMARK    2  A    between atoms: C_10  and  C_11
REMARK                            x       y       z     vdW  Elec       q    Type
REMARK                         _______ _______ _______ _____ _____    ______ ____
ROOT
ATOM      1  C   UNL     1       1.744   4.430  17.543  0.00  0.00    +0.000 C 
ATOM      2  C   UNL     1       2.960   4.070  18.379  0.00  0.00    +0.000 C 
ATOM      3  C   UNL     1       4.244   4.273  17.661  0.00  0.00    +0.000 A 
ATOM      4  C   UNL     1       4.642   3.820  16.405  0.00  0.00    +0.000 A 
ATOM      5  C   UNL     1       5.930   4.133  15.966  0.00  0.00    +0.000 A 
ATOM      6  C   UNL     1       6.804   4.872  16.771  0.00  0.00    +0.000 A 
ATOM      7  C   UNL     1       6.399   5.308  18.035  0.00  0.00    +0.000 A 
ATOM      8  C   UNL     1       5.116   4.998  18.446  0.00  0.00    +0.000 A 
ATOM      9  O   UNL     1       4.596   5.381  19.647  0.00  0.00    +0.000 OA
ATOM     10  C   UNL     1       3.245   4.861  19.689  0.00  0.00    +0.000 C 
ENDROOT
BRANCH  10  11
ATOM     11  C   UNL     1       2.204   5.915  20.165  0.00  0.00    +0.000 C 
ATOM     12  O   UNL     1       1.276   5.645  20.928  0.00  0.00    +0.000 OA
ATOM     13  N   UNL     1       2.446   7.243  19.786  0.00  0.00    +0.000 N 
ATOM     14  C   UNL     1       1.693   8.306  20.453  0.00  0.00    +0.000 C 
ATOM     15  C   UNL     1       0.659   8.916  19.510  0.00  0.00    +0.000 C 
ATOM     16  C   UNL     1       1.317   9.373  18.210  0.00  0.00    +0.000 C 
ATOM     17  C   UNL     1       2.096   8.229  17.567  0.00  0.00    +0.000 C 
ATOM     18  C   UNL     1       3.106   7.624  18.545  0.00  0.00    +0.000 C 
ENDBRANCH  10  11
TORSDOF 1
ENDMDL
MODEL 9
REMARK VINA RESULT:      -6.5      2.173      3.358
REMARK  Name = 
REMARK  2 active torsions:
REMARK  status: ('A' for Active; 'I' for Inactive)
REMARK    1  A    between atoms: C_1  and  C_2
REMARK    2  A    between atoms: C_10  and  C_11
REMARK                            x       y       z     vdW  Elec       q    Type
REMARK                         _______ _______ _______ _____ _____    ______ ____
ROOT
ATOM      1  C   UNL     1       4.256   5.172  19.734  0.00  0.00    +0.000 C 
ATOM      2  C   UNL     1       3.190   5.752  18.820  0.00  0.00    +0.000 C 
ATOM      3  C   UNL     1       2.414   6.851  19.451  0.00  0.00    +0.000 A 
ATOM      4  C   UNL     1       1.758   6.884  20.680  0.00  0.00    +0.000 A 
ATOM      5  C   UNL     1       1.071   8.047  21.032  0.00  0.00    +0.000 A 
ATOM      6  C   UNL     1       1.030   9.147  20.167  0.00  0.00    +0.000 A 
ATOM      7  C   UNL     1       1.679   9.097  18.931  0.00  0.00    +0.000 A 
ATOM      8  C   UNL     1       2.364   7.939  18.608  0.00  0.00    +0.000 A 
ATOM      9  O   UNL     1       3.052   7.772  17.442  0.00  0.00    +0.000 OA
ATOM     10  C   UNL     1       3.617   6.440  17.492  0.00  0.00    +0.000 C 
ENDROOT
BRANCH  10  11
ATOM     11  C   UNL     1       5.118   6.403  17.081  0.00  0.00    +0.000 C 
ATOM     12  O   UNL     1       5.898   7.330  17.303  0.00  0.00    +0.000 OA
ATOM     13  N   UNL     1       5.588   5.192  16.554  0.00  0.00    +0.000 N 
ATOM     14  C   UNL     1       7.034   4.994  16.445  0.00  0.00    +0.000 C 
ATOM     15  C   UNL     1       7.483   5.046  14.986  0.00  0.00    +0.000 C 
ATOM     16  C   UNL     1       6.678   4.064  14.138  0.00  0.00    +0.000 C 
ATOM     17  C   UNL     1       5.180   4.309  14.301  0.00  0.00    +0.000 C 
ATOM     18  C   UNL     1       4.767   4.275  15.774  0.00  0.00    +0.000 C 
ENDBRANCH  10  11
TORSDOF 1
ENDMDL
