MODEL 1
REMARK VINA RESULT:      -5.7      0.000      0.000
REMARK  Name = 
REMARK  4 active torsions:
REMARK  status: ('A' for Active; 'I' for Inactive)
REMARK    1  A    between atoms: C_1  and  C_2
REMARK    2  A    between atoms: C_2  and  O_4
REMARK    3  A    between atoms: O_4  and  C_5
REMARK    4  A    between atoms: C_5  and  C_6
REMARK                            x       y       z     vdW  Elec       q    Type
REMARK                         _______ _______ _______ _____ _____    ______ ____
ROOT
ATOM      1  C   UNL     1      -1.816  13.130  21.940  0.00  0.00    +0.000 C 
ATOM      2  C   UNL     1      -1.389  13.101  20.457  0.00  0.00    +0.000 C 
ATOM      3  O   UNL     1      -2.084  12.063  19.781  0.00  0.00    +0.000 OA
ATOM      4  C   UNL     1      -1.487  11.652  18.558  0.00  0.00    +0.000 C 
ATOM      5  C   UNL     1      -2.251  10.423  18.040  0.00  0.00    +0.000 C 
ATOM      6  O   UNL     1      -3.673  10.579  18.022  0.00  0.00    +0.000 OA
ATOM      7  C   UNL     1      -4.139  11.583  17.119  0.00  0.00    +0.000 C 
ATOM      8  C   UNL     1      -5.603  11.932  17.395  0.00  0.00    +0.000 C 
ATOM      9  O   UNL     1      -5.814  12.699  18.588  0.00  0.00    +0.000 OA
ATOM     10  C   UNL     1      -5.738  11.914  19.785  0.00  0.00    +0.000 C 
ATOM     11  C   UNL     1      -6.402  12.652  20.949  0.00  0.00    +0.000 C 
ATOM     12  O   UNL     1      -5.551  13.695  21.423  0.00  0.00    +0.000 OA
ATOM     13  C   UNL     1      -6.059  14.293  22.622  0.00  0.00    +0.000 C 
ATOM     14  C   UNL     1      -5.040  15.303  23.142  0.00  0.00    +0.000 C 
ATOM     15  O   UNL     1      -3.920  14.593  23.675  0.00  0.00    +0.000 OA
ATOM     16  C   UNL     1      -2.784  15.425  23.889  0.00  0.00    +0.000 C 
ATOM     17  C   UNL     1      -1.521  14.562  23.889  0.00  0.00    +0.000 C 
ATOM     18  O   UNL     1      -1.087  14.202  22.568  0.00  0.00    +0.000 OA
ENDROOT
BRANCH   1  19
ATOM     19  C   UNL     1      -1.516  11.776  22.622  0.00  0.00    +0.000 C 
BRANCH  19  20
ATOM     20  O   UNL     1      -0.196  11.260  22.375  0.00  0.00    +0.000 OA
BRANCH  20  22
ATOM     21  C   UNL     1      -0.156   9.052  21.583  0.00  0.00    +0.000 C 
ATOM     22  C   UNL     1       0.010   9.977  22.755  0.00  0.00    +0.000 C 
ATOM     23  O   UNL     1       0.325   9.595  23.875  0.00  0.00    +0.000 OA
ENDBRANCH  20  22
ENDBRANCH  19  20
ENDBRANCH   1  19
TORSDOF 3
ENDMDL
MODEL 2
REMARK VINA RESULT:      -5.4      1.714      3.236
REMARK  Name = 
REMARK  4 active torsions:
REMARK  status: ('A' for Active; 'I' for Inactive)
REMARK    1  A    between atoms: C_1  and  C_2
REMARK    2  A    between atoms: C_2  and  O_4
REMARK    3  A    between atoms: O_4  and  C_5
REMARK    4  A    between atoms: C_5  and  C_6
REMARK                            x       y       z     vdW  Elec       q    Type
REMARK                         _______ _______ _______ _____ _____    ______ ____
ROOT
ATOM      1  C   UNL     1      -0.517  11.957  19.544  0.00  0.00    +0.000 C 
ATOM      2  C   UNL     1      -1.458  12.206  18.346  0.00  0.00    +0.000 C 
ATOM      3  O   UNL     1      -2.748  11.689  18.638  0.00  0.00    +0.000 OA
ATOM      4  C   UNL     1      -3.566  11.466  17.496  0.00  0.00    +0.000 C 
ATOM      5  C   UNL     1      -4.848  10.756  17.957  0.00  0.00    +0.000 C 
ATOM      6  O   UNL     1      -5.492  11.370  19.078  0.00  0.00    +0.000 OA
ATOM      7  C   UNL     1      -5.992  12.683  18.817  0.00  0.00    +0.000 C 
ATOM      8  C   UNL     1      -6.349  13.403  20.119  0.00  0.00    +0.000 C 
ATOM      9  O   UNL     1      -5.218  13.828  20.890  0.00  0.00    +0.000 OA
ATOM     10  C   UNL     1      -4.591  12.759  21.611  0.00  0.00    +0.000 C 
ATOM     11  C   UNL     1      -3.714  13.316  22.734  0.00  0.00    +0.000 C 
ATOM     12  O   UNL     1      -2.500  13.842  22.199  0.00  0.00    +0.000 OA
ATOM     13  C   UNL     1      -1.580  14.212  23.233  0.00  0.00    +0.000 C 
ATOM     14  C   UNL     1      -0.262  14.640  22.593  0.00  0.00    +0.000 C 
ATOM     15  O   UNL     1       0.397  13.481  22.078  0.00  0.00    +0.000 OA
ATOM     16  C   UNL     1       1.462  13.796  21.187  0.00  0.00    +0.000 C 
ATOM     17  C   UNL     1       1.718  12.602  20.266  0.00  0.00    +0.000 C 
ATOM     18  O   UNL     1       0.767  12.506  19.194  0.00  0.00    +0.000 OA
ENDROOT
BRANCH   1  19
ATOM     19  C   UNL     1      -0.413  10.445  19.853  0.00  0.00    +0.000 C 
BRANCH  19  20
ATOM     20  O   UNL     1      -0.759  10.085  21.202  0.00  0.00    +0.000 OA
BRANCH  20  22
ATOM     21  C   UNL     1       1.061   8.606  21.253  0.00  0.00    +0.000 C 
ATOM     22  C   UNL     1       0.268   9.658  21.974  0.00  0.00    +0.000 C 
ATOM     23  O   UNL     1       0.560  10.076  23.087  0.00  0.00    +0.000 OA
ENDBRANCH  20  22
ENDBRANCH  19  20
ENDBRANCH   1  19
TORSDOF 3
ENDMDL
MODEL 3
REMARK VINA RESULT:      -5.4      1.539      2.095
REMARK  Name = 
REMARK  4 active torsions:
REMARK  status: ('A' for Active; 'I' for Inactive)
REMARK    1  A    between atoms: C_1  and  C_2
REMARK    2  A    between atoms: C_2  and  O_4
REMARK    3  A    between atoms: O_4  and  C_5
REMARK    4  A    between atoms: C_5  and  C_6
REMARK                            x       y       z     vdW  Elec       q    Type
REMARK                         _______ _______ _______ _____ _____    ______ ____
ROOT
ATOM      1  C   UNL     1      -0.488  12.624  19.977  0.00  0.00    +0.000 C 
ATOM      2  C   UNL     1      -0.921  12.555  18.497  0.00  0.00    +0.000 C 
ATOM      3  O   UNL     1      -2.071  11.732  18.374  0.00  0.00    +0.000 OA
ATOM      4  C   UNL     1      -2.309  11.243  17.060  0.00  0.00    +0.000 C 
ATOM      5  C   UNL     1      -3.474  10.244  17.124  0.00  0.00    +0.000 C 
ATOM      6  O   UNL     1      -4.622  10.722  17.832  0.00  0.00    +0.000 OA
ATOM      7  C   UNL     1      -5.263  11.842  17.217  0.00  0.00    +0.000 C 
ATOM      8  C   UNL     1      -6.249  12.507  18.179  0.00  0.00    +0.000 C 
ATOM      9  O   UNL     1      -5.633  13.254  19.235  0.00  0.00    +0.000 OA
ATOM     10  C   UNL     1      -5.112  12.427  20.284  0.00  0.00    +0.000 C 
ATOM     11  C   UNL     1      -4.889  13.251  21.553  0.00  0.00    +0.000 C 
ATOM     12  O   UNL     1      -3.715  14.051  21.423  0.00  0.00    +0.000 OA
ATOM     13  C   UNL     1      -3.376  14.703  22.654  0.00  0.00    +0.000 C 
ATOM     14  C   UNL     1      -2.046  15.430  22.479  0.00  0.00    +0.000 C 
ATOM     15  O   UNL     1      -0.997  14.462  22.415  0.00  0.00    +0.000 OA
ATOM     16  C   UNL     1       0.230  15.001  21.935  0.00  0.00    +0.000 C 
ATOM     17  C   UNL     1       1.084  13.872  21.356  0.00  0.00    +0.000 C 
ATOM     18  O   UNL     1       0.673  13.474  20.039  0.00  0.00    +0.000 OA
ENDROOT
BRANCH   1  19
ATOM     19  C   UNL     1      -0.176  11.211  20.522  0.00  0.00    +0.000 C 
BRANCH  19  20
ATOM     20  O   UNL     1      -0.722  10.938  21.825  0.00  0.00    +0.000 OA
BRANCH  20  22
ATOM     21  C   UNL     1       0.126   8.770  21.536  0.00  0.00    +0.000 C 
ATOM     22  C   UNL     1      -0.163   9.897  22.486  0.00  0.00    +0.000 C 
ATOM     23  O   UNL     1       0.117   9.862  23.677  0.00  0.00    +0.000 OA
ENDBRANCH  20  22
ENDBRANCH  19  20
ENDBRANCH   1  19
TORSDOF 3
ENDMDL
MODEL 4
REMARK VINA RESULT:      -5.3      2.429      6.253
REMARK  Name = 
REMARK  4 active torsions:
REMARK  status: ('A' for Active; 'I' for Inactive)
REMARK    1  A    between atoms: C_1  and  C_2
REMARK    2  A    between atoms: C_2  and  O_4
REMARK    3  A    between atoms: O_4  and  C_5
REMARK    4  A    between atoms: C_5  and  C_6
REMARK                            x       y       z     vdW  Elec       q    Type
REMARK                         _______ _______ _______ _____ _____    ______ ____
ROOT
ATOM      1  C   UNL     1       0.307  11.966  19.146  0.00  0.00    +0.000 C 
ATOM      2  C   UNL     1       0.998  13.345  19.196  0.00  0.00    +0.000 C 
ATOM      3  O   UNL     1       0.087  14.317  19.688  0.00  0.00    +0.000 OA
ATOM      4  C   UNL     1       0.439  15.661  19.385  0.00  0.00    +0.000 C 
ATOM      5  C   UNL     1      -0.717  16.571  19.831  0.00  0.00    +0.000 C 
ATOM      6  O   UNL     1      -1.177  16.328  21.164  0.00  0.00    +0.000 OA
ATOM      7  C   UNL     1      -0.209  16.611  22.176  0.00  0.00    +0.000 C 
ATOM      8  C   UNL     1      -0.632  16.017  23.521  0.00  0.00    +0.000 C 
ATOM      9  O   UNL     1      -0.514  14.591  23.601  0.00  0.00    +0.000 OA
ATOM     10  C   UNL     1      -1.569  13.897  22.922  0.00  0.00    +0.000 C 
ATOM     11  C   UNL     1      -1.654  12.449  23.407  0.00  0.00    +0.000 C 
ATOM     12  O   UNL     1      -0.601  11.673  22.837  0.00  0.00    +0.000 OA
ATOM     13  C   UNL     1      -0.750  10.278  23.128  0.00  0.00    +0.000 C 
ATOM     14  C   UNL     1       0.330   9.499  22.382  0.00  0.00    +0.000 C 
ATOM     15  O   UNL     1       0.014   9.496  20.988  0.00  0.00    +0.000 OA
ATOM     16  C   UNL     1       1.106   9.083  20.171  0.00  0.00    +0.000 C 
ATOM     17  C   UNL     1       0.916   9.639  18.759  0.00  0.00    +0.000 C 
ATOM     18  O   UNL     1       1.278  11.025  18.648  0.00  0.00    +0.000 OA
ENDROOT
BRANCH   1  19
ATOM     19  C   UNL     1      -0.942  12.013  18.237  0.00  0.00    +0.000 C 
BRANCH  19  20
ATOM     20  O   UNL     1      -2.184  11.745  18.911  0.00  0.00    +0.000 OA
BRANCH  20  22
ATOM     21  C   UNL     1      -2.516  10.082  17.290  0.00  0.00    +0.000 C 
ATOM     22  C   UNL     1      -3.134  11.134  18.164  0.00  0.00    +0.000 C 
ATOM     23  O   UNL     1      -4.338  11.357  18.200  0.00  0.00    +0.000 OA
ENDBRANCH  20  22
ENDBRANCH  19  20
ENDBRANCH   1  19
TORSDOF 3
ENDMDL
MODEL 5
REMARK VINA RESULT:      -5.3      1.966      5.976
REMARK  Name = 
REMARK  4 active torsions:
REMARK  status: ('A' for Active; 'I' for Inactive)
REMARK    1  A    between atoms: C_1  and  C_2
REMARK    2  A    between atoms: C_2  and  O_4
REMARK    3  A    between atoms: O_4  and  C_5
REMARK    4  A    between atoms: C_5  and  C_6
REMARK                            x       y       z     vdW  Elec       q    Type
REMARK                         _______ _______ _______ _____ _____    ______ ____
ROOT
ATOM      1  C   UNL     1      -4.801  13.357  20.295  0.00  0.00    +0.000 C 
ATOM      2  C   UNL     1      -3.767  14.401  20.769  0.00  0.00    +0.000 C 
ATOM      3  O   UNL     1      -2.705  13.746  21.446  0.00  0.00    +0.000 OA
ATOM      4  C   UNL     1      -1.931  14.593  22.287  0.00  0.00    +0.000 C 
ATOM      5  C   UNL     1      -0.942  13.715  23.070  0.00  0.00    +0.000 C 
ATOM      6  O   UNL     1      -0.205  12.793  22.262  0.00  0.00    +0.000 OA
ATOM      7  C   UNL     1       0.674  13.413  21.322  0.00  0.00    +0.000 C 
ATOM      8  C   UNL     1       1.159  12.406  20.277  0.00  0.00    +0.000 C 
ATOM      9  O   UNL     1       0.167  12.023  19.317  0.00  0.00    +0.000 OA
ATOM     10  C   UNL     1      -0.785  11.083  19.833  0.00  0.00    +0.000 C 
ATOM     11  C   UNL     1      -1.515  10.380  18.688  0.00  0.00    +0.000 C 
ATOM     12  O   UNL     1      -2.490  11.251  18.114  0.00  0.00    +0.000 OA
ATOM     13  C   UNL     1      -3.312  10.571  17.157  0.00  0.00    +0.000 C 
ATOM     14  C   UNL     1      -4.409  11.521  16.684  0.00  0.00    +0.000 C 
ATOM     15  O   UNL     1      -5.353  11.695  17.743  0.00  0.00    +0.000 OA
ATOM     16  C   UNL     1      -6.230  12.797  17.530  0.00  0.00    +0.000 C 
ATOM     17  C   UNL     1      -6.780  13.271  18.877  0.00  0.00    +0.000 C 
ATOM     18  O   UNL     1      -5.846  14.076  19.613  0.00  0.00    +0.000 OA
ENDROOT
BRANCH   1  19
ATOM     19  C   UNL     1      -5.363  12.560  21.494  0.00  0.00    +0.000 C 
BRANCH  19  20
ATOM     20  O   UNL     1      -5.523  13.327  22.701  0.00  0.00    +0.000 OA
BRANCH  20  22
ATOM     21  C   UNL     1      -4.282  12.666  24.578  0.00  0.00    +0.000 C 
ATOM     22  C   UNL     1      -5.592  12.608  23.846  0.00  0.00    +0.000 C 
ATOM     23  O   UNL     1      -6.575  12.016  24.272  0.00  0.00    +0.000 OA
ENDBRANCH  20  22
ENDBRANCH  19  20
ENDBRANCH   1  19
TORSDOF 3
ENDMDL
MODEL 6
REMARK VINA RESULT:      -5.2      2.064      5.173
REMARK  Name = 
REMARK  4 active torsions:
REMARK  status: ('A' for Active; 'I' for Inactive)
REMARK    1  A    between atoms: C_1  and  C_2
REMARK    2  A    between atoms: C_2  and  O_4
REMARK    3  A    between atoms: O_4  and  C_5
REMARK    4  A    between atoms: C_5  and  C_6
REMARK                            x       y       z     vdW  Elec       q    Type
REMARK                         _______ _______ _______ _____ _____    ______ ____
ROOT
ATOM      1  C   UNL     1      -6.427  12.546  20.982  0.00  0.00    +0.000 C 
ATOM      2  C   UNL     1      -6.342  11.396  19.956  0.00  0.00    +0.000 C 
ATOM      3  O   UNL     1      -5.346  11.694  18.987  0.00  0.00    +0.000 OA
ATOM      4  C   UNL     1      -5.460  10.955  17.778  0.00  0.00    +0.000 C 
ATOM      5  C   UNL     1      -4.428  11.505  16.781  0.00  0.00    +0.000 C 
ATOM      6  O   UNL     1      -3.107  11.637  17.314  0.00  0.00    +0.000 OA
ATOM      7  C   UNL     1      -2.496  10.396  17.673  0.00  0.00    +0.000 C 
ATOM      8  C   UNL     1      -1.254  10.625  18.536  0.00  0.00    +0.000 C 
ATOM      9  O   UNL     1      -1.535  11.043  19.878  0.00  0.00    +0.000 OA
ATOM     10  C   UNL     1      -1.902  12.425  19.975  0.00  0.00    +0.000 C 
ATOM     11  C   UNL     1      -1.745  12.919  21.414  0.00  0.00    +0.000 C 
ATOM     12  O   UNL     1      -2.823  12.442  22.220  0.00  0.00    +0.000 OA
ATOM     13  C   UNL     1      -2.807  13.026  23.529  0.00  0.00    +0.000 C 
ATOM     14  C   UNL     1      -4.053  12.576  24.287  0.00  0.00    +0.000 C 
ATOM     15  O   UNL     1      -5.192  13.239  23.734  0.00  0.00    +0.000 OA
ATOM     16  C   UNL     1      -6.426  12.658  24.142  0.00  0.00    +0.000 C 
ATOM     17  C   UNL     1      -7.508  13.002  23.117  0.00  0.00    +0.000 C 
ATOM     18  O   UNL     1      -7.443  12.185  21.937  0.00  0.00    +0.000 OA
ENDROOT
BRANCH   1  19
ATOM     19  C   UNL     1      -6.768  13.881  20.281  0.00  0.00    +0.000 C 
BRANCH  19  20
ATOM     20  O   UNL     1      -5.661  14.792  20.157  0.00  0.00    +0.000 OA
BRANCH  20  22
ATOM     21  C   UNL     1      -3.996  15.893  21.389  0.00  0.00    +0.000 C 
ATOM     22  C   UNL     1      -5.461  15.615  21.213  0.00  0.00    +0.000 C 
ATOM     23  O   UNL     1      -6.330  16.110  21.920  0.00  0.00    +0.000 OA
ENDBRANCH  20  22
ENDBRANCH  19  20
ENDBRANCH   1  19
TORSDOF 3
ENDMDL
MODEL 7
REMARK VINA RESULT:      -5.2      2.315      3.748
REMARK  Name = 
REMARK  4 active torsions:
REMARK  status: ('A' for Active; 'I' for Inactive)
REMARK    1  A    between atoms: C_1  and  C_2
REMARK    2  A    between atoms: C_2  and  O_4
REMARK    3  A    between atoms: O_4  and  C_5
REMARK    4  A    between atoms: C_5  and  C_6
REMARK                            x       y       z     vdW  Elec       q    Type
REMARK                         _______ _______ _______ _____ _____    ______ ____
ROOT
ATOM      1  C   UNL     1      -0.386  12.018  19.365  0.00  0.00    +0.000 C 
ATOM      2  C   UNL     1      -1.367  12.288  18.204  0.00  0.00    +0.000 C 
ATOM      3  O   UNL     1      -2.641  11.747  18.520  0.00  0.00    +0.000 OA
ATOM      4  C   UNL     1      -3.491  11.544  17.399  0.00  0.00    +0.000 C 
ATOM      5  C   UNL     1      -4.750  10.806  17.879  0.00  0.00    +0.000 C 
ATOM      6  O   UNL     1      -5.366  11.382  19.036  0.00  0.00    +0.000 OA
ATOM      7  C   UNL     1      -5.889  12.695  18.826  0.00  0.00    +0.000 C 
ATOM      8  C   UNL     1      -6.214  13.375  20.157  0.00  0.00    +0.000 C 
ATOM      9  O   UNL     1      -5.065  13.794  20.904  0.00  0.00    +0.000 OA
ATOM     10  C   UNL     1      -4.403  12.714  21.576  0.00  0.00    +0.000 C 
ATOM     11  C   UNL     1      -3.499  13.252  22.687  0.00  0.00    +0.000 C 
ATOM     12  O   UNL     1      -2.308  13.808  22.129  0.00  0.00    +0.000 OA
ATOM     13  C   UNL     1      -1.360  14.161  23.144  0.00  0.00    +0.000 C 
ATOM     14  C   UNL     1      -0.068  14.623  22.475  0.00  0.00    +0.000 C 
ATOM     15  O   UNL     1       0.588  13.486  21.909  0.00  0.00    +0.000 OA
ATOM     16  C   UNL     1       1.622  13.838  20.995  0.00  0.00    +0.000 C 
ATOM     17  C   UNL     1       1.862  12.672  20.035  0.00  0.00    +0.000 C 
ATOM     18  O   UNL     1       0.880  12.593  18.990  0.00  0.00    +0.000 OA
ENDROOT
BRANCH   1  19
ATOM     19  C   UNL     1      -0.255  10.501  19.629  0.00  0.00    +0.000 C 
BRANCH  19  20
ATOM     20  O   UNL     1       0.381   9.761  18.572  0.00  0.00    +0.000 OA
BRANCH  20  22
ATOM     21  C   UNL     1       2.271   8.616  17.784  0.00  0.00    +0.000 C 
ATOM     22  C   UNL     1       1.390   8.945  18.955  0.00  0.00    +0.000 C 
ATOM     23  O   UNL     1       1.605   8.544  20.093  0.00  0.00    +0.000 OA
ENDBRANCH  20  22
ENDBRANCH  19  20
ENDBRANCH   1  19
TORSDOF 3
ENDMDL
MODEL 8
REMARK VINA RESULT:      -5.1      2.683      6.396
REMARK  Name = 
REMARK  4 active torsions:
REMARK  status: ('A' for Active; 'I' for Inactive)
REMARK    1  A    between atoms: C_1  and  C_2
REMARK    2  A    between atoms: C_2  and  O_4
REMARK    3  A    between atoms: O_4  and  C_5
REMARK    4  A    between atoms: C_5  and  C_6
REMARK                            x       y       z     vdW  Elec       q    Type
REMARK                         _______ _______ _______ _____ _____    ______ ____
ROOT
ATOM      1  C   UNL     1       0.849  10.963  19.001  0.00  0.00    +0.000 C 
ATOM      2  C   UNL     1       1.483  12.367  18.909  0.00  0.00    +0.000 C 
ATOM      3  O   UNL     1       0.520  13.350  19.260  0.00  0.00    +0.000 OA
ATOM      4  C   UNL     1       0.827  14.664  18.812  0.00  0.00    +0.000 C 
ATOM      5  C   UNL     1      -0.378  15.568  19.118  0.00  0.00    +0.000 C 
ATOM      6  O   UNL     1      -0.869  15.461  20.458  0.00  0.00    +0.000 OA
ATOM      7  C   UNL     1       0.055  15.900  21.455  0.00  0.00    +0.000 C 
ATOM      8  C   UNL     1      -0.385  15.446  22.849  0.00  0.00    +0.000 C 
ATOM      9  O   UNL     1      -0.213  14.045  23.097  0.00  0.00    +0.000 OA
ATOM     10  C   UNL     1      -1.218  13.234  22.476  0.00  0.00    +0.000 C 
ATOM     11  C   UNL     1      -1.261  11.849  23.124  0.00  0.00    +0.000 C 
ATOM     12  O   UNL     1      -0.161  11.059  22.676  0.00  0.00    +0.000 OA
ATOM     13  C   UNL     1      -0.264   9.701  23.123  0.00  0.00    +0.000 C 
ATOM     14  C   UNL     1       0.869   8.888  22.502  0.00  0.00    +0.000 C 
ATOM     15  O   UNL     1       0.598   8.712  21.110  0.00  0.00    +0.000 OA
ATOM     16  C   UNL     1       1.729   8.254  20.376  0.00  0.00    +0.000 C 
ATOM     17  C   UNL     1       1.562   8.636  18.904  0.00  0.00    +0.000 C 
ATOM     18  O   UNL     1       1.871  10.014  18.642  0.00  0.00    +0.000 OA
ENDROOT
BRANCH   1  19
ATOM     19  C   UNL     1      -0.372  10.852  18.060  0.00  0.00    +0.000 C 
BRANCH  19  20
ATOM     20  O   UNL     1      -1.639  10.742  18.733  0.00  0.00    +0.000 OA
BRANCH  20  22
ATOM     21  C   UNL     1      -2.515   9.861  16.744  0.00  0.00    +0.000 C 
ATOM     22  C   UNL     1      -2.730  10.755  17.931  0.00  0.00    +0.000 C 
ATOM     23  O   UNL     1      -3.772  11.365  18.135  0.00  0.00    +0.000 OA
ENDBRANCH  20  22
ENDBRANCH  19  20
ENDBRANCH   1  19
TORSDOF 3
ENDMDL
MODEL 9
REMARK VINA RESULT:      -5.1      1.634      5.105
REMARK  Name = 
REMARK  4 active torsions:
REMARK  status: ('A' for Active; 'I' for Inactive)
REMARK    1  A    between atoms: C_1  and  C_2
REMARK    2  A    between atoms: C_2  and  O_4
REMARK    3  A    between atoms: O_4  and  C_5
REMARK    4  A    between atoms: C_5  and  C_6
REMARK                            x       y       z     vdW  Elec       q    Type
REMARK                         _______ _______ _______ _____ _____    ______ ____
ROOT
ATOM      1  C   UNL     1      -1.193  12.069  21.682  0.00  0.00    +0.000 C 
ATOM      2  C   UNL     1      -2.136  11.773  22.867  0.00  0.00    +0.000 C 
ATOM      3  O   UNL     1      -3.266  12.632  22.804  0.00  0.00    +0.000 OA
ATOM      4  C   UNL     1      -3.974  12.766  24.029  0.00  0.00    +0.000 C 
ATOM      5  C   UNL     1      -5.052  13.846  23.843  0.00  0.00    +0.000 C 
ATOM      6  O   UNL     1      -5.855  13.681  22.670  0.00  0.00    +0.000 OA
ATOM      7  C   UNL     1      -6.657  12.499  22.673  0.00  0.00    +0.000 C 
ATOM      8  C   UNL     1      -7.214  12.209  21.278  0.00  0.00    +0.000 C 
ATOM      9  O   UNL     1      -6.243  11.723  20.342  0.00  0.00    +0.000 OA
ATOM     10  C   UNL     1      -5.388  12.753  19.828  0.00  0.00    +0.000 C 
ATOM     11  C   UNL     1      -4.705  12.286  18.542  0.00  0.00    +0.000 C 
ATOM     12  O   UNL     1      -3.646  11.379  18.846  0.00  0.00    +0.000 OA
ATOM     13  C   UNL     1      -2.871  11.057  17.684  0.00  0.00    +0.000 C 
ATOM     14  C   UNL     1      -1.685  10.194  18.104  0.00  0.00    +0.000 C 
ATOM     15  O   UNL     1      -0.747  11.011  18.807  0.00  0.00    +0.000 OA
ATOM     16  C   UNL     1       0.229  10.255  19.516  0.00  0.00    +0.000 C 
ATOM     17  C   UNL     1       0.795  11.105  20.655  0.00  0.00    +0.000 C 
ATOM     18  O   UNL     1      -0.076  11.167  21.796  0.00  0.00    +0.000 OA
ENDROOT
BRANCH   1  19
ATOM     19  C   UNL     1      -0.727  13.542  21.708  0.00  0.00    +0.000 C 
BRANCH  19  20
ATOM     20  O   UNL     1      -0.124  13.958  22.947  0.00  0.00    +0.000 OA
BRANCH  20  22
ATOM     21  C   UNL     1      -1.586  15.770  22.663  0.00  0.00    +0.000 C 
ATOM     22  C   UNL     1      -0.779  14.936  23.616  0.00  0.00    +0.000 C 
ATOM     23  O   UNL     1      -0.768  15.118  24.827  0.00  0.00    +0.000 OA
ENDBRANCH  20  22
ENDBRANCH  19  20
ENDBRANCH   1  19
TORSDOF 3
ENDMDL
