MODEL 1
REMARK VINA RESULT:      -8.2      0.000      0.000
REMARK  Name = 
REMARK  3 active torsions:
REMARK  status: ('A' for Active; 'I' for Inactive)
REMARK    1  A    between atoms: C_5  and  C_6
REMARK    2  A    between atoms: N_14  and  C_15
REMARK    3  A    between atoms: C_15  and  C_16
REMARK                            x       y       z     vdW  Elec       q    Type
REMARK                         _______ _______ _______ _____ _____    ______ ____
ROOT
ATOM      1  C   UNL     1       4.224   4.063  18.434  0.00  0.00    +0.000 A 
ATOM      2  C   UNL     1       4.567   2.820  17.927  0.00  0.00    +0.000 A 
ATOM      3  S   UNL     1       3.369   1.634  18.175  0.00  0.00    +0.000 S 
ATOM      4  C   UNL     1       2.370   2.734  18.999  0.00  0.00    +0.000 A 
ATOM      5  N   UNL     1       1.197   2.312  19.495  0.00  0.00    +0.000 NA
ATOM      6  C   UNL     1       0.547   3.271  20.148  0.00  0.00    +0.000 A 
ATOM      7  N   UNL     1       0.944   4.536  20.330  0.00  0.00    +0.000 NA
ATOM      8  C   UNL     1       2.091   4.957  19.753  0.00  0.00    +0.000 A 
ATOM      9  N   UNL     1       2.431   6.285  19.868  0.00  0.00    +0.000 N 
ATOM     10  C   UNL     1       2.902   4.017  19.071  0.00  0.00    +0.000 A 
ATOM     11  H   UNL     1       2.771   6.747  19.033  0.00  0.00    +0.000 HD
ENDROOT
BRANCH   1  16
ATOM     12 CL   UNL     1       8.239   8.390  17.368  0.00  0.00    +0.000 Cl
ATOM     13  C   UNL     1       7.047   7.216  17.760  0.00  0.00    +0.000 A 
ATOM     14  C   UNL     1       7.303   6.259  18.737  0.00  0.00    +0.000 A 
ATOM     15  C   UNL     1       6.367   5.247  18.984  0.00  0.00    +0.000 A 
ATOM     16  C   UNL     1       5.149   5.203  18.286  0.00  0.00    +0.000 A 
ATOM     17  C   UNL     1       4.865   6.259  17.412  0.00  0.00    +0.000 A 
ATOM     18  C   UNL     1       5.826   7.223  17.098  0.00  0.00    +0.000 A 
ENDBRANCH   1  16
BRANCH   9  19
ATOM     19  C   UNL     1       2.042   7.084  21.002  0.00  0.00    +0.000 C 
BRANCH  19  20
ATOM     20  C   UNL     1       1.434   8.377  20.573  0.00  0.00    +0.000 A 
ATOM     21  C   UNL     1       1.486   8.821  19.258  0.00  0.00    +0.000 A 
ATOM     22  C   UNL     1       0.813   9.990  18.908  0.00  0.00    +0.000 A 
ATOM     23  C   UNL     1       0.091  10.704  19.867  0.00  0.00    +0.000 A 
ATOM     24  N   UNL     1      -0.678  11.790  19.522  0.00  0.00    +0.000 N 
ATOM     25  C   UNL     1      -0.295  12.739  18.478  0.00  0.00    +0.000 C 
ATOM     26  C   UNL     1      -0.084  14.137  19.079  0.00  0.00    +0.000 C 
ATOM     27  O   UNL     1      -1.221  14.572  19.841  0.00  0.00    +0.000 OA
ATOM     28  C   UNL     1      -1.451  13.665  20.934  0.00  0.00    +0.000 C 
ATOM     29  C   UNL     1      -1.738  12.245  20.430  0.00  0.00    +0.000 C 
ATOM     30  N   UNL     1       0.076  10.293  21.151  0.00  0.00    +0.000 NA
ATOM     31  C   UNL     1       0.729   9.156  21.475  0.00  0.00    +0.000 A 
ENDBRANCH  19  20
ENDBRANCH   9  19
TORSDOF 3
ENDMDL
MODEL 2
REMARK VINA RESULT:      -8.0      4.697      9.486
REMARK  Name = 
REMARK  3 active torsions:
REMARK  status: ('A' for Active; 'I' for Inactive)
REMARK    1  A    between atoms: C_5  and  C_6
REMARK    2  A    between atoms: N_14  and  C_15
REMARK    3  A    between atoms: C_15  and  C_16
REMARK                            x       y       z     vdW  Elec       q    Type
REMARK                         _______ _______ _______ _____ _____    ______ ____
ROOT
ATOM      1  C   UNL     1      -3.402  12.417  19.873  0.00  0.00    +0.000 A 
ATOM      2  C   UNL     1      -4.726  12.712  19.592  0.00  0.00    +0.000 A 
ATOM      3  S   UNL     1      -5.298  11.971  18.169  0.00  0.00    +0.000 S 
ATOM      4  C   UNL     1      -3.785  11.261  17.863  0.00  0.00    +0.000 A 
ATOM      5  N   UNL     1      -3.619  10.517  16.758  0.00  0.00    +0.000 NA
ATOM      6  C   UNL     1      -2.375  10.065  16.633  0.00  0.00    +0.000 A 
ATOM      7  N   UNL     1      -1.351  10.275  17.468  0.00  0.00    +0.000 NA
ATOM      8  C   UNL     1      -1.563  10.960  18.612  0.00  0.00    +0.000 A 
ATOM      9  N   UNL     1      -0.523  11.080  19.506  0.00  0.00    +0.000 N 
ATOM     10  C   UNL     1      -2.836  11.539  18.841  0.00  0.00    +0.000 A 
ATOM     11  H   UNL     1      -0.737  10.934  20.484  0.00  0.00    +0.000 HD
ENDROOT
BRANCH   1  16
ATOM     12 CL   UNL     1      -1.290  15.023  24.846  0.00  0.00    +0.000 Cl
ATOM     13  C   UNL     1      -1.798  14.212  23.418  0.00  0.00    +0.000 A 
ATOM     14  C   UNL     1      -1.414  14.690  22.169  0.00  0.00    +0.000 A 
ATOM     15  C   UNL     1      -1.909  14.084  21.007  0.00  0.00    +0.000 A 
ATOM     16  C   UNL     1      -2.761  12.970  21.081  0.00  0.00    +0.000 A 
ATOM     17  C   UNL     1      -3.014  12.431  22.348  0.00  0.00    +0.000 A 
ATOM     18  C   UNL     1      -2.594  13.079  23.513  0.00  0.00    +0.000 A 
ENDBRANCH   1  16
BRANCH   9  19
ATOM     19  C   UNL     1       0.855  11.096  19.084  0.00  0.00    +0.000 C 
BRANCH  19  20
ATOM     20  C   UNL     1       1.387   9.714  18.913  0.00  0.00    +0.000 A 
ATOM     21  C   UNL     1       2.052   9.312  17.762  0.00  0.00    +0.000 A 
ATOM     22  C   UNL     1       2.608   8.035  17.708  0.00  0.00    +0.000 A 
ATOM     23  C   UNL     1       2.501   7.171  18.800  0.00  0.00    +0.000 A 
ATOM     24  N   UNL     1       3.142   5.956  18.817  0.00  0.00    +0.000 N 
ATOM     25  C   UNL     1       3.307   5.124  17.627  0.00  0.00    +0.000 C 
ATOM     26  C   UNL     1       2.566   3.790  17.801  0.00  0.00    +0.000 C 
ATOM     27  O   UNL     1       2.947   3.117  19.010  0.00  0.00    +0.000 OA
ATOM     28  C   UNL     1       2.627   3.938  20.147  0.00  0.00    +0.000 C 
ATOM     29  C   UNL     1       3.374   5.276  20.098  0.00  0.00    +0.000 C 
ATOM     30  N   UNL     1       1.819   7.548  19.900  0.00  0.00    +0.000 NA
ATOM     31  C   UNL     1       1.289   8.790  19.941  0.00  0.00    +0.000 A 
ENDBRANCH  19  20
ENDBRANCH   9  19
TORSDOF 3
ENDMDL
MODEL 3
REMARK VINA RESULT:      -7.8      4.664      9.539
REMARK  Name = 
REMARK  3 active torsions:
REMARK  status: ('A' for Active; 'I' for Inactive)
REMARK    1  A    between atoms: C_5  and  C_6
REMARK    2  A    between atoms: N_14  and  C_15
REMARK    3  A    between atoms: C_15  and  C_16
REMARK                            x       y       z     vdW  Elec       q    Type
REMARK                         _______ _______ _______ _____ _____    ______ ____
ROOT
ATOM      1  C   UNL     1      -3.455  12.320  19.723  0.00  0.00    +0.000 A 
ATOM      2  C   UNL     1      -4.783  12.619  19.462  0.00  0.00    +0.000 A 
ATOM      3  S   UNL     1      -5.380  11.870  18.052  0.00  0.00    +0.000 S 
ATOM      4  C   UNL     1      -3.874  11.152  17.728  0.00  0.00    +0.000 A 
ATOM      5  N   UNL     1      -3.728  10.401  16.625  0.00  0.00    +0.000 NA
ATOM      6  C   UNL     1      -2.487   9.943  16.483  0.00  0.00    +0.000 A 
ATOM      7  N   UNL     1      -1.450  10.156  17.300  0.00  0.00    +0.000 NA
ATOM      8  C   UNL     1      -1.642  10.849  18.444  0.00  0.00    +0.000 A 
ATOM      9  N   UNL     1      -0.587  10.971  19.319  0.00  0.00    +0.000 N 
ATOM     10  C   UNL     1      -2.909  11.434  18.688  0.00  0.00    +0.000 A 
ATOM     11  H   UNL     1      -0.786  10.832  20.302  0.00  0.00    +0.000 HD
ENDROOT
BRANCH   1  16
ATOM     12 CL   UNL     1      -1.285  14.897  24.687  0.00  0.00    +0.000 Cl
ATOM     13  C   UNL     1      -1.804  14.105  23.252  0.00  0.00    +0.000 A 
ATOM     14  C   UNL     1      -1.549  14.674  22.008  0.00  0.00    +0.000 A 
ATOM     15  C   UNL     1      -2.058  14.074  20.849  0.00  0.00    +0.000 A 
ATOM     16  C   UNL     1      -2.793  12.880  20.917  0.00  0.00    +0.000 A 
ATOM     17  C   UNL     1      -2.912  12.262  22.168  0.00  0.00    +0.000 A 
ATOM     18  C   UNL     1      -2.481  12.896  23.337  0.00  0.00    +0.000 A 
ENDBRANCH   1  16
BRANCH   9  19
ATOM     19  C   UNL     1       0.784  10.980  18.876  0.00  0.00    +0.000 C 
BRANCH  19  20
ATOM     20  C   UNL     1       1.391   9.620  18.961  0.00  0.00    +0.000 A 
ATOM     21  C   UNL     1       1.401   8.885  20.140  0.00  0.00    +0.000 A 
ATOM     22  C   UNL     1       1.899   7.583  20.125  0.00  0.00    +0.000 A 
ATOM     23  C   UNL     1       2.375   7.023  18.938  0.00  0.00    +0.000 A 
ATOM     24  N   UNL     1       2.757   5.704  18.871  0.00  0.00    +0.000 N 
ATOM     25  C   UNL     1       3.423   5.010  19.972  0.00  0.00    +0.000 C 
ATOM     26  C   UNL     1       4.832   4.568  19.549  0.00  0.00    +0.000 C 
ATOM     27  O   UNL     1       4.813   3.802  18.335  0.00  0.00    +0.000 OA
ATOM     28  C   UNL     1       4.274   4.598  17.265  0.00  0.00    +0.000 C 
ATOM     29  C   UNL     1       2.836   5.037  17.566  0.00  0.00    +0.000 C 
ATOM     30  N   UNL     1       2.402   7.752  17.804  0.00  0.00    +0.000 NA
ATOM     31  C   UNL     1       1.913   9.012  17.832  0.00  0.00    +0.000 A 
ENDBRANCH  19  20
ENDBRANCH   9  19
TORSDOF 3
ENDMDL
MODEL 4
REMARK VINA RESULT:      -7.7      4.933      9.349
REMARK  Name = 
REMARK  3 active torsions:
REMARK  status: ('A' for Active; 'I' for Inactive)
REMARK    1  A    between atoms: C_5  and  C_6
REMARK    2  A    between atoms: N_14  and  C_15
REMARK    3  A    between atoms: C_15  and  C_16
REMARK                            x       y       z     vdW  Elec       q    Type
REMARK                         _______ _______ _______ _____ _____    ______ ____
ROOT
ATOM      1  C   UNL     1      -5.248  11.212  18.753  0.00  0.00    +0.000 A 
ATOM      2  C   UNL     1      -6.534  10.710  18.867  0.00  0.00    +0.000 A 
ATOM      3  S   UNL     1      -7.316  11.174  20.308  0.00  0.00    +0.000 S 
ATOM      4  C   UNL     1      -5.949  12.030  20.841  0.00  0.00    +0.000 A 
ATOM      5  N   UNL     1      -5.978  12.635  22.040  0.00  0.00    +0.000 NA
ATOM      6  C   UNL     1      -4.825  13.226  22.338  0.00  0.00    +0.000 A 
ATOM      7  N   UNL     1      -3.720  13.265  21.586  0.00  0.00    +0.000 NA
ATOM      8  C   UNL     1      -3.741  12.717  20.352  0.00  0.00    +0.000 A 
ATOM      9  N   UNL     1      -2.627  12.856  19.555  0.00  0.00    +0.000 N 
ATOM     10  C   UNL     1      -4.896  12.012  19.933  0.00  0.00    +0.000 A 
ATOM     11  H   UNL     1      -2.782  13.101  18.586  0.00  0.00    +0.000 HD
ENDROOT
BRANCH   1  16
ATOM     12 CL   UNL     1      -2.402   9.595  13.726  0.00  0.00    +0.000 Cl
ATOM     13  C   UNL     1      -3.130  10.133  15.187  0.00  0.00    +0.000 A 
ATOM     14  C   UNL     1      -2.785   9.543  16.399  0.00  0.00    +0.000 A 
ATOM     15  C   UNL     1      -3.451   9.918  17.573  0.00  0.00    +0.000 A 
ATOM     16  C   UNL     1      -4.441  10.914  17.554  0.00  0.00    +0.000 A 
ATOM     17  C   UNL     1      -4.664  11.584  16.345  0.00  0.00    +0.000 A 
ATOM     18  C   UNL     1      -4.066  11.159  15.156  0.00  0.00    +0.000 A 
ENDBRANCH   1  16
BRANCH   9  19
ATOM     19  C   UNL     1      -1.299  12.965  20.103  0.00  0.00    +0.000 C 
BRANCH  19  20
ATOM     20  C   UNL     1      -0.501  11.732  19.842  0.00  0.00    +0.000 A 
ATOM     21  C   UNL     1       0.428  11.653  18.812  0.00  0.00    +0.000 A 
ATOM     22  C   UNL     1       1.207  10.505  18.686  0.00  0.00    +0.000 A 
ATOM     23  C   UNL     1       1.060   9.448  19.587  0.00  0.00    +0.000 A 
ATOM     24  N   UNL     1       1.898   8.359  19.557  0.00  0.00    +0.000 N 
ATOM     25  C   UNL     1       2.430   7.795  18.317  0.00  0.00    +0.000 C 
ATOM     26  C   UNL     1       1.924   6.357  18.126  0.00  0.00    +0.000 C 
ATOM     27  O   UNL     1       2.192   5.536  19.273  0.00  0.00    +0.000 OA
ATOM     28  C   UNL     1       1.522   6.077  20.426  0.00  0.00    +0.000 C 
ATOM     29  C   UNL     1       2.009   7.497  20.740  0.00  0.00    +0.000 C 
ATOM     30  N   UNL     1       0.129   9.510  20.560  0.00  0.00    +0.000 NA
ATOM     31  C   UNL     1      -0.617  10.631  20.674  0.00  0.00    +0.000 A 
ENDBRANCH  19  20
ENDBRANCH   9  19
TORSDOF 3
ENDMDL
MODEL 5
REMARK VINA RESULT:      -7.6      0.782      1.415
REMARK  Name = 
REMARK  3 active torsions:
REMARK  status: ('A' for Active; 'I' for Inactive)
REMARK    1  A    between atoms: C_5  and  C_6
REMARK    2  A    between atoms: N_14  and  C_15
REMARK    3  A    between atoms: C_15  and  C_16
REMARK                            x       y       z     vdW  Elec       q    Type
REMARK                         _______ _______ _______ _____ _____    ______ ____
ROOT
ATOM      1  C   UNL     1       4.067   4.100  18.103  0.00  0.00    +0.000 A 
ATOM      2  C   UNL     1       4.356   2.943  17.398  0.00  0.00    +0.000 A 
ATOM      3  S   UNL     1       3.142   1.754  17.523  0.00  0.00    +0.000 S 
ATOM      4  C   UNL     1       2.210   2.733  18.552  0.00  0.00    +0.000 A 
ATOM      5  N   UNL     1       1.050   2.260  19.036  0.00  0.00    +0.000 NA
ATOM      6  C   UNL     1       0.455   3.120  19.858  0.00  0.00    +0.000 A 
ATOM      7  N   UNL     1       0.891   4.335  20.208  0.00  0.00    +0.000 NA
ATOM      8  C   UNL     1       2.020   4.819  19.646  0.00  0.00    +0.000 A 
ATOM      9  N   UNL     1       2.397   6.109  19.943  0.00  0.00    +0.000 N 
ATOM     10  C   UNL     1       2.775   3.980  18.790  0.00  0.00    +0.000 A 
ATOM     11  H   UNL     1       2.710   6.686  19.173  0.00  0.00    +0.000 HD
ENDROOT
BRANCH   1  16
ATOM     12 CL   UNL     1       8.175   8.436  17.545  0.00  0.00    +0.000 Cl
ATOM     13  C   UNL     1       6.954   7.253  17.795  0.00  0.00    +0.000 A 
ATOM     14  C   UNL     1       7.162   6.213  18.697  0.00  0.00    +0.000 A 
ATOM     15  C   UNL     1       6.205   5.199  18.825  0.00  0.00    +0.000 A 
ATOM     16  C   UNL     1       5.012   5.233  18.084  0.00  0.00    +0.000 A 
ATOM     17  C   UNL     1       4.773   6.363  17.293  0.00  0.00    +0.000 A 
ATOM     18  C   UNL     1       5.758   7.335  17.094  0.00  0.00    +0.000 A 
ENDBRANCH   1  16
BRANCH   9  19
ATOM     19  C   UNL     1       2.080   6.732  21.203  0.00  0.00    +0.000 C 
BRANCH  19  20
ATOM     20  C   UNL     1       1.548   8.112  21.008  0.00  0.00    +0.000 A 
ATOM     21  C   UNL     1       1.150   8.911  22.072  0.00  0.00    +0.000 A 
ATOM     22  C   UNL     1       0.754  10.224  21.825  0.00  0.00    +0.000 A 
ATOM     23  C   UNL     1       0.762  10.732  20.524  0.00  0.00    +0.000 A 
ATOM     24  N   UNL     1       0.492  12.055  20.270  0.00  0.00    +0.000 N 
ATOM     25  C   UNL     1      -0.491  12.829  21.027  0.00  0.00    +0.000 C 
ATOM     26  C   UNL     1      -1.632  13.288  20.107  0.00  0.00    +0.000 C 
ATOM     27  O   UNL     1      -1.142  13.985  18.951  0.00  0.00    +0.000 OA
ATOM     28  C   UNL     1      -0.293  13.115  18.181  0.00  0.00    +0.000 C 
ATOM     29  C   UNL     1       0.919  12.651  18.998  0.00  0.00    +0.000 C 
ATOM     30  N   UNL     1       1.109   9.942  19.489  0.00  0.00    +0.000 NA
ATOM     31  C   UNL     1       1.495   8.672  19.742  0.00  0.00    +0.000 A 
ENDBRANCH  19  20
ENDBRANCH   9  19
TORSDOF 3
ENDMDL
MODEL 6
REMARK VINA RESULT:      -7.6      4.672      9.603
REMARK  Name = 
REMARK  3 active torsions:
REMARK  status: ('A' for Active; 'I' for Inactive)
REMARK    1  A    between atoms: C_5  and  C_6
REMARK    2  A    between atoms: N_14  and  C_15
REMARK    3  A    between atoms: C_15  and  C_16
REMARK                            x       y       z     vdW  Elec       q    Type
REMARK                         _______ _______ _______ _____ _____    ______ ____
ROOT
ATOM      1  C   UNL     1      -4.004  12.451  19.601  0.00  0.00    +0.000 A 
ATOM      2  C   UNL     1      -5.334  12.656  19.272  0.00  0.00    +0.000 A 
ATOM      3  S   UNL     1      -5.811  11.846  17.851  0.00  0.00    +0.000 S 
ATOM      4  C   UNL     1      -4.248  11.226  17.611  0.00  0.00    +0.000 A 
ATOM      5  N   UNL     1      -4.000  10.468  16.531  0.00  0.00    +0.000 NA
ATOM      6  C   UNL     1      -2.727  10.092  16.456  0.00  0.00    +0.000 A 
ATOM      7  N   UNL     1      -1.746  10.387  17.317  0.00  0.00    +0.000 NA
ATOM      8  C   UNL     1      -2.038  11.083  18.436  0.00  0.00    +0.000 A 
ATOM      9  N   UNL     1      -1.036  11.290  19.358  0.00  0.00    +0.000 N 
ATOM     10  C   UNL     1      -3.351  11.586  18.610  0.00  0.00    +0.000 A 
ATOM     11  H   UNL     1      -1.273  11.153  20.333  0.00  0.00    +0.000 HD
ENDROOT
BRANCH   1  16
ATOM     12 CL   UNL     1      -1.205  14.631  24.438  0.00  0.00    +0.000 Cl
ATOM     13  C   UNL     1      -2.097  14.076  23.078  0.00  0.00    +0.000 A 
ATOM     14  C   UNL     1      -2.997  13.023  23.214  0.00  0.00    +0.000 A 
ATOM     15  C   UNL     1      -3.648  12.512  22.084  0.00  0.00    +0.000 A 
ATOM     16  C   UNL     1      -3.438  13.072  20.814  0.00  0.00    +0.000 A 
ATOM     17  C   UNL     1      -2.635  14.216  20.735  0.00  0.00    +0.000 A 
ATOM     18  C   UNL     1      -1.916  14.680  21.840  0.00  0.00    +0.000 A 
ENDBRANCH   1  16
BRANCH   9  19
ATOM     19  C   UNL     1       0.351  11.383  18.979  0.00  0.00    +0.000 C 
BRANCH  19  20
ATOM     20  C   UNL     1       1.023  10.054  19.050  0.00  0.00    +0.000 A 
ATOM     21  C   UNL     1       1.072   9.308  20.221  0.00  0.00    +0.000 A 
ATOM     22  C   UNL     1       1.632   8.032  20.192  0.00  0.00    +0.000 A 
ATOM     23  C   UNL     1       2.133   7.507  18.999  0.00  0.00    +0.000 A 
ATOM     24  N   UNL     1       2.578   6.210  18.918  0.00  0.00    +0.000 N 
ATOM     25  C   UNL     1       3.279   5.537  20.011  0.00  0.00    +0.000 C 
ATOM     26  C   UNL     1       4.708   5.169  19.582  0.00  0.00    +0.000 C 
ATOM     27  O   UNL     1       4.724   4.415  18.360  0.00  0.00    +0.000 OA
ATOM     28  C   UNL     1       4.145   5.195  17.299  0.00  0.00    +0.000 C 
ATOM     29  C   UNL     1       2.688   5.560  17.606  0.00  0.00    +0.000 C 
ATOM     30  N   UNL     1       2.123   8.249  17.873  0.00  0.00    +0.000 NA
ATOM     31  C   UNL     1       1.573   9.483  17.914  0.00  0.00    +0.000 A 
ENDBRANCH  19  20
ENDBRANCH   9  19
TORSDOF 3
ENDMDL
MODEL 7
REMARK VINA RESULT:      -7.5      4.594      9.222
REMARK  Name = 
REMARK  3 active torsions:
REMARK  status: ('A' for Active; 'I' for Inactive)
REMARK    1  A    between atoms: C_5  and  C_6
REMARK    2  A    between atoms: N_14  and  C_15
REMARK    3  A    between atoms: C_15  and  C_16
REMARK                            x       y       z     vdW  Elec       q    Type
REMARK                         _______ _______ _______ _____ _____    ______ ____
ROOT
ATOM      1  C   UNL     1      -3.547  12.026  19.486  0.00  0.00    +0.000 A 
ATOM      2  C   UNL     1      -4.754  11.975  20.164  0.00  0.00    +0.000 A 
ATOM      3  S   UNL     1      -4.746  12.848  21.628  0.00  0.00    +0.000 S 
ATOM      4  C   UNL     1      -3.119  13.290  21.420  0.00  0.00    +0.000 A 
ATOM      5  N   UNL     1      -2.512  14.026  22.365  0.00  0.00    +0.000 NA
ATOM      6  C   UNL     1      -1.232  14.257  22.085  0.00  0.00    +0.000 A 
ATOM      7  N   UNL     1      -0.555  13.845  21.007  0.00  0.00    +0.000 NA
ATOM      8  C   UNL     1      -1.208  13.174  20.034  0.00  0.00    +0.000 A 
ATOM      9  N   UNL     1      -0.517  12.847  18.889  0.00  0.00    +0.000 N 
ATOM     10  C   UNL     1      -2.565  12.821  20.234  0.00  0.00    +0.000 A 
ATOM     11  H   UNL     1      -0.991  13.000  18.007  0.00  0.00    +0.000 HD
ENDROOT
BRANCH   1  16
ATOM     12 CL   UNL     1      -2.539   9.652  14.070  0.00  0.00    +0.000 Cl
ATOM     13  C   UNL     1      -2.900  10.243  15.643  0.00  0.00    +0.000 A 
ATOM     14  C   UNL     1      -4.003  11.068  15.844  0.00  0.00    +0.000 A 
ATOM     15  C   UNL     1      -4.238  11.625  17.107  0.00  0.00    +0.000 A 
ATOM     16  C   UNL     1      -3.395  11.333  18.193  0.00  0.00    +0.000 A 
ATOM     17  C   UNL     1      -2.379  10.391  17.990  0.00  0.00    +0.000 A 
ATOM     18  C   UNL     1      -2.088   9.898  16.715  0.00  0.00    +0.000 A 
ENDBRANCH   1  16
BRANCH   9  19
ATOM     19  C   UNL     1       0.903  12.602  18.890  0.00  0.00    +0.000 C 
BRANCH  19  20
ATOM     20  C   UNL     1       1.202  11.142  18.850  0.00  0.00    +0.000 A 
ATOM     21  C   UNL     1       1.925  10.561  17.816  0.00  0.00    +0.000 A 
ATOM     22  C   UNL     1       2.251   9.208  17.891  0.00  0.00    +0.000 A 
ATOM     23  C   UNL     1       1.860   8.447  18.994  0.00  0.00    +0.000 A 
ATOM     24  N   UNL     1       2.271   7.145  19.149  0.00  0.00    +0.000 N 
ATOM     25  C   UNL     1       2.436   6.222  18.027  0.00  0.00    +0.000 C 
ATOM     26  C   UNL     1       1.456   5.045  18.157  0.00  0.00    +0.000 C 
ATOM     27  O   UNL     1       1.561   4.397  19.434  0.00  0.00    +0.000 OA
ATOM     28  C   UNL     1       1.249   5.333  20.481  0.00  0.00    +0.000 C 
ATOM     29  C   UNL     1       2.219   6.520  20.477  0.00  0.00    +0.000 C 
ATOM     30  N   UNL     1       1.122   9.003  19.977  0.00  0.00    +0.000 NA
ATOM     31  C   UNL     1       0.817  10.317  19.893  0.00  0.00    +0.000 A 
ENDBRANCH  19  20
ENDBRANCH   9  19
TORSDOF 3
ENDMDL
MODEL 8
REMARK VINA RESULT:      -7.4      4.828      8.317
REMARK  Name = 
REMARK  3 active torsions:
REMARK  status: ('A' for Active; 'I' for Inactive)
REMARK    1  A    between atoms: C_5  and  C_6
REMARK    2  A    between atoms: N_14  and  C_15
REMARK    3  A    between atoms: C_15  and  C_16
REMARK                            x       y       z     vdW  Elec       q    Type
REMARK                         _______ _______ _______ _____ _____    ______ ____
ROOT
ATOM      1  C   UNL     1       2.081   5.106  19.602  0.00  0.00    +0.000 A 
ATOM      2  C   UNL     1       0.893   4.427  19.818  0.00  0.00    +0.000 A 
ATOM      3  S   UNL     1       1.106   2.758  20.086  0.00  0.00    +0.000 S 
ATOM      4  C   UNL     1       2.789   2.883  19.887  0.00  0.00    +0.000 A 
ATOM      5  N   UNL     1       3.544   1.776  19.969  0.00  0.00    +0.000 NA
ATOM      6  C   UNL     1       4.833   2.024  19.751  0.00  0.00    +0.000 A 
ATOM      7  N   UNL     1       5.392   3.209  19.480  0.00  0.00    +0.000 NA
ATOM      8  C   UNL     1       4.622   4.318  19.481  0.00  0.00    +0.000 A 
ATOM      9  N   UNL     1       5.233   5.538  19.300  0.00  0.00    +0.000 N 
ATOM     10  C   UNL     1       3.222   4.183  19.651  0.00  0.00    +0.000 A 
ATOM     11  H   UNL     1       4.939   6.294  19.905  0.00  0.00    +0.000 HD
ENDROOT
BRANCH   1  16
ATOM     12 CL   UNL     1       1.440  10.968  18.507  0.00  0.00    +0.000 Cl
ATOM     13  C   UNL     1       1.735   9.310  18.848  0.00  0.00    +0.000 A 
ATOM     14  C   UNL     1       2.231   8.470  17.855  0.00  0.00    +0.000 A 
ATOM     15  C   UNL     1       2.379   7.100  18.110  0.00  0.00    +0.000 A 
ATOM     16  C   UNL     1       2.069   6.562  19.369  0.00  0.00    +0.000 A 
ATOM     17  C   UNL     1       1.706   7.456  20.384  0.00  0.00    +0.000 A 
ATOM     18  C   UNL     1       1.476   8.808  20.116  0.00  0.00    +0.000 A 
ENDBRANCH   1  16
BRANCH   9  19
ATOM     19  C   UNL     1       6.439   5.688  18.525  0.00  0.00    +0.000 C 
BRANCH  19  20
ATOM     20  C   UNL     1       6.247   5.213  17.125  0.00  0.00    +0.000 A 
ATOM     21  C   UNL     1       5.018   5.276  16.481  0.00  0.00    +0.000 A 
ATOM     22  C   UNL     1       4.932   4.905  15.141  0.00  0.00    +0.000 A 
ATOM     23  C   UNL     1       6.069   4.480  14.451  0.00  0.00    +0.000 A 
ATOM     24  N   UNL     1       6.034   4.225  13.101  0.00  0.00    +0.000 N 
ATOM     25  C   UNL     1       4.878   3.632  12.430  0.00  0.00    +0.000 C 
ATOM     26  C   UNL     1       5.253   2.270  11.827  0.00  0.00    +0.000 C 
ATOM     27  O   UNL     1       6.407   2.357  10.978  0.00  0.00    +0.000 OA
ATOM     28  C   UNL     1       7.538   2.815  11.740  0.00  0.00    +0.000 C 
ATOM     29  C   UNL     1       7.286   4.206  12.334  0.00  0.00    +0.000 C 
ATOM     30  N   UNL     1       7.252   4.380  15.088  0.00  0.00    +0.000 NA
ATOM     31  C   UNL     1       7.323   4.747  16.387  0.00  0.00    +0.000 A 
ENDBRANCH  19  20
ENDBRANCH   9  19
TORSDOF 3
ENDMDL
MODEL 9
REMARK VINA RESULT:      -7.3      4.922      9.936
REMARK  Name = 
REMARK  3 active torsions:
REMARK  status: ('A' for Active; 'I' for Inactive)
REMARK    1  A    between atoms: C_5  and  C_6
REMARK    2  A    between atoms: N_14  and  C_15
REMARK    3  A    between atoms: C_15  and  C_16
REMARK                            x       y       z     vdW  Elec       q    Type
REMARK                         _______ _______ _______ _____ _____    ______ ____
ROOT
ATOM      1  C   UNL     1      -4.376  12.732  20.021  0.00  0.00    +0.000 A 
ATOM      2  C   UNL     1      -5.686  13.002  19.659  0.00  0.00    +0.000 A 
ATOM      3  S   UNL     1      -6.091  12.428  18.107  0.00  0.00    +0.000 S 
ATOM      4  C   UNL     1      -4.519  11.835  17.854  0.00  0.00    +0.000 A 
ATOM      5  N   UNL     1      -4.217  11.252  16.683  0.00  0.00    +0.000 NA
ATOM      6  C   UNL     1      -2.943  10.877  16.616  0.00  0.00    +0.000 A 
ATOM      7  N   UNL     1      -2.008  11.022  17.562  0.00  0.00    +0.000 NA
ATOM      8  C   UNL     1      -2.356  11.540  18.760  0.00  0.00    +0.000 A 
ATOM      9  N   UNL     1      -1.404  11.588  19.753  0.00  0.00    +0.000 N 
ATOM     10  C   UNL     1      -3.675  12.025  18.942  0.00  0.00    +0.000 A 
ATOM     11  H   UNL     1      -1.692  11.305  20.681  0.00  0.00    +0.000 HD
ENDROOT
BRANCH   1  16
ATOM     12 CL   UNL     1      -2.774  14.854  25.398  0.00  0.00    +0.000 Cl
ATOM     13  C   UNL     1      -3.146  14.169  23.866  0.00  0.00    +0.000 A 
ATOM     14  C   UNL     1      -2.499  14.624  22.721  0.00  0.00    +0.000 A 
ATOM     15  C   UNL     1      -2.874  14.131  21.465  0.00  0.00    +0.000 A 
ATOM     16  C   UNL     1      -3.872  13.150  21.343  0.00  0.00    +0.000 A 
ATOM     17  C   UNL     1      -4.403  12.615  22.523  0.00  0.00    +0.000 A 
ATOM     18  C   UNL     1      -4.096  13.161  23.773  0.00  0.00    +0.000 A 
ENDBRANCH   1  16
BRANCH   9  19
ATOM     19  C   UNL     1       0.001  11.723  19.465  0.00  0.00    +0.000 C 
BRANCH  19  20
ATOM     20  C   UNL     1       0.644  10.392  19.262  0.00  0.00    +0.000 A 
ATOM     21  C   UNL     1       1.433  10.110  18.154  0.00  0.00    +0.000 A 
ATOM     22  C   UNL     1       2.081   8.879  18.076  0.00  0.00    +0.000 A 
ATOM     23  C   UNL     1       1.943   7.942  19.102  0.00  0.00    +0.000 A 
ATOM     24  N   UNL     1       2.667   6.774  19.106  0.00  0.00    +0.000 N 
ATOM     25  C   UNL     1       2.992   6.032  17.888  0.00  0.00    +0.000 C 
ATOM     26  C   UNL     1       2.336   4.643  17.918  0.00  0.00    +0.000 C 
ATOM     27  O   UNL     1       2.661   3.921  19.116  0.00  0.00    +0.000 OA
ATOM     28  C   UNL     1       2.186   4.645  20.265  0.00  0.00    +0.000 C 
ATOM     29  C   UNL     1       2.837   6.030  20.361  0.00  0.00    +0.000 C 
ATOM     30  N   UNL     1       1.145   8.201  20.157  0.00  0.00    +0.000 NA
ATOM     31  C   UNL     1       0.526   9.401  20.222  0.00  0.00    +0.000 A 
ENDBRANCH  19  20
ENDBRANCH   9  19
TORSDOF 3
ENDMDL
