MODEL 1
REMARK VINA RESULT:      -7.6      0.000      0.000
REMARK  Name = 
REMARK  4 active torsions:
REMARK  status: ('A' for Active; 'I' for Inactive)
REMARK    1  A    between atoms: C_1  and  O_2
REMARK    2  A    between atoms: O_2  and  C_3
REMARK    3  A    between atoms: C_4  and  S_5
REMARK    4  A    between atoms: S_5  and  N_6
REMARK                            x       y       z     vdW  Elec       q    Type
REMARK                         _______ _______ _______ _____ _____    ______ ____
ROOT
ATOM      1  C   UNL     1       5.987   5.453  16.754  0.00  0.00    +0.000 C 
ATOM      2  C   UNL     1       6.353   4.997  17.968  0.00  0.00    +0.000 C 
ATOM      3  C   UNL     1       5.368   4.310  18.857  0.00  0.00    +0.000 C 
ATOM      4  N   UNL     1       5.202   2.927  18.382  0.00  0.00    +0.000 NA
ATOM      5  S   UNL     1       4.259   2.049  19.457  0.00  0.00    +0.000 S 
ATOM      6  O   UNL     1       3.679   0.954  18.716  0.00  0.00    +0.000 OA
ATOM      7  O   UNL     1       5.103   1.821  20.609  0.00  0.00    +0.000 OA
ATOM      8  C   UNL     1       3.007   3.153  19.936  0.00  0.00    +0.000 A 
ATOM      9  C   UNL     1       1.942   2.668  20.663  0.00  0.00    +0.000 A 
ATOM     10  N   UNL     1       0.933   3.448  21.095  0.00  0.00    +0.000 NA
ATOM     11  C   UNL     1       0.994   4.761  20.751  0.00  0.00    +0.000 A 
ATOM     12  C   UNL     1       2.012   5.316  19.995  0.00  0.00    +0.000 A 
ATOM     13  C   UNL     1       3.053   4.495  19.559  0.00  0.00    +0.000 A 
ATOM     14  N   UNL     1       4.081   5.029  18.749  0.00  0.00    +0.000 N 
ATOM     15  C   UNL     1       3.711   5.560  17.482  0.00  0.00    +0.000 C 
ATOM     16  C   UNL     1       4.554   5.426  16.436  0.00  0.00    +0.000 C 
ATOM     17  H   UNL     1       6.107   2.462  18.316  0.00  0.00    +0.000 HD
ENDROOT
BRANCH   2  18
ATOM     18  S   UNL     1       7.845   5.449  18.664  0.00  0.00    +0.000 S 
ATOM     19  O   UNL     1       8.861   4.452  18.416  0.00  0.00    +0.000 OA
ATOM     20  O   UNL     1       8.090   6.857  18.450  0.00  0.00    +0.000 OA
BRANCH  18  21
ATOM     21  N   UNL     1       7.601   5.355  20.335  0.00  0.00    +0.000 NA
ATOM     22  H   UNL     1       8.222   6.000  20.828  0.00  0.00    +0.000 HD
ATOM     23  H   UNL     1       6.611   5.506  20.554  0.00  0.00    +0.000 HD
ENDBRANCH  18  21
ENDBRANCH   2  18
BRANCH   1  25
ATOM     24  C   UNL     1       7.230   5.252  14.763  0.00  0.00    +0.000 C 
ATOM     25  O   UNL     1       6.833   6.073  15.865  0.00  0.00    +0.000 OA
ENDBRANCH   1  25
TORSDOF 3
ENDMDL
MODEL 2
REMARK VINA RESULT:      -6.9      1.859      5.703
REMARK  Name = 
REMARK  4 active torsions:
REMARK  status: ('A' for Active; 'I' for Inactive)
REMARK    1  A    between atoms: C_1  and  O_2
REMARK    2  A    between atoms: O_2  and  C_3
REMARK    3  A    between atoms: C_4  and  S_5
REMARK    4  A    between atoms: S_5  and  N_6
REMARK                            x       y       z     vdW  Elec       q    Type
REMARK                         _______ _______ _______ _____ _____    ______ ____
ROOT
ATOM      1  C   UNL     1       2.836   4.634  19.274  0.00  0.00    +0.000 C 
ATOM      2  C   UNL     1       3.916   3.829  19.310  0.00  0.00    +0.000 C 
ATOM      3  C   UNL     1       5.083   4.072  18.408  0.00  0.00    +0.000 C 
ATOM      4  N   UNL     1       5.879   5.175  18.969  0.00  0.00    +0.000 NA
ATOM      5  S   UNL     1       7.307   5.363  18.107  0.00  0.00    +0.000 S 
ATOM      6  O   UNL     1       7.746   6.724  18.304  0.00  0.00    +0.000 OA
ATOM      7  O   UNL     1       8.132   4.237  18.485  0.00  0.00    +0.000 OA
ATOM      8  C   UNL     1       6.843   5.138  16.448  0.00  0.00    +0.000 A 
ATOM      9  C   UNL     1       7.757   5.433  15.461  0.00  0.00    +0.000 A 
ATOM     10  N   UNL     1       7.498   5.275  14.150  0.00  0.00    +0.000 NA
ATOM     11  C   UNL     1       6.256   4.828  13.829  0.00  0.00    +0.000 A 
ATOM     12  C   UNL     1       5.272   4.542  14.760  0.00  0.00    +0.000 A 
ATOM     13  C   UNL     1       5.559   4.707  16.116  0.00  0.00    +0.000 A 
ATOM     14  N   UNL     1       4.558   4.463  17.083  0.00  0.00    +0.000 N 
ATOM     15  C   UNL     1       3.386   5.269  17.034  0.00  0.00    +0.000 C 
ATOM     16  C   UNL     1       2.773   5.618  18.186  0.00  0.00    +0.000 C 
ATOM     17  H   UNL     1       6.129   4.979  19.938  0.00  0.00    +0.000 HD
ENDROOT
BRANCH   2  18
ATOM     18  S   UNL     1       3.877   2.342  20.147  0.00  0.00    +0.000 S 
ATOM     19  O   UNL     1       2.984   1.404  19.506  0.00  0.00    +0.000 OA
ATOM     20  O   UNL     1       5.211   1.965  20.559  0.00  0.00    +0.000 OA
BRANCH  18  21
ATOM     21  N   UNL     1       3.107   2.679  21.614  0.00  0.00    +0.000 NA
ATOM     22  H   UNL     1       2.532   3.520  21.536  0.00  0.00    +0.000 HD
ATOM     23  H   UNL     1       2.576   1.860  21.928  0.00  0.00    +0.000 HD
ENDBRANCH  18  21
ENDBRANCH   2  18
BRANCH   1  25
ATOM     24  C   UNL     1       1.355   5.696  20.767  0.00  0.00    +0.000 C 
ATOM     25  O   UNL     1       1.733   4.497  20.083  0.00  0.00    +0.000 OA
ENDBRANCH   1  25
TORSDOF 3
ENDMDL
MODEL 3
REMARK VINA RESULT:      -6.6      1.894      5.674
REMARK  Name = 
REMARK  4 active torsions:
REMARK  status: ('A' for Active; 'I' for Inactive)
REMARK    1  A    between atoms: C_1  and  O_2
REMARK    2  A    between atoms: O_2  and  C_3
REMARK    3  A    between atoms: C_4  and  S_5
REMARK    4  A    between atoms: S_5  and  N_6
REMARK                            x       y       z     vdW  Elec       q    Type
REMARK                         _______ _______ _______ _____ _____    ______ ____
ROOT
ATOM      1  C   UNL     1       2.780   4.812  19.549  0.00  0.00    +0.000 C 
ATOM      2  C   UNL     1       3.812   3.945  19.521  0.00  0.00    +0.000 C 
ATOM      3  C   UNL     1       4.972   4.166  18.605  0.00  0.00    +0.000 C 
ATOM      4  N   UNL     1       5.843   5.192  19.201  0.00  0.00    +0.000 NA
ATOM      5  S   UNL     1       7.261   5.340  18.316  0.00  0.00    +0.000 S 
ATOM      6  O   UNL     1       7.784   6.661  18.571  0.00  0.00    +0.000 OA
ATOM      7  O   UNL     1       8.027   4.151  18.619  0.00  0.00    +0.000 OA
ATOM      8  C   UNL     1       6.752   5.227  16.659  0.00  0.00    +0.000 A 
ATOM      9  C   UNL     1       7.662   5.519  15.667  0.00  0.00    +0.000 A 
ATOM     10  N   UNL     1       7.367   5.443  14.356  0.00  0.00    +0.000 NA
ATOM     11  C   UNL     1       6.094   5.085  14.043  0.00  0.00    +0.000 A 
ATOM     12  C   UNL     1       5.115   4.809  14.981  0.00  0.00    +0.000 A 
ATOM     13  C   UNL     1       5.438   4.888  16.336  0.00  0.00    +0.000 A 
ATOM     14  N   UNL     1       4.444   4.654  17.313  0.00  0.00    +0.000 N 
ATOM     15  C   UNL     1       3.321   5.528  17.332  0.00  0.00    +0.000 C 
ATOM     16  C   UNL     1       2.753   5.851  18.513  0.00  0.00    +0.000 C 
ATOM     17  H   UNL     1       6.100   4.932  20.153  0.00  0.00    +0.000 HD
ENDROOT
BRANCH   2  18
ATOM     18  S   UNL     1       3.703   2.422  20.284  0.00  0.00    +0.000 S 
ATOM     19  O   UNL     1       3.318   2.558  21.670  0.00  0.00    +0.000 OA
ATOM     20  O   UNL     1       3.064   1.468  19.405  0.00  0.00    +0.000 OA
BRANCH  18  21
ATOM     21  N   UNL     1       5.293   1.855  20.371  0.00  0.00    +0.000 NA
ATOM     22  H   UNL     1       5.947   2.631  20.495  0.00  0.00    +0.000 HD
ATOM     23  H   UNL     1       5.372   1.143  21.104  0.00  0.00    +0.000 HD
ENDBRANCH  18  21
ENDBRANCH   2  18
BRANCH   1  25
ATOM     24  C   UNL     1       0.627   3.902  19.839  0.00  0.00    +0.000 C 
ATOM     25  O   UNL     1       1.688   4.698  20.376  0.00  0.00    +0.000 OA
ENDBRANCH   1  25
TORSDOF 3
ENDMDL
MODEL 4
REMARK VINA RESULT:      -6.5      2.710      3.579
REMARK  Name = 
REMARK  4 active torsions:
REMARK  status: ('A' for Active; 'I' for Inactive)
REMARK    1  A    between atoms: C_1  and  O_2
REMARK    2  A    between atoms: O_2  and  C_3
REMARK    3  A    between atoms: C_4  and  S_5
REMARK    4  A    between atoms: S_5  and  N_6
REMARK                            x       y       z     vdW  Elec       q    Type
REMARK                         _______ _______ _______ _____ _____    ______ ____
ROOT
ATOM      1  C   UNL     1       6.738   6.290  17.588  0.00  0.00    +0.000 C 
ATOM      2  C   UNL     1       5.659   5.793  16.951  0.00  0.00    +0.000 C 
ATOM      3  C   UNL     1       4.542   5.161  17.717  0.00  0.00    +0.000 C 
ATOM      4  N   UNL     1       3.715   6.231  18.297  0.00  0.00    +0.000 NA
ATOM      5  S   UNL     1       2.335   5.586  19.002  0.00  0.00    +0.000 S 
ATOM      6  O   UNL     1       1.883   6.533  19.993  0.00  0.00    +0.000 OA
ATOM      7  O   UNL     1       1.492   5.185  17.897  0.00  0.00    +0.000 OA
ATOM      8  C   UNL     1       2.887   4.140  19.790  0.00  0.00    +0.000 A 
ATOM      9  C   UNL     1       2.027   3.482  20.641  0.00  0.00    +0.000 A 
ATOM     10  N   UNL     1       2.356   2.346  21.283  0.00  0.00    +0.000 NA
ATOM     11  C   UNL     1       3.615   1.879  21.077  0.00  0.00    +0.000 A 
ATOM     12  C   UNL     1       4.548   2.500  20.264  0.00  0.00    +0.000 A 
ATOM     13  C   UNL     1       4.188   3.675  19.602  0.00  0.00    +0.000 A 
ATOM     14  N   UNL     1       5.137   4.352  18.802  0.00  0.00    +0.000 N 
ATOM     15  C   UNL     1       6.308   4.843  19.444  0.00  0.00    +0.000 C 
ATOM     16  C   UNL     1       6.857   6.002  19.023  0.00  0.00    +0.000 C 
ATOM     17  H   UNL     1       3.414   6.882  17.572  0.00  0.00    +0.000 HD
ENDROOT
BRANCH   2  18
ATOM     18  S   UNL     1       5.656   5.584  15.257  0.00  0.00    +0.000 S 
ATOM     19  O   UNL     1       5.095   4.304  14.889  0.00  0.00    +0.000 OA
ATOM     20  O   UNL     1       5.253   6.809  14.604  0.00  0.00    +0.000 OA
BRANCH  18  21
ATOM     21  N   UNL     1       7.284   5.439  14.825  0.00  0.00    +0.000 NA
ATOM     22  H   UNL     1       7.375   5.095  13.867  0.00  0.00    +0.000 HD
ATOM     23  H   UNL     1       7.768   6.330  14.978  0.00  0.00    +0.000 HD
ENDBRANCH  18  21
ENDBRANCH   2  18
BRANCH   1  25
ATOM     24  C   UNL     1       8.090   8.215  17.466  0.00  0.00    +0.000 C 
ATOM     25  O   UNL     1       7.796   6.907  16.965  0.00  0.00    +0.000 OA
ENDBRANCH   1  25
TORSDOF 3
ENDMDL
MODEL 5
REMARK VINA RESULT:      -6.5      2.309      2.826
REMARK  Name = 
REMARK  4 active torsions:
REMARK  status: ('A' for Active; 'I' for Inactive)
REMARK    1  A    between atoms: C_1  and  O_2
REMARK    2  A    between atoms: O_2  and  C_3
REMARK    3  A    between atoms: C_4  and  S_5
REMARK    4  A    between atoms: S_5  and  N_6
REMARK                            x       y       z     vdW  Elec       q    Type
REMARK                         _______ _______ _______ _____ _____    ______ ____
ROOT
ATOM      1  C   UNL     1       5.561   6.529  17.250  0.00  0.00    +0.000 C 
ATOM      2  C   UNL     1       5.481   5.206  17.008  0.00  0.00    +0.000 C 
ATOM      3  C   UNL     1       4.397   4.380  17.623  0.00  0.00    +0.000 C 
ATOM      4  N   UNL     1       3.158   4.601  16.861  0.00  0.00    +0.000 NA
ATOM      5  S   UNL     1       1.956   3.551  17.381  0.00  0.00    +0.000 S 
ATOM      6  O   UNL     1       0.690   4.154  17.041  0.00  0.00    +0.000 OA
ATOM      7  O   UNL     1       2.338   2.251  16.874  0.00  0.00    +0.000 OA
ATOM      8  C   UNL     1       2.135   3.511  19.109  0.00  0.00    +0.000 A 
ATOM      9  C   UNL     1       1.159   2.894  19.860  0.00  0.00    +0.000 A 
ATOM     10  N   UNL     1       1.218   2.797  21.201  0.00  0.00    +0.000 NA
ATOM     11  C   UNL     1       2.291   3.373  21.803  0.00  0.00    +0.000 A 
ATOM     12  C   UNL     1       3.295   4.039  21.121  0.00  0.00    +0.000 A 
ATOM     13  C   UNL     1       3.222   4.127  19.730  0.00  0.00    +0.000 A 
ATOM     14  N   UNL     1       4.211   4.840  19.015  0.00  0.00    +0.000 N 
ATOM     15  C   UNL     1       4.347   6.230  19.289  0.00  0.00    +0.000 C 
ATOM     16  C   UNL     1       4.676   7.073  18.287  0.00  0.00    +0.000 C 
ATOM     17  H   UNL     1       3.313   4.422  15.869  0.00  0.00    +0.000 HD
ENDROOT
BRANCH   2  18
ATOM     18  S   UNL     1       6.764   4.369  16.257  0.00  0.00    +0.000 S 
ATOM     19  O   UNL     1       7.933   4.333  17.106  0.00  0.00    +0.000 OA
ATOM     20  O   UNL     1       6.268   3.185  15.592  0.00  0.00    +0.000 OA
BRANCH  18  21
ATOM     21  N   UNL     1       7.243   5.356  14.970  0.00  0.00    +0.000 NA
ATOM     22  H   UNL     1       7.503   4.791  14.158  0.00  0.00    +0.000 HD
ATOM     23  H   UNL     1       6.510   6.042  14.762  0.00  0.00    +0.000 HD
ENDBRANCH  18  21
ENDBRANCH   2  18
BRANCH   1  25
ATOM     24  C   UNL     1       7.523   7.776  17.628  0.00  0.00    +0.000 C 
ATOM     25  O   UNL     1       6.508   7.365  16.708  0.00  0.00    +0.000 OA
ENDBRANCH   1  25
TORSDOF 3
ENDMDL
MODEL 6
REMARK VINA RESULT:      -6.4      2.031      5.673
REMARK  Name = 
REMARK  4 active torsions:
REMARK  status: ('A' for Active; 'I' for Inactive)
REMARK    1  A    between atoms: C_1  and  O_2
REMARK    2  A    between atoms: O_2  and  C_3
REMARK    3  A    between atoms: C_4  and  S_5
REMARK    4  A    between atoms: S_5  and  N_6
REMARK                            x       y       z     vdW  Elec       q    Type
REMARK                         _______ _______ _______ _____ _____    ______ ____
ROOT
ATOM      1  C   UNL     1       2.612   5.487  19.729  0.00  0.00    +0.000 C 
ATOM      2  C   UNL     1       3.550   4.521  19.795  0.00  0.00    +0.000 C 
ATOM      3  C   UNL     1       4.737   4.544  18.888  0.00  0.00    +0.000 C 
ATOM      4  N   UNL     1       5.701   5.524  19.411  0.00  0.00    +0.000 NA
ATOM      5  S   UNL     1       7.138   5.451  18.546  0.00  0.00    +0.000 S 
ATOM      6  O   UNL     1       7.790   6.730  18.697  0.00  0.00    +0.000 OA
ATOM      7  O   UNL     1       7.775   4.222  18.965  0.00  0.00    +0.000 OA
ATOM      8  C   UNL     1       6.639   5.246  16.895  0.00  0.00    +0.000 A 
ATOM      9  C   UNL     1       7.585   5.357  15.900  0.00  0.00    +0.000 A 
ATOM     10  N   UNL     1       7.299   5.197  14.595  0.00  0.00    +0.000 NA
ATOM     11  C   UNL     1       6.000   4.944  14.287  0.00  0.00    +0.000 A 
ATOM     12  C   UNL     1       4.987   4.851  15.225  0.00  0.00    +0.000 A 
ATOM     13  C   UNL     1       5.301   5.015  16.576  0.00  0.00    +0.000 A 
ATOM     14  N   UNL     1       4.277   4.968  17.549  0.00  0.00    +0.000 N 
ATOM     15  C   UNL     1       3.249   5.949  17.469  0.00  0.00    +0.000 C 
ATOM     16  C   UNL     1       2.704   6.430  18.607  0.00  0.00    +0.000 C 
ATOM     17  H   UNL     1       5.920   5.324  20.387  0.00  0.00    +0.000 HD
ENDROOT
BRANCH   2  18
ATOM     18  S   UNL     1       3.277   3.089  20.683  0.00  0.00    +0.000 S 
ATOM     19  O   UNL     1       4.351   2.142  20.491  0.00  0.00    +0.000 OA
ATOM     20  O   UNL     1       2.766   3.407  21.998  0.00  0.00    +0.000 OA
BRANCH  18  21
ATOM     21  N   UNL     1       1.958   2.346  19.930  0.00  0.00    +0.000 NA
ATOM     22  H   UNL     1       1.336   3.045  19.517  0.00  0.00    +0.000 HD
ATOM     23  H   UNL     1       2.287   1.652  19.251  0.00  0.00    +0.000 HD
ENDBRANCH  18  21
ENDBRANCH   2  18
BRANCH   1  25
ATOM     24  C   UNL     1       1.203   6.874  21.009  0.00  0.00    +0.000 C 
ATOM     25  O   UNL     1       1.504   5.556  20.540  0.00  0.00    +0.000 OA
ENDBRANCH   1  25
TORSDOF 3
ENDMDL
MODEL 7
REMARK VINA RESULT:      -6.3      9.530     11.171
REMARK  Name = 
REMARK  4 active torsions:
REMARK  status: ('A' for Active; 'I' for Inactive)
REMARK    1  A    between atoms: C_1  and  O_2
REMARK    2  A    between atoms: O_2  and  C_3
REMARK    3  A    between atoms: C_4  and  S_5
REMARK    4  A    between atoms: S_5  and  N_6
REMARK                            x       y       z     vdW  Elec       q    Type
REMARK                         _______ _______ _______ _____ _____    ______ ____
ROOT
ATOM      1  C   UNL     1      -3.250  10.712  16.411  0.00  0.00    +0.000 C 
ATOM      2  C   UNL     1      -3.557  11.474  17.479  0.00  0.00    +0.000 C 
ATOM      3  C   UNL     1      -2.532  11.775  18.525  0.00  0.00    +0.000 C 
ATOM      4  N   UNL     1      -1.649  12.835  18.014  0.00  0.00    +0.000 NA
ATOM      5  S   UNL     1      -0.601  13.353  19.219  0.00  0.00    +0.000 S 
ATOM      6  O   UNL     1       0.548  13.930  18.563  0.00  0.00    +0.000 OA
ATOM      7  O   UNL     1      -1.417  14.121  20.132  0.00  0.00    +0.000 OA
ATOM      8  C   UNL     1      -0.130  11.895  20.038  0.00  0.00    +0.000 A 
ATOM      9  C   UNL     1       0.895  11.956  20.957  0.00  0.00    +0.000 A 
ATOM     10  N   UNL     1       1.319  10.886  21.655  0.00  0.00    +0.000 NA
ATOM     11  C   UNL     1       0.700   9.707  21.388  0.00  0.00    +0.000 A 
ATOM     12  C   UNL     1      -0.313   9.558  20.456  0.00  0.00    +0.000 A 
ATOM     13  C   UNL     1      -0.745  10.679  19.745  0.00  0.00    +0.000 A 
ATOM     14  N   UNL     1      -1.747  10.544  18.757  0.00  0.00    +0.000 N 
ATOM     15  C   UNL     1      -1.463   9.705  17.643  0.00  0.00    +0.000 C 
ATOM     16  C   UNL     1      -1.948  10.035  16.426  0.00  0.00    +0.000 C 
ATOM     17  H   UNL     1      -2.196  13.642  17.715  0.00  0.00    +0.000 HD
ENDROOT
BRANCH   2  18
ATOM     18  S   UNL     1      -5.178  11.865  17.844  0.00  0.00    +0.000 S 
ATOM     19  O   UNL     1      -5.754  12.711  16.824  0.00  0.00    +0.000 OA
ATOM     20  O   UNL     1      -5.871  10.703  18.351  0.00  0.00    +0.000 OA
BRANCH  18  21
ATOM     21  N   UNL     1      -5.095  12.879  19.195  0.00  0.00    +0.000 NA
ATOM     22  H   UNL     1      -4.174  13.317  19.263  0.00  0.00    +0.000 HD
ATOM     23  H   UNL     1      -5.861  13.561  19.169  0.00  0.00    +0.000 HD
ENDBRANCH  18  21
ENDBRANCH   2  18
BRANCH   1  25
ATOM     24  C   UNL     1      -3.488  10.088  14.152  0.00  0.00    +0.000 C 
ATOM     25  O   UNL     1      -4.123  10.406  15.394  0.00  0.00    +0.000 OA
ENDBRANCH   1  25
TORSDOF 3
ENDMDL
MODEL 8
REMARK VINA RESULT:      -6.3      1.285      1.476
REMARK  Name = 
REMARK  4 active torsions:
REMARK  status: ('A' for Active; 'I' for Inactive)
REMARK    1  A    between atoms: C_1  and  O_2
REMARK    2  A    between atoms: O_2  and  C_3
REMARK    3  A    between atoms: C_4  and  S_5
REMARK    4  A    between atoms: S_5  and  N_6
REMARK                            x       y       z     vdW  Elec       q    Type
REMARK                         _______ _______ _______ _____ _____    ______ ____
ROOT
ATOM      1  C   UNL     1       6.196   6.282  17.389  0.00  0.00    +0.000 C 
ATOM      2  C   UNL     1       6.401   5.381  18.369  0.00  0.00    +0.000 C 
ATOM      3  C   UNL     1       5.269   4.571  18.913  0.00  0.00    +0.000 C 
ATOM      4  N   UNL     1       4.982   3.483  17.965  0.00  0.00    +0.000 NA
ATOM      5  S   UNL     1       3.853   2.424  18.615  0.00  0.00    +0.000 S 
ATOM      6  O   UNL     1       3.213   1.754  17.508  0.00  0.00    +0.000 OA
ATOM      7  O   UNL     1       4.563   1.688  19.638  0.00  0.00    +0.000 OA
ATOM      8  C   UNL     1       2.704   3.453  19.414  0.00  0.00    +0.000 A 
ATOM      9  C   UNL     1       1.532   2.899  19.877  0.00  0.00    +0.000 A 
ATOM     10  N   UNL     1       0.590   3.610  20.524  0.00  0.00    +0.000 NA
ATOM     11  C   UNL     1       0.834   4.937  20.679  0.00  0.00    +0.000 A 
ATOM     12  C   UNL     1       1.972   5.574  20.213  0.00  0.00    +0.000 A 
ATOM     13  C   UNL     1       2.941   4.821  19.548  0.00  0.00    +0.000 A 
ATOM     14  N   UNL     1       4.090   5.456  19.024  0.00  0.00    +0.000 N 
ATOM     15  C   UNL     1       3.895   6.446  18.021  0.00  0.00    +0.000 C 
ATOM     16  C   UNL     1       4.802   6.572  17.030  0.00  0.00    +0.000 C 
ATOM     17  H   UNL     1       5.827   2.948  17.769  0.00  0.00    +0.000 HD
ENDROOT
BRANCH   2  18
ATOM     18  S   UNL     1       7.871   5.343  19.236  0.00  0.00    +0.000 S 
ATOM     19  O   UNL     1       7.639   5.180  20.653  0.00  0.00    +0.000 OA
ATOM     20  O   UNL     1       8.848   4.548  18.527  0.00  0.00    +0.000 OA
BRANCH  18  21
ATOM     21  N   UNL     1       8.496   6.910  19.118  0.00  0.00    +0.000 NA
ATOM     22  H   UNL     1       7.929   7.567  19.657  0.00  0.00    +0.000 HD
ATOM     23  H   UNL     1       9.484   6.915  19.392  0.00  0.00    +0.000 HD
ENDBRANCH  18  21
ENDBRANCH   2  18
BRANCH   1  25
ATOM     24  C   UNL     1       7.178   8.418  17.235  0.00  0.00    +0.000 C 
ATOM     25  O   UNL     1       7.182   7.050  16.816  0.00  0.00    +0.000 OA
ENDBRANCH   1  25
TORSDOF 3
ENDMDL
MODEL 9
REMARK VINA RESULT:      -6.2      7.377      8.633
REMARK  Name = 
REMARK  4 active torsions:
REMARK  status: ('A' for Active; 'I' for Inactive)
REMARK    1  A    between atoms: C_1  and  O_2
REMARK    2  A    between atoms: O_2  and  C_3
REMARK    3  A    between atoms: C_4  and  S_5
REMARK    4  A    between atoms: S_5  and  N_6
REMARK                            x       y       z     vdW  Elec       q    Type
REMARK                         _______ _______ _______ _____ _____    ______ ____
ROOT
ATOM      1  C   UNL     1       0.121  12.333  18.570  0.00  0.00    +0.000 C 
ATOM      2  C   UNL     1      -0.688  11.287  18.830  0.00  0.00    +0.000 C 
ATOM      3  C   UNL     1      -0.128   9.989  19.316  0.00  0.00    +0.000 C 
ATOM      4  N   UNL     1       0.172  10.122  20.750  0.00  0.00    +0.000 NA
ATOM      5  S   UNL     1       0.618   8.637  21.394  0.00  0.00    +0.000 S 
ATOM      6  O   UNL     1       1.408   8.906  22.572  0.00  0.00    +0.000 OA
ATOM      7  O   UNL     1      -0.604   7.867  21.461  0.00  0.00    +0.000 OA
ATOM      8  C   UNL     1       1.622   7.919  20.172  0.00  0.00    +0.000 A 
ATOM      9  C   UNL     1       2.321   6.774  20.481  0.00  0.00    +0.000 A 
ATOM     10  N   UNL     1       3.110   6.135  19.597  0.00  0.00    +0.000 NA
ATOM     11  C   UNL     1       3.216   6.697  18.365  0.00  0.00    +0.000 A 
ATOM     12  C   UNL     1       2.572   7.864  17.989  0.00  0.00    +0.000 A 
ATOM     13  C   UNL     1       1.754   8.511  18.916  0.00  0.00    +0.000 A 
ATOM     14  N   UNL     1       1.121   9.727  18.570  0.00  0.00    +0.000 N 
ATOM     15  C   UNL     1       1.956  10.833  18.244  0.00  0.00    +0.000 C 
ATOM     16  C   UNL     1       1.567  12.079  18.588  0.00  0.00    +0.000 C 
ATOM     17  H   UNL     1      -0.652  10.442  21.259  0.00  0.00    +0.000 HD
ENDROOT
BRANCH   2  18
ATOM     18  S   UNL     1      -2.320  11.292  18.333  0.00  0.00    +0.000 S 
ATOM     19  O   UNL     1      -2.811   9.947  18.136  0.00  0.00    +0.000 OA
ATOM     20  O   UNL     1      -3.068  12.274  19.085  0.00  0.00    +0.000 OA
BRANCH  18  21
ATOM     21  N   UNL     1      -2.306  11.939  16.771  0.00  0.00    +0.000 NA
ATOM     22  H   UNL     1      -2.416  12.954  16.798  0.00  0.00    +0.000 HD
ATOM     23  H   UNL     1      -1.458  11.641  16.276  0.00  0.00    +0.000 HD
ENDBRANCH  18  21
ENDBRANCH   2  18
BRANCH   1  25
ATOM     24  C   UNL     1      -0.184  14.602  19.124  0.00  0.00    +0.000 C 
ATOM     25  O   UNL     1      -0.311  13.567  18.145  0.00  0.00    +0.000 OA
ENDBRANCH   1  25
TORSDOF 3
ENDMDL
