MODEL 1
REMARK VINA RESULT:      -4.1      0.000      0.000
REMARK  Name = 
REMARK  6 active torsions:
REMARK  status: ('A' for Active; 'I' for Inactive)
REMARK    1  A    between atoms: C_1  and  C_2
REMARK    2  A    between atoms: C_2  and  N_3
REMARK    3  A    between atoms: C_2  and  C_4
REMARK    4  A    between atoms: C_4  and  C_5
REMARK    5  A    between atoms: C_5  and  P_6
REMARK    6  A    between atoms: P_6  and  O_8
REMARK                            x       y       z     vdW  Elec       q    Type
REMARK                         _______ _______ _______ _____ _____    ______ ____
ROOT
ATOM      1  C   UNL     1       6.527   4.547  16.461  0.00  0.00    +0.000 C 
ENDROOT
BRANCH   1   3
ATOM      2  C   UNL     1       5.601   4.218  14.149  0.00  0.00    +0.000 C 
ATOM      3  C   UNL     1       6.875   4.352  14.981  0.00  0.00    +0.000 C 
BRANCH   3   4
ATOM      4  N   UNL     1       7.670   5.484  14.492  0.00  0.00    +0.000 NA
ATOM      5  H   UNL     1       8.595   5.162  14.219  0.00  0.00    +0.000 HD
ATOM      6  H   UNL     1       7.818   6.143  15.257  0.00  0.00    +0.000 HD
ENDBRANCH   3   4
ENDBRANCH   1   3
BRANCH   1   7
ATOM      7  C   UNL     1       7.061   5.855  17.044  0.00  0.00    +0.000 C 
BRANCH   7   8
ATOM      8  P   UNL     1       7.522   5.692  18.808  0.00  0.00    +0.000 P 
ATOM      9  O   UNL     1       8.263   7.035  18.789  0.00  0.00    +0.000 OA
ATOM     10  H   UNL     1       6.173   5.713  19.219  0.00  0.00    +0.000 HD
BRANCH   8  11
ATOM     11  O   UNL     1       7.958   5.539  20.475  0.00  0.00    +0.000 OA
ATOM     12  H   UNL     1       8.335   6.414  20.712  0.00  0.00    +0.000 HD
ENDBRANCH   8  11
ENDBRANCH   7   8
ENDBRANCH   1   7
TORSDOF 5
ENDMDL
MODEL 2
REMARK VINA RESULT:      -4.1      3.300      3.903
REMARK  Name = 
REMARK  6 active torsions:
REMARK  status: ('A' for Active; 'I' for Inactive)
REMARK    1  A    between atoms: C_1  and  C_2
REMARK    2  A    between atoms: C_2  and  N_3
REMARK    3  A    between atoms: C_2  and  C_4
REMARK    4  A    between atoms: C_4  and  C_5
REMARK    5  A    between atoms: C_5  and  P_6
REMARK    6  A    between atoms: P_6  and  O_8
REMARK                            x       y       z     vdW  Elec       q    Type
REMARK                         _______ _______ _______ _____ _____    ______ ____
ROOT
ATOM      1  C   UNL     1       6.200   3.750  12.876  0.00  0.00    +0.000 C 
ENDROOT
BRANCH   1   3
ATOM      2  C   UNL     1       4.302   3.303  11.292  0.00  0.00    +0.000 C 
ATOM      3  C   UNL     1       5.336   2.667  12.219  0.00  0.00    +0.000 C 
BRANCH   3   4
ATOM      4  N   UNL     1       6.177   1.736  11.461  0.00  0.00    +0.000 NA
ATOM      5  H   UNL     1       6.517   2.189  10.617  0.00  0.00    +0.000 HD
ATOM      6  H   UNL     1       5.606   0.951  11.147  0.00  0.00    +0.000 HD
ENDBRANCH   3   4
ENDBRANCH   1   3
BRANCH   1   7
ATOM      7  C   UNL     1       5.585   4.330  14.149  0.00  0.00    +0.000 C 
BRANCH   7   8
ATOM      8  P   UNL     1       6.781   4.393  15.532  0.00  0.00    +0.000 P 
ATOM      9  O   UNL     1       7.661   5.406  14.790  0.00  0.00    +0.000 OA
ATOM     10  H   UNL     1       5.815   4.915  16.417  0.00  0.00    +0.000 HD
BRANCH   8  11
ATOM     11  O   UNL     1       7.912   4.453  16.839  0.00  0.00    +0.000 OA
ATOM     12  H   UNL     1       8.626   5.047  16.520  0.00  0.00    +0.000 HD
ENDBRANCH   8  11
ENDBRANCH   7   8
ENDBRANCH   1   7
TORSDOF 5
ENDMDL
MODEL 3
REMARK VINA RESULT:      -4.0      3.881      4.634
REMARK  Name = 
REMARK  6 active torsions:
REMARK  status: ('A' for Active; 'I' for Inactive)
REMARK    1  A    between atoms: C_1  and  C_2
REMARK    2  A    between atoms: C_2  and  N_3
REMARK    3  A    between atoms: C_2  and  C_4
REMARK    4  A    between atoms: C_4  and  C_5
REMARK    5  A    between atoms: C_5  and  P_6
REMARK    6  A    between atoms: P_6  and  O_8
REMARK                            x       y       z     vdW  Elec       q    Type
REMARK                         _______ _______ _______ _____ _____    ______ ____
ROOT
ATOM      1  C   UNL     1       7.057   5.817  16.778  0.00  0.00    +0.000 C 
ENDROOT
BRANCH   1   3
ATOM      2  C   UNL     1       7.816   5.825  19.173  0.00  0.00    +0.000 C 
ATOM      3  C   UNL     1       7.438   4.947  17.981  0.00  0.00    +0.000 C 
BRANCH   3   4
ATOM      4  N   UNL     1       6.323   4.067  18.347  0.00  0.00    +0.000 NA
ATOM      5  H   UNL     1       6.342   3.230  17.769  0.00  0.00    +0.000 HD
ATOM      6  H   UNL     1       5.443   4.537  18.130  0.00  0.00    +0.000 HD
ENDBRANCH   3   4
ENDBRANCH   1   3
BRANCH   1   7
ATOM      7  C   UNL     1       5.795   5.341  16.059  0.00  0.00    +0.000 C 
BRANCH   7   8
ATOM      8  P   UNL     1       6.178   4.365  14.559  0.00  0.00    +0.000 P 
ATOM      9  O   UNL     1       7.486   5.133  14.333  0.00  0.00    +0.000 OA
ATOM     10  H   UNL     1       6.262   3.164  15.294  0.00  0.00    +0.000 HD
BRANCH   8  11
ATOM     11  O   UNL     1       6.540   3.443  13.141  0.00  0.00    +0.000 OA
ATOM     12  H   UNL     1       7.247   2.823  13.424  0.00  0.00    +0.000 HD
ENDBRANCH   8  11
ENDBRANCH   7   8
ENDBRANCH   1   7
TORSDOF 5
ENDMDL
MODEL 4
REMARK VINA RESULT:      -4.0      5.864      6.480
REMARK  Name = 
REMARK  6 active torsions:
REMARK  status: ('A' for Active; 'I' for Inactive)
REMARK    1  A    between atoms: C_1  and  C_2
REMARK    2  A    between atoms: C_2  and  N_3
REMARK    3  A    between atoms: C_2  and  C_4
REMARK    4  A    between atoms: C_4  and  C_5
REMARK    5  A    between atoms: C_5  and  P_6
REMARK    6  A    between atoms: P_6  and  O_8
REMARK                            x       y       z     vdW  Elec       q    Type
REMARK                         _______ _______ _______ _____ _____    ______ ____
ROOT
ATOM      1  C   UNL     1       1.653   3.828  19.203  0.00  0.00    +0.000 C 
ENDROOT
BRANCH   1   3
ATOM      2  C   UNL     1       1.503   2.861  21.517  0.00  0.00    +0.000 C 
ATOM      3  C   UNL     1       1.351   4.127  20.676  0.00  0.00    +0.000 C 
BRANCH   3   4
ATOM      4  N   UNL     1       2.253   5.169  21.179  0.00  0.00    +0.000 NA
ATOM      5  H   UNL     1       2.831   4.791  21.926  0.00  0.00    +0.000 HD
ATOM      6  H   UNL     1       1.699   5.913  21.603  0.00  0.00    +0.000 HD
ENDBRANCH   3   4
ENDBRANCH   1   3
BRANCH   1   7
ATOM      7  C   UNL     1       2.638   2.677  19.006  0.00  0.00    +0.000 C 
BRANCH   7   8
ATOM      8  P   UNL     1       4.364   3.261  18.832  0.00  0.00    +0.000 P 
ATOM      9  O   UNL     1       4.818   2.434  20.041  0.00  0.00    +0.000 OA
ATOM     10  H   UNL     1       4.497   2.661  17.563  0.00  0.00    +0.000 HD
BRANCH   8  11
ATOM     11  O   UNL     1       5.995   3.813  18.669  0.00  0.00    +0.000 OA
ATOM     12  H   UNL     1       6.512   3.000  18.481  0.00  0.00    +0.000 HD
ENDBRANCH   8  11
ENDBRANCH   7   8
ENDBRANCH   1   7
TORSDOF 5
ENDMDL
MODEL 5
REMARK VINA RESULT:      -4.0      2.363      2.623
REMARK  Name = 
REMARK  6 active torsions:
REMARK  status: ('A' for Active; 'I' for Inactive)
REMARK    1  A    between atoms: C_1  and  C_2
REMARK    2  A    between atoms: C_2  and  N_3
REMARK    3  A    between atoms: C_2  and  C_4
REMARK    4  A    between atoms: C_4  and  C_5
REMARK    5  A    between atoms: C_5  and  P_6
REMARK    6  A    between atoms: P_6  and  O_8
REMARK                            x       y       z     vdW  Elec       q    Type
REMARK                         _______ _______ _______ _____ _____    ______ ____
ROOT
ATOM      1  C   UNL     1       4.832   5.616  17.526  0.00  0.00    +0.000 C 
ENDROOT
BRANCH   1   3
ATOM      2  C   UNL     1       3.126   3.782  17.327  0.00  0.00    +0.000 C 
ATOM      3  C   UNL     1       4.596   4.102  17.589  0.00  0.00    +0.000 C 
BRANCH   3   4
ATOM      4  N   UNL     1       5.437   3.415  16.602  0.00  0.00    +0.000 NA
ATOM      5  H   UNL     1       5.756   4.079  15.901  0.00  0.00    +0.000 HD
ATOM      6  H   UNL     1       4.871   2.729  16.102  0.00  0.00    +0.000 HD
ENDBRANCH   3   4
ENDBRANCH   1   3
BRANCH   1   7
ATOM      7  C   UNL     1       6.306   5.997  17.404  0.00  0.00    +0.000 C 
BRANCH   7   8
ATOM      8  P   UNL     1       7.232   5.698  18.954  0.00  0.00    +0.000 P 
ATOM      9  O   UNL     1       7.938   4.476  18.355  0.00  0.00    +0.000 OA
ATOM     10  H   UNL     1       7.904   6.935  18.856  0.00  0.00    +0.000 HD
BRANCH   8  11
ATOM     11  O   UNL     1       8.106   5.415  20.419  0.00  0.00    +0.000 OA
ATOM     12  H   UNL     1       8.455   4.502  20.325  0.00  0.00    +0.000 HD
ENDBRANCH   8  11
ENDBRANCH   7   8
ENDBRANCH   1   7
TORSDOF 5
ENDMDL
MODEL 6
REMARK VINA RESULT:      -3.9      5.359      5.728
REMARK  Name = 
REMARK  6 active torsions:
REMARK  status: ('A' for Active; 'I' for Inactive)
REMARK    1  A    between atoms: C_1  and  C_2
REMARK    2  A    between atoms: C_2  and  N_3
REMARK    3  A    between atoms: C_2  and  C_4
REMARK    4  A    between atoms: C_4  and  C_5
REMARK    5  A    between atoms: C_5  and  P_6
REMARK    6  A    between atoms: P_6  and  O_8
REMARK                            x       y       z     vdW  Elec       q    Type
REMARK                         _______ _______ _______ _____ _____    ______ ____
ROOT
ATOM      1  C   UNL     1       1.602   4.121  18.002  0.00  0.00    +0.000 C 
ENDROOT
BRANCH   1   3
ATOM      2  C   UNL     1       0.897   3.472  20.324  0.00  0.00    +0.000 C 
ATOM      3  C   UNL     1       1.735   3.072  19.112  0.00  0.00    +0.000 C 
BRANCH   3   4
ATOM      4  N   UNL     1       1.305   1.757  18.622  0.00  0.00    +0.000 NA
ATOM      5  H   UNL     1       0.293   1.683  18.680  0.00  0.00    +0.000 HD
ATOM      6  H   UNL     1       1.674   1.034  19.241  0.00  0.00    +0.000 HD
ENDBRANCH   3   4
ENDBRANCH   1   3
BRANCH   1   7
ATOM      7  C   UNL     1       2.698   5.186  18.037  0.00  0.00    +0.000 C 
BRANCH   7   8
ATOM      8  P   UNL     1       4.337   4.482  18.445  0.00  0.00    +0.000 P 
ATOM      9  O   UNL     1       4.597   5.568  19.497  0.00  0.00    +0.000 OA
ATOM     10  H   UNL     1       3.768   3.275  18.901  0.00  0.00    +0.000 HD
BRANCH   8  11
ATOM     11  O   UNL     1       5.887   3.818  18.831  0.00  0.00    +0.000 OA
ATOM     12  H   UNL     1       6.154   3.330  18.022  0.00  0.00    +0.000 HD
ENDBRANCH   8  11
ENDBRANCH   7   8
ENDBRANCH   1   7
TORSDOF 5
ENDMDL
MODEL 7
REMARK VINA RESULT:      -3.9      1.069      1.069
REMARK  Name = 
REMARK  6 active torsions:
REMARK  status: ('A' for Active; 'I' for Inactive)
REMARK    1  A    between atoms: C_1  and  C_2
REMARK    2  A    between atoms: C_2  and  N_3
REMARK    3  A    between atoms: C_2  and  C_4
REMARK    4  A    between atoms: C_4  and  C_5
REMARK    5  A    between atoms: C_5  and  P_6
REMARK    6  A    between atoms: P_6  and  O_8
REMARK                            x       y       z     vdW  Elec       q    Type
REMARK                         _______ _______ _______ _____ _____    ______ ____
ROOT
ATOM      1  C   UNL     1       5.822   4.646  16.462  0.00  0.00    +0.000 C 
ENDROOT
BRANCH   1   3
ATOM      2  C   UNL     1       5.600   4.302  13.984  0.00  0.00    +0.000 C 
ATOM      3  C   UNL     1       6.569   4.317  15.165  0.00  0.00    +0.000 C 
BRANCH   3   4
ATOM      4  N   UNL     1       7.630   5.301  14.924  0.00  0.00    +0.000 NA
ATOM      5  H   UNL     1       7.950   5.233  13.962  0.00  0.00    +0.000 HD
ATOM      6  H   UNL     1       8.436   5.071  15.505  0.00  0.00    +0.000 HD
ENDBRANCH   3   4
ENDBRANCH   1   3
BRANCH   1   7
ATOM      7  C   UNL     1       6.242   5.977  17.085  0.00  0.00    +0.000 C 
BRANCH   7   8
ATOM      8  P   UNL     1       7.310   5.749  18.554  0.00  0.00    +0.000 P 
ATOM      9  O   UNL     1       8.010   4.541  17.920  0.00  0.00    +0.000 OA
ATOM     10  H   UNL     1       7.921   7.008  18.374  0.00  0.00    +0.000 HD
BRANCH   8  11
ATOM     11  O   UNL     1       8.319   5.534  19.942  0.00  0.00    +0.000 OA
ATOM     12  H   UNL     1       7.858   4.852  20.478  0.00  0.00    +0.000 HD
ENDBRANCH   8  11
ENDBRANCH   7   8
ENDBRANCH   1   7
TORSDOF 5
ENDMDL
MODEL 8
REMARK VINA RESULT:      -3.9      5.716      6.207
REMARK  Name = 
REMARK  6 active torsions:
REMARK  status: ('A' for Active; 'I' for Inactive)
REMARK    1  A    between atoms: C_1  and  C_2
REMARK    2  A    between atoms: C_2  and  N_3
REMARK    3  A    between atoms: C_2  and  C_4
REMARK    4  A    between atoms: C_4  and  C_5
REMARK    5  A    between atoms: C_5  and  P_6
REMARK    6  A    between atoms: P_6  and  O_8
REMARK                            x       y       z     vdW  Elec       q    Type
REMARK                         _______ _______ _______ _____ _____    ______ ____
ROOT
ATOM      1  C   UNL     1       1.856   4.090  18.455  0.00  0.00    +0.000 C 
ENDROOT
BRANCH   1   3
ATOM      2  C   UNL     1       1.662   5.333  20.630  0.00  0.00    +0.000 C 
ATOM      3  C   UNL     1       1.705   3.954  19.975  0.00  0.00    +0.000 C 
BRANCH   3   4
ATOM      4  N   UNL     1       0.481   3.212  20.300  0.00  0.00    +0.000 NA
ATOM      5  H   UNL     1       0.723   2.298  20.674  0.00  0.00    +0.000 HD
ATOM      6  H   UNL     1      -0.038   3.034  19.440  0.00  0.00    +0.000 HD
ENDBRANCH   3   4
ENDBRANCH   1   3
BRANCH   1   7
ATOM      7  C   UNL     1       3.278   3.830  17.960  0.00  0.00    +0.000 C 
BRANCH   7   8
ATOM      8  P   UNL     1       4.221   2.744  19.092  0.00  0.00    +0.000 P 
ATOM      9  O   UNL     1       5.317   3.802  19.273  0.00  0.00    +0.000 OA
ATOM     10  H   UNL     1       3.178   2.737  20.042  0.00  0.00    +0.000 HD
BRANCH   8  11
ATOM     11  O   UNL     1       5.112   1.719  20.162  0.00  0.00    +0.000 OA
ATOM     12  H   UNL     1       5.281   2.275  20.953  0.00  0.00    +0.000 HD
ENDBRANCH   8  11
ENDBRANCH   7   8
ENDBRANCH   1   7
TORSDOF 5
ENDMDL
MODEL 9
REMARK VINA RESULT:      -3.9      3.965      4.493
REMARK  Name = 
REMARK  6 active torsions:
REMARK  status: ('A' for Active; 'I' for Inactive)
REMARK    1  A    between atoms: C_1  and  C_2
REMARK    2  A    between atoms: C_2  and  N_3
REMARK    3  A    between atoms: C_2  and  C_4
REMARK    4  A    between atoms: C_4  and  C_5
REMARK    5  A    between atoms: C_5  and  P_6
REMARK    6  A    between atoms: P_6  and  O_8
REMARK                            x       y       z     vdW  Elec       q    Type
REMARK                         _______ _______ _______ _____ _____    ______ ____
ROOT
ATOM      1  C   UNL     1       7.164   4.782  17.746  0.00  0.00    +0.000 C 
ENDROOT
BRANCH   1   3
ATOM      2  C   UNL     1       4.913   5.759  18.284  0.00  0.00    +0.000 C 
ATOM      3  C   UNL     1       6.046   4.867  18.790  0.00  0.00    +0.000 C 
BRANCH   3   4
ATOM      4  N   UNL     1       5.527   3.528  19.091  0.00  0.00    +0.000 NA
ATOM      5  H   UNL     1       4.616   3.604  19.535  0.00  0.00    +0.000 HD
ATOM      6  H   UNL     1       6.137   3.081  19.777  0.00  0.00    +0.000 HD
ENDBRANCH   3   4
ENDBRANCH   1   3
BRANCH   1   7
ATOM      7  C   UNL     1       6.887   5.606  16.489  0.00  0.00    +0.000 C 
BRANCH   7   8
ATOM      8  P   UNL     1       6.641   4.556  15.011  0.00  0.00    +0.000 P 
ATOM      9  O   UNL     1       7.675   5.356  14.209  0.00  0.00    +0.000 OA
ATOM     10  H   UNL     1       7.105   3.405  15.682  0.00  0.00    +0.000 HD
BRANCH   8  11
ATOM     11  O   UNL     1       6.408   3.564  13.613  0.00  0.00    +0.000 OA
ATOM     12  H   UNL     1       6.659   2.661  13.907  0.00  0.00    +0.000 HD
ENDBRANCH   8  11
ENDBRANCH   7   8
ENDBRANCH   1   7
TORSDOF 5
ENDMDL
