MODEL 1
REMARK VINA RESULT:      -8.4      0.000      0.000
REMARK  Name = 
REMARK  9 active torsions:
REMARK  status: ('A' for Active; 'I' for Inactive)
REMARK    1  A    between atoms: C_1  and  C_2
REMARK    2  A    between atoms: C_5  and  S_6
REMARK    3  A    between atoms: S_6  and  N_9
REMARK    4  A    between atoms: N_9  and  C_10
REMARK    5  A    between atoms: C_10  and  C_11
REMARK    6  A    between atoms: C_10  and  C_18
REMARK    7  A    between atoms: C_11  and  C_12
REMARK    8  A    between atoms: C_24  and  C_25
REMARK    9  A    between atoms: C_25  and  O_27
REMARK                            x       y       z     vdW  Elec       q    Type
REMARK                         _______ _______ _______ _____ _____    ______ ____
ROOT
ATOM      1  C   UNL     1       3.065   6.664  18.663  0.00  0.00    +0.000 C 
ENDROOT
BRANCH   1   2
ATOM      2  C   UNL     1       2.287   5.289  18.608  0.00  0.00    +0.000 C 
ATOM      3  O   UNL     1       1.772   4.896  17.557  0.00  0.00    +0.000 OA
ATOM      4  N   UNL     1       2.164   4.467  19.731  0.00  0.00    +0.000 N 
ATOM      5  C   UNL     1       2.443   4.819  21.111  0.00  0.00    +0.000 C 
ATOM      6  C   UNL     1       2.312   3.491  21.838  0.00  0.00    +0.000 C 
ATOM      7  C   UNL     1       1.096   2.862  21.171  0.00  0.00    +0.000 C 
ATOM      8  C   UNL     1       1.158   3.363  19.711  0.00  0.00    +0.000 C 
BRANCH   8   9
ATOM      9  C   UNL     1       1.446   2.151  18.815  0.00  0.00    +0.000 C 
ATOM     10  O   UNL     1       2.574   1.710  18.616  0.00  0.00    +0.000 OA
BRANCH   9  11
ATOM     11  O   UNL     1       0.365   1.720  18.126  0.00  0.00    +0.000 OA
ATOM     12  H   UNL     1       0.621   1.000  17.519  0.00  0.00    +0.000 HD
ENDBRANCH   9  11
ENDBRANCH   8   9
ENDBRANCH   1   2
BRANCH   1  13
ATOM     13  N   UNL     1       4.183   6.632  17.681  0.00  0.00    +0.000 NA
ATOM     14  H   UNL     1       3.924   6.718  16.700  0.00  0.00    +0.000 HD
BRANCH  13  15
ATOM     15  S   UNL     1       5.537   5.629  17.805  0.00  0.00    +0.000 S 
ATOM     16  O   UNL     1       5.285   4.541  18.712  0.00  0.00    +0.000 OA
ATOM     17  O   UNL     1       6.612   6.562  18.096  0.00  0.00    +0.000 OA
BRANCH  15  22
ATOM     18  C   UNL     1       6.536   3.457  12.224  0.00  0.00    +0.000 C 
ATOM     19  C   UNL     1       6.309   3.982  13.612  0.00  0.00    +0.000 A 
ATOM     20  C   UNL     1       5.103   3.724  14.273  0.00  0.00    +0.000 A 
ATOM     21  C   UNL     1       4.875   4.236  15.551  0.00  0.00    +0.000 A 
ATOM     22  C   UNL     1       5.853   4.992  16.172  0.00  0.00    +0.000 A 
ATOM     23  C   UNL     1       7.030   5.313  15.500  0.00  0.00    +0.000 A 
ATOM     24  C   UNL     1       7.280   4.770  14.240  0.00  0.00    +0.000 A 
ENDBRANCH  15  22
ENDBRANCH  13  15
ENDBRANCH   1  13
BRANCH   1  25
ATOM     25  C   UNL     1       2.045   7.804  18.343  0.00  0.00    +0.000 C 
BRANCH  25  26
ATOM     26  C   UNL     1       1.436   8.536  19.518  0.00  0.00    +0.000 A 
ATOM     27  C   UNL     1       0.821   9.779  19.320  0.00  0.00    +0.000 A 
ATOM     28  C   UNL     1       0.471  10.586  20.406  0.00  0.00    +0.000 A 
ATOM     29  C   UNL     1       0.656  10.124  21.705  0.00  0.00    +0.000 A 
ATOM     30  C   UNL     1       1.125   8.827  21.913  0.00  0.00    +0.000 A 
ATOM     31  C   UNL     1       1.519   8.035  20.826  0.00  0.00    +0.000 A 
ENDBRANCH  25  26
ENDBRANCH   1  25
TORSDOF 8
ENDMDL
MODEL 2
REMARK VINA RESULT:      -8.3      0.505      1.026
REMARK  Name = 
REMARK  9 active torsions:
REMARK  status: ('A' for Active; 'I' for Inactive)
REMARK    1  A    between atoms: C_1  and  C_2
REMARK    2  A    between atoms: C_5  and  S_6
REMARK    3  A    between atoms: S_6  and  N_9
REMARK    4  A    between atoms: N_9  and  C_10
REMARK    5  A    between atoms: C_10  and  C_11
REMARK    6  A    between atoms: C_10  and  C_18
REMARK    7  A    between atoms: C_11  and  C_12
REMARK    8  A    between atoms: C_24  and  C_25
REMARK    9  A    between atoms: C_25  and  O_27
REMARK                            x       y       z     vdW  Elec       q    Type
REMARK                         _______ _______ _______ _____ _____    ______ ____
ROOT
ATOM      1  C   UNL     1       3.243   6.696  18.571  0.00  0.00    +0.000 C 
ENDROOT
BRANCH   1   2
ATOM      2  C   UNL     1       2.690   5.221  18.437  0.00  0.00    +0.000 C 
ATOM      3  O   UNL     1       2.480   4.723  17.328  0.00  0.00    +0.000 OA
ATOM      4  N   UNL     1       2.433   4.427  19.557  0.00  0.00    +0.000 N 
ATOM      5  C   UNL     1       2.347   4.859  20.940  0.00  0.00    +0.000 C 
ATOM      6  C   UNL     1       2.239   3.551  21.704  0.00  0.00    +0.000 C 
ATOM      7  C   UNL     1       1.298   2.730  20.833  0.00  0.00    +0.000 C 
ATOM      8  C   UNL     1       1.614   3.187  19.392  0.00  0.00    +0.000 C 
BRANCH   8   9
ATOM      9  C   UNL     1       2.256   2.001  18.658  0.00  0.00    +0.000 C 
ATOM     10  O   UNL     1       3.248   1.408  19.070  0.00  0.00    +0.000 OA
BRANCH   9  11
ATOM     11  O   UNL     1       1.734   1.782  17.430  0.00  0.00    +0.000 OA
ATOM     12  H   UNL     1       2.438   1.832  16.755  0.00  0.00    +0.000 HD
ENDBRANCH   9  11
ENDBRANCH   8   9
ENDBRANCH   1   2
BRANCH   1  13
ATOM     13  N   UNL     1       4.417   6.861  17.671  0.00  0.00    +0.000 NA
ATOM     14  H   UNL     1       4.211   7.068  16.696  0.00  0.00    +0.000 HD
BRANCH  13  15
ATOM     15  S   UNL     1       5.821   5.924  17.749  0.00  0.00    +0.000 S 
ATOM     16  O   UNL     1       5.692   4.892  18.743  0.00  0.00    +0.000 OA
ATOM     17  O   UNL     1       6.871   6.918  17.889  0.00  0.00    +0.000 OA
BRANCH  15  22
ATOM     18  C   UNL     1       6.475   3.409  12.262  0.00  0.00    +0.000 C 
ATOM     19  C   UNL     1       6.335   4.022  13.625  0.00  0.00    +0.000 A 
ATOM     20  C   UNL     1       5.243   3.693  14.435  0.00  0.00    +0.000 A 
ATOM     21  C   UNL     1       5.092   4.283  15.691  0.00  0.00    +0.000 A 
ATOM     22  C   UNL     1       6.036   5.190  16.141  0.00  0.00    +0.000 A 
ATOM     23  C   UNL     1       7.091   5.577  15.319  0.00  0.00    +0.000 A 
ATOM     24  C   UNL     1       7.269   4.960  14.081  0.00  0.00    +0.000 A 
ENDBRANCH  15  22
ENDBRANCH  13  15
ENDBRANCH   1  13
BRANCH   1  25
ATOM     25  C   UNL     1       2.084   7.676  18.198  0.00  0.00    +0.000 C 
BRANCH  25  26
ATOM     26  C   UNL     1       1.557   8.571  19.298  0.00  0.00    +0.000 A 
ATOM     27  C   UNL     1       1.612   8.141  20.630  0.00  0.00    +0.000 A 
ATOM     28  C   UNL     1       0.920   8.827  21.633  0.00  0.00    +0.000 A 
ATOM     29  C   UNL     1       0.232   9.997  21.329  0.00  0.00    +0.000 A 
ATOM     30  C   UNL     1       0.297  10.517  20.036  0.00  0.00    +0.000 A 
ATOM     31  C   UNL     1       0.952   9.806  19.021  0.00  0.00    +0.000 A 
ENDBRANCH  25  26
ENDBRANCH   1  25
TORSDOF 8
ENDMDL
MODEL 3
REMARK VINA RESULT:      -8.3      0.215      1.413
REMARK  Name = 
REMARK  9 active torsions:
REMARK  status: ('A' for Active; 'I' for Inactive)
REMARK    1  A    between atoms: C_1  and  C_2
REMARK    2  A    between atoms: C_5  and  S_6
REMARK    3  A    between atoms: S_6  and  N_9
REMARK    4  A    between atoms: N_9  and  C_10
REMARK    5  A    between atoms: C_10  and  C_11
REMARK    6  A    between atoms: C_10  and  C_18
REMARK    7  A    between atoms: C_11  and  C_12
REMARK    8  A    between atoms: C_24  and  C_25
REMARK    9  A    between atoms: C_25  and  O_27
REMARK                            x       y       z     vdW  Elec       q    Type
REMARK                         _______ _______ _______ _____ _____    ______ ____
ROOT
ATOM      1  C   UNL     1       3.028   6.694  18.573  0.00  0.00    +0.000 C 
ENDROOT
BRANCH   1   2
ATOM      2  C   UNL     1       2.161   5.372  18.553  0.00  0.00    +0.000 C 
ATOM      3  O   UNL     1       1.518   5.053  17.549  0.00  0.00    +0.000 OA
ATOM      4  N   UNL     1       2.100   4.515  19.655  0.00  0.00    +0.000 N 
ATOM      5  C   UNL     1       2.539   4.794  21.010  0.00  0.00    +0.000 C 
ATOM      6  C   UNL     1       2.397   3.449  21.701  0.00  0.00    +0.000 C 
ATOM      7  C   UNL     1       1.082   2.921  21.144  0.00  0.00    +0.000 C 
ATOM      8  C   UNL     1       1.027   3.475  19.703  0.00  0.00    +0.000 C 
BRANCH   8   9
ATOM      9  C   UNL     1       1.145   2.284  18.741  0.00  0.00    +0.000 C 
ATOM     10  O   UNL     1       0.183   1.783  18.167  0.00  0.00    +0.000 OA
BRANCH   9  11
ATOM     11  O   UNL     1       2.377   1.729  18.719  0.00  0.00    +0.000 OA
ATOM     12  H   UNL     1       2.841   1.979  17.897  0.00  0.00    +0.000 HD
ENDBRANCH   9  11
ENDBRANCH   8   9
ENDBRANCH   1   2
BRANCH   1  13
ATOM     13  N   UNL     1       4.120   6.577  17.569  0.00  0.00    +0.000 NA
ATOM     14  H   UNL     1       3.840   6.624  16.591  0.00  0.00    +0.000 HD
BRANCH  13  15
ATOM     15  S   UNL     1       5.444   5.537  17.712  0.00  0.00    +0.000 S 
ATOM     16  O   UNL     1       5.123   4.416  18.556  0.00  0.00    +0.000 OA
ATOM     17  O   UNL     1       6.523   6.430  18.097  0.00  0.00    +0.000 OA
BRANCH  15  22
ATOM     18  C   UNL     1       6.824   3.593  12.128  0.00  0.00    +0.000 C 
ATOM     19  C   UNL     1       6.462   4.085  13.500  0.00  0.00    +0.000 A 
ATOM     20  C   UNL     1       7.367   4.867  14.227  0.00  0.00    +0.000 A 
ATOM     21  C   UNL     1       7.048   5.301  15.514  0.00  0.00    +0.000 A 
ATOM     22  C   UNL     1       5.825   4.966  16.069  0.00  0.00    +0.000 A 
ATOM     23  C   UNL     1       4.945   4.133  15.384  0.00  0.00    +0.000 A 
ATOM     24  C   UNL     1       5.240   3.731  14.082  0.00  0.00    +0.000 A 
ENDBRANCH  15  22
ENDBRANCH  13  15
ENDBRANCH   1  13
BRANCH   1  25
ATOM     25  C   UNL     1       2.077   7.893  18.259  0.00  0.00    +0.000 C 
BRANCH  25  26
ATOM     26  C   UNL     1       1.547   8.682  19.436  0.00  0.00    +0.000 A 
ATOM     27  C   UNL     1       1.580   8.120  20.720  0.00  0.00    +0.000 A 
ATOM     28  C   UNL     1       0.884   8.711  21.778  0.00  0.00    +0.000 A 
ATOM     29  C   UNL     1       0.215   9.915  21.585  0.00  0.00    +0.000 A 
ATOM     30  C   UNL     1       0.302  10.561  20.352  0.00  0.00    +0.000 A 
ATOM     31  C   UNL     1       0.961   9.946  19.278  0.00  0.00    +0.000 A 
ENDBRANCH  25  26
ENDBRANCH   1  25
TORSDOF 8
ENDMDL
MODEL 4
REMARK VINA RESULT:      -8.1      2.096      4.900
REMARK  Name = 
REMARK  9 active torsions:
REMARK  status: ('A' for Active; 'I' for Inactive)
REMARK    1  A    between atoms: C_1  and  C_2
REMARK    2  A    between atoms: C_5  and  S_6
REMARK    3  A    between atoms: S_6  and  N_9
REMARK    4  A    between atoms: N_9  and  C_10
REMARK    5  A    between atoms: C_10  and  C_11
REMARK    6  A    between atoms: C_10  and  C_18
REMARK    7  A    between atoms: C_11  and  C_12
REMARK    8  A    between atoms: C_24  and  C_25
REMARK    9  A    between atoms: C_25  and  O_27
REMARK                            x       y       z     vdW  Elec       q    Type
REMARK                         _______ _______ _______ _____ _____    ______ ____
ROOT
ATOM      1  C   UNL     1       3.062   6.248  17.989  0.00  0.00    +0.000 C 
ENDROOT
BRANCH   1   2
ATOM      2  C   UNL     1       2.532   7.721  18.210  0.00  0.00    +0.000 C 
ATOM      3  O   UNL     1       2.712   8.591  17.354  0.00  0.00    +0.000 OA
ATOM      4  N   UNL     1       1.836   8.087  19.364  0.00  0.00    +0.000 N 
ATOM      5  C   UNL     1       1.730   7.337  20.602  0.00  0.00    +0.000 C 
ATOM      6  C   UNL     1       0.713   8.132  21.401  0.00  0.00    +0.000 C 
ATOM      7  C   UNL     1       1.112   9.574  21.113  0.00  0.00    +0.000 C 
ATOM      8  C   UNL     1       1.652   9.539  19.667  0.00  0.00    +0.000 C 
BRANCH   8   9
ATOM      9  C   UNL     1       0.677  10.334  18.786  0.00  0.00    +0.000 C 
ATOM     10  O   UNL     1      -0.535  10.142  18.778  0.00  0.00    +0.000 OA
BRANCH   9  11
ATOM     11  O   UNL     1       1.293  11.142  17.895  0.00  0.00    +0.000 OA
ATOM     12  H   UNL     1       0.919  11.002  17.004  0.00  0.00    +0.000 HD
ENDBRANCH   9  11
ENDBRANCH   8   9
ENDBRANCH   1   2
BRANCH   1  13
ATOM     13  N   UNL     1       3.860   5.833  19.175  0.00  0.00    +0.000 NA
ATOM     14  H   UNL     1       3.967   6.528  19.911  0.00  0.00    +0.000 HD
BRANCH  13  15
ATOM     15  S   UNL     1       5.258   4.887  19.105  0.00  0.00    +0.000 S 
ATOM     16  O   UNL     1       5.030   3.593  19.692  0.00  0.00    +0.000 OA
ATOM     17  O   UNL     1       6.272   5.758  19.675  0.00  0.00    +0.000 OA
BRANCH  15  22
ATOM     18  C   UNL     1       6.722   4.286  13.243  0.00  0.00    +0.000 C 
ATOM     19  C   UNL     1       6.337   4.441  14.686  0.00  0.00    +0.000 A 
ATOM     20  C   UNL     1       7.048   5.318  15.512  0.00  0.00    +0.000 A 
ATOM     21  C   UNL     1       6.714   5.443  16.861  0.00  0.00    +0.000 A 
ATOM     22  C   UNL     1       5.665   4.705  17.381  0.00  0.00    +0.000 A 
ATOM     23  C   UNL     1       4.994   3.779  16.587  0.00  0.00    +0.000 A 
ATOM     24  C   UNL     1       5.296   3.680  15.228  0.00  0.00    +0.000 A 
ENDBRANCH  15  22
ENDBRANCH  13  15
ENDBRANCH   1  13
BRANCH   1  25
ATOM     25  C   UNL     1       1.822   5.322  17.771  0.00  0.00    +0.000 C 
BRANCH  25  26
ATOM     26  C   UNL     1       1.654   4.158  18.722  0.00  0.00    +0.000 A 
ATOM     27  C   UNL     1       1.213   4.390  20.032  0.00  0.00    +0.000 A 
ATOM     28  C   UNL     1       1.280   3.382  20.999  0.00  0.00    +0.000 A 
ATOM     29  C   UNL     1       1.712   2.108  20.647  0.00  0.00    +0.000 A 
ATOM     30  C   UNL     1       2.008   1.825  19.314  0.00  0.00    +0.000 A 
ATOM     31  C   UNL     1       1.985   2.846  18.354  0.00  0.00    +0.000 A 
ENDBRANCH  25  26
ENDBRANCH   1  25
TORSDOF 8
ENDMDL
MODEL 5
REMARK VINA RESULT:      -8.0      2.399      3.384
REMARK  Name = 
REMARK  9 active torsions:
REMARK  status: ('A' for Active; 'I' for Inactive)
REMARK    1  A    between atoms: C_1  and  C_2
REMARK    2  A    between atoms: C_5  and  S_6
REMARK    3  A    between atoms: S_6  and  N_9
REMARK    4  A    between atoms: N_9  and  C_10
REMARK    5  A    between atoms: C_10  and  C_11
REMARK    6  A    between atoms: C_10  and  C_18
REMARK    7  A    between atoms: C_11  and  C_12
REMARK    8  A    between atoms: C_24  and  C_25
REMARK    9  A    between atoms: C_25  and  O_27
REMARK                            x       y       z     vdW  Elec       q    Type
REMARK                         _______ _______ _______ _____ _____    ______ ____
ROOT
ATOM      1  C   UNL     1       4.015   5.912  18.063  0.00  0.00    +0.000 C 
ENDROOT
BRANCH   1   2
ATOM      2  C   UNL     1       2.828   4.873  18.169  0.00  0.00    +0.000 C 
ATOM      3  O   UNL     1       2.090   4.657  17.205  0.00  0.00    +0.000 OA
ATOM      4  N   UNL     1       2.579   4.158  19.343  0.00  0.00    +0.000 N 
ATOM      5  C   UNL     1       3.122   4.419  20.664  0.00  0.00    +0.000 C 
ATOM      6  C   UNL     1       2.651   3.223  21.473  0.00  0.00    +0.000 C 
ATOM      7  C   UNL     1       1.224   3.023  20.978  0.00  0.00    +0.000 C 
ATOM      8  C   UNL     1       1.270   3.451  19.495  0.00  0.00    +0.000 C 
BRANCH   8   9
ATOM      9  C   UNL     1       1.034   2.197  18.641  0.00  0.00    +0.000 C 
ATOM     10  O   UNL     1      -0.081   1.752  18.389  0.00  0.00    +0.000 OA
BRANCH   9  11
ATOM     11  O   UNL     1       2.170   1.530  18.337  0.00  0.00    +0.000 OA
ATOM     12  H   UNL     1       2.795   2.126  17.881  0.00  0.00    +0.000 HD
ENDBRANCH   9  11
ENDBRANCH   8   9
ENDBRANCH   1   2
BRANCH   1  13
ATOM     13  N   UNL     1       5.065   5.363  17.162  0.00  0.00    +0.000 NA
ATOM     14  H   UNL     1       4.768   4.634  16.517  0.00  0.00    +0.000 HD
BRANCH  13  15
ATOM     15  S   UNL     1       6.664   5.071  17.623  0.00  0.00    +0.000 S 
ATOM     16  O   UNL     1       7.382   4.395  16.575  0.00  0.00    +0.000 OA
ATOM     17  O   UNL     1       6.519   4.425  18.917  0.00  0.00    +0.000 OA
BRANCH  15  22
ATOM     18  C   UNL     1       9.126  10.524  18.654  0.00  0.00    +0.000 C 
ATOM     19  C   UNL     1       8.540   9.166  18.395  0.00  0.00    +0.000 A 
ATOM     20  C   UNL     1       7.619   8.983  17.358  0.00  0.00    +0.000 A 
ATOM     21  C   UNL     1       7.048   7.730  17.134  0.00  0.00    +0.000 A 
ATOM     22  C   UNL     1       7.405   6.659  17.935  0.00  0.00    +0.000 A 
ATOM     23  C   UNL     1       8.268   6.841  19.012  0.00  0.00    +0.000 A 
ATOM     24  C   UNL     1       8.874   8.082  19.215  0.00  0.00    +0.000 A 
ENDBRANCH  15  22
ENDBRANCH  13  15
ENDBRANCH   1  13
BRANCH   1  25
ATOM     25  C   UNL     1       3.428   7.254  17.520  0.00  0.00    +0.000 C 
BRANCH  25  26
ATOM     26  C   UNL     1       2.390   7.949  18.373  0.00  0.00    +0.000 A 
ATOM     27  C   UNL     1       1.637   9.000  17.832  0.00  0.00    +0.000 A 
ATOM     28  C   UNL     1       0.853   9.816  18.654  0.00  0.00    +0.000 A 
ATOM     29  C   UNL     1       0.748   9.539  20.013  0.00  0.00    +0.000 A 
ATOM     30  C   UNL     1       1.371   8.405  20.534  0.00  0.00    +0.000 A 
ATOM     31  C   UNL     1       2.193   7.614  19.720  0.00  0.00    +0.000 A 
ENDBRANCH  25  26
ENDBRANCH   1  25
TORSDOF 8
ENDMDL
MODEL 6
REMARK VINA RESULT:      -8.0      2.340      3.439
REMARK  Name = 
REMARK  9 active torsions:
REMARK  status: ('A' for Active; 'I' for Inactive)
REMARK    1  A    between atoms: C_1  and  C_2
REMARK    2  A    between atoms: C_5  and  S_6
REMARK    3  A    between atoms: S_6  and  N_9
REMARK    4  A    between atoms: N_9  and  C_10
REMARK    5  A    between atoms: C_10  and  C_11
REMARK    6  A    between atoms: C_10  and  C_18
REMARK    7  A    between atoms: C_11  and  C_12
REMARK    8  A    between atoms: C_24  and  C_25
REMARK    9  A    between atoms: C_25  and  O_27
REMARK                            x       y       z     vdW  Elec       q    Type
REMARK                         _______ _______ _______ _____ _____    ______ ____
ROOT
ATOM      1  C   UNL     1       3.665   6.003  18.161  0.00  0.00    +0.000 C 
ENDROOT
BRANCH   1   2
ATOM      2  C   UNL     1       2.547   4.893  18.293  0.00  0.00    +0.000 C 
ATOM      3  O   UNL     1       1.789   4.645  17.352  0.00  0.00    +0.000 OA
ATOM      4  N   UNL     1       2.385   4.147  19.464  0.00  0.00    +0.000 N 
ATOM      5  C   UNL     1       2.959   4.423  20.768  0.00  0.00    +0.000 C 
ATOM      6  C   UNL     1       2.591   3.190  21.574  0.00  0.00    +0.000 C 
ATOM      7  C   UNL     1       1.162   2.910  21.128  0.00  0.00    +0.000 C 
ATOM      8  C   UNL     1       1.128   3.360  19.651  0.00  0.00    +0.000 C 
BRANCH   8   9
ATOM      9  C   UNL     1       0.937   2.106  18.786  0.00  0.00    +0.000 C 
ATOM     10  O   UNL     1      -0.149   1.758  18.332  0.00  0.00    +0.000 OA
BRANCH   9  11
ATOM     11  O   UNL     1       2.039   1.327  18.716  0.00  0.00    +0.000 OA
ATOM     12  H   UNL     1       2.618   1.498  19.483  0.00  0.00    +0.000 HD
ENDBRANCH   9  11
ENDBRANCH   8   9
ENDBRANCH   1   2
BRANCH   1  13
ATOM     13  N   UNL     1       4.748   5.502  17.272  0.00  0.00    +0.000 NA
ATOM     14  H   UNL     1       4.474   4.815  16.572  0.00  0.00    +0.000 HD
BRANCH  13  15
ATOM     15  S   UNL     1       6.325   5.170  17.779  0.00  0.00    +0.000 S 
ATOM     16  O   UNL     1       7.022   4.380  16.799  0.00  0.00    +0.000 OA
ATOM     17  O   UNL     1       6.134   4.637  19.117  0.00  0.00    +0.000 OA
BRANCH  15  22
ATOM     18  C   UNL     1       9.170  10.489  18.475  0.00  0.00    +0.000 C 
ATOM     19  C   UNL     1       8.445   9.185  18.309  0.00  0.00    +0.000 A 
ATOM     20  C   UNL     1       8.839   8.063  19.048  0.00  0.00    +0.000 A 
ATOM     21  C   UNL     1       8.188   6.841  18.875  0.00  0.00    +0.000 A 
ATOM     22  C   UNL     1       7.140   6.741  17.976  0.00  0.00    +0.000 A 
ATOM     23  C   UNL     1       6.783   7.831  17.187  0.00  0.00    +0.000 A 
ATOM     24  C   UNL     1       7.401   9.065  17.385  0.00  0.00    +0.000 A 
ENDBRANCH  15  22
ENDBRANCH  13  15
ENDBRANCH   1  13
BRANCH   1  25
ATOM     25  C   UNL     1       2.992   7.292  17.587  0.00  0.00    +0.000 C 
BRANCH  25  26
ATOM     26  C   UNL     1       2.220   8.158  18.558  0.00  0.00    +0.000 A 
ATOM     27  C   UNL     1       2.100   7.764  19.897  0.00  0.00    +0.000 A 
ATOM     28  C   UNL     1       1.200   8.404  20.754  0.00  0.00    +0.000 A 
ATOM     29  C   UNL     1       0.468   9.498  20.303  0.00  0.00    +0.000 A 
ATOM     30  C   UNL     1       0.691   9.993  19.019  0.00  0.00    +0.000 A 
ATOM     31  C   UNL     1       1.560   9.324  18.145  0.00  0.00    +0.000 A 
ENDBRANCH  25  26
ENDBRANCH   1  25
TORSDOF 8
ENDMDL
MODEL 7
REMARK VINA RESULT:      -7.9      2.135      7.183
REMARK  Name = 
REMARK  9 active torsions:
REMARK  status: ('A' for Active; 'I' for Inactive)
REMARK    1  A    between atoms: C_1  and  C_2
REMARK    2  A    between atoms: C_5  and  S_6
REMARK    3  A    between atoms: S_6  and  N_9
REMARK    4  A    between atoms: N_9  and  C_10
REMARK    5  A    between atoms: C_10  and  C_11
REMARK    6  A    between atoms: C_10  and  C_18
REMARK    7  A    between atoms: C_11  and  C_12
REMARK    8  A    between atoms: C_24  and  C_25
REMARK    9  A    between atoms: C_25  and  O_27
REMARK                            x       y       z     vdW  Elec       q    Type
REMARK                         _______ _______ _______ _____ _____    ______ ____
ROOT
ATOM      1  C   UNL     1       3.329   6.521  18.142  0.00  0.00    +0.000 C 
ENDROOT
BRANCH   1   2
ATOM      2  C   UNL     1       3.536   5.178  18.948  0.00  0.00    +0.000 C 
ATOM      3  O   UNL     1       4.556   4.994  19.618  0.00  0.00    +0.000 OA
ATOM      4  N   UNL     1       2.578   4.161  18.945  0.00  0.00    +0.000 N 
ATOM      5  C   UNL     1       1.445   4.025  18.047  0.00  0.00    +0.000 C 
ATOM      6  C   UNL     1       0.675   2.857  18.638  0.00  0.00    +0.000 C 
ATOM      7  C   UNL     1       1.784   1.891  19.035  0.00  0.00    +0.000 C 
ATOM      8  C   UNL     1       2.961   2.805  19.441  0.00  0.00    +0.000 C 
BRANCH   8   9
ATOM      9  C   UNL     1       3.184   2.634  20.951  0.00  0.00    +0.000 C 
ATOM     10  O   UNL     1       2.394   3.037  21.799  0.00  0.00    +0.000 OA
BRANCH   9  11
ATOM     11  O   UNL     1       4.409   2.156  21.264  0.00  0.00    +0.000 OA
ATOM     12  H   UNL     1       4.812   1.734  20.481  0.00  0.00    +0.000 HD
ENDBRANCH   9  11
ENDBRANCH   8   9
ENDBRANCH   1   2
BRANCH   1  13
ATOM     13  N   UNL     1       2.612   7.502  19.003  0.00  0.00    +0.000 NA
ATOM     14  H   UNL     1       2.146   7.123  19.825  0.00  0.00    +0.000 HD
BRANCH  13  15
ATOM     15  S   UNL     1       1.720   8.813  18.421  0.00  0.00    +0.000 S 
ATOM     16  O   UNL     1       0.784   8.387  17.414  0.00  0.00    +0.000 OA
ATOM     17  O   UNL     1       2.746   9.780  18.074  0.00  0.00    +0.000 OA
BRANCH  15  22
ATOM     18  C   UNL     1      -1.338  11.148  23.118  0.00  0.00    +0.000 C 
ATOM     19  C   UNL     1      -0.561  10.576  21.968  0.00  0.00    +0.000 A 
ATOM     20  C   UNL     1      -0.766  11.060  20.671  0.00  0.00    +0.000 A 
ATOM     21  C   UNL     1      -0.069  10.511  19.594  0.00  0.00    +0.000 A 
ATOM     22  C   UNL     1       0.840   9.491  19.813  0.00  0.00    +0.000 A 
ATOM     23  C   UNL     1       1.005   8.954  21.087  0.00  0.00    +0.000 A 
ATOM     24  C   UNL     1       0.342   9.527  22.173  0.00  0.00    +0.000 A 
ENDBRANCH  15  22
ENDBRANCH  13  15
ENDBRANCH   1  13
BRANCH   1  25
ATOM     25  C   UNL     1       4.738   7.045  17.715  0.00  0.00    +0.000 C 
BRANCH  25  26
ATOM     26  C   UNL     1       5.542   6.175  16.774  0.00  0.00    +0.000 A 
ATOM     27  C   UNL     1       5.064   5.924  15.482  0.00  0.00    +0.000 A 
ATOM     28  C   UNL     1       5.650   4.939  14.680  0.00  0.00    +0.000 A 
ATOM     29  C   UNL     1       6.772   4.252  15.131  0.00  0.00    +0.000 A 
ATOM     30  C   UNL     1       7.347   4.601  16.353  0.00  0.00    +0.000 A 
ATOM     31  C   UNL     1       6.734   5.555  17.176  0.00  0.00    +0.000 A 
ENDBRANCH  25  26
ENDBRANCH   1  25
TORSDOF 8
ENDMDL
MODEL 8
REMARK VINA RESULT:      -7.9      1.967      6.976
REMARK  Name = 
REMARK  9 active torsions:
REMARK  status: ('A' for Active; 'I' for Inactive)
REMARK    1  A    between atoms: C_1  and  C_2
REMARK    2  A    between atoms: C_5  and  S_6
REMARK    3  A    between atoms: S_6  and  N_9
REMARK    4  A    between atoms: N_9  and  C_10
REMARK    5  A    between atoms: C_10  and  C_11
REMARK    6  A    between atoms: C_10  and  C_18
REMARK    7  A    between atoms: C_11  and  C_12
REMARK    8  A    between atoms: C_24  and  C_25
REMARK    9  A    between atoms: C_25  and  O_27
REMARK                            x       y       z     vdW  Elec       q    Type
REMARK                         _______ _______ _______ _____ _____    ______ ____
ROOT
ATOM      1  C   UNL     1       2.927   6.561  18.149  0.00  0.00    +0.000 C 
ENDROOT
BRANCH   1   2
ATOM      2  C   UNL     1       2.145   5.197  18.308  0.00  0.00    +0.000 C 
ATOM      3  O   UNL     1       1.550   4.695  17.351  0.00  0.00    +0.000 OA
ATOM      4  N   UNL     1       2.107   4.508  19.523  0.00  0.00    +0.000 N 
ATOM      5  C   UNL     1       2.491   5.008  20.830  0.00  0.00    +0.000 C 
ATOM      6  C   UNL     1       2.414   3.772  21.709  0.00  0.00    +0.000 C 
ATOM      7  C   UNL     1       1.148   3.085  21.211  0.00  0.00    +0.000 C 
ATOM      8  C   UNL     1       1.099   3.419  19.704  0.00  0.00    +0.000 C 
BRANCH   8   9
ATOM      9  C   UNL     1       1.315   2.111  18.930  0.00  0.00    +0.000 C 
ATOM     10  O   UNL     1       2.394   1.529  18.875  0.00  0.00    +0.000 OA
BRANCH   9  11
ATOM     11  O   UNL     1       0.254   1.751  18.173  0.00  0.00    +0.000 OA
ATOM     12  H   UNL     1      -0.573   2.050  18.596  0.00  0.00    +0.000 HD
ENDBRANCH   9  11
ENDBRANCH   8   9
ENDBRANCH   1   2
BRANCH   1  13
ATOM     13  N   UNL     1       2.290   7.594  19.011  0.00  0.00    +0.000 NA
ATOM     14  H   UNL     1       1.775   7.249  19.819  0.00  0.00    +0.000 HD
BRANCH  13  15
ATOM     15  S   UNL     1       1.535   8.990  18.433  0.00  0.00    +0.000 S 
ATOM     16  O   UNL     1       0.615   8.672  17.373  0.00  0.00    +0.000 OA
ATOM     17  O   UNL     1       2.653   9.878  18.162  0.00  0.00    +0.000 OA
BRANCH  15  22
ATOM     18  C   UNL     1      -1.433  11.369  23.166  0.00  0.00    +0.000 C 
ATOM     19  C   UNL     1      -0.720  10.782  21.982  0.00  0.00    +0.000 A 
ATOM     20  C   UNL     1      -0.092   9.536  22.087  0.00  0.00    +0.000 A 
ATOM     21  C   UNL     1       0.599   9.000  20.999  0.00  0.00    +0.000 A 
ATOM     22  C   UNL     1       0.651   9.700  19.806  0.00  0.00    +0.000 A 
ATOM     23  C   UNL     1       0.089  10.970  19.709  0.00  0.00    +0.000 A 
ATOM     24  C   UNL     1      -0.637  11.492  20.779  0.00  0.00    +0.000 A 
ENDBRANCH  15  22
ENDBRANCH  13  15
ENDBRANCH   1  13
BRANCH   1  25
ATOM     25  C   UNL     1       4.416   6.308  18.551  0.00  0.00    +0.000 C 
BRANCH  25  26
ATOM     26  C   UNL     1       5.352   5.825  17.465  0.00  0.00    +0.000 A 
ATOM     27  C   UNL     1       5.029   6.048  16.120  0.00  0.00    +0.000 A 
ATOM     28  C   UNL     1       5.738   5.409  15.099  0.00  0.00    +0.000 A 
ATOM     29  C   UNL     1       6.829   4.603  15.407  0.00  0.00    +0.000 A 
ATOM     30  C   UNL     1       7.252   4.495  16.731  0.00  0.00    +0.000 A 
ATOM     31  C   UNL     1       6.515   5.099  17.760  0.00  0.00    +0.000 A 
ENDBRANCH  25  26
ENDBRANCH   1  25
TORSDOF 8
ENDMDL
MODEL 9
REMARK VINA RESULT:      -7.8      2.803      5.479
REMARK  Name = 
REMARK  9 active torsions:
REMARK  status: ('A' for Active; 'I' for Inactive)
REMARK    1  A    between atoms: C_1  and  C_2
REMARK    2  A    between atoms: C_5  and  S_6
REMARK    3  A    between atoms: S_6  and  N_9
REMARK    4  A    between atoms: N_9  and  C_10
REMARK    5  A    between atoms: C_10  and  C_11
REMARK    6  A    between atoms: C_10  and  C_18
REMARK    7  A    between atoms: C_11  and  C_12
REMARK    8  A    between atoms: C_24  and  C_25
REMARK    9  A    between atoms: C_25  and  O_27
REMARK                            x       y       z     vdW  Elec       q    Type
REMARK                         _______ _______ _______ _____ _____    ______ ____
ROOT
ATOM      1  C   UNL     1       2.770   7.320  18.256  0.00  0.00    +0.000 C 
ENDROOT
BRANCH   1   2
ATOM      2  C   UNL     1       1.879   8.624  18.320  0.00  0.00    +0.000 C 
ATOM      3  O   UNL     1       1.782   9.371  17.343  0.00  0.00    +0.000 OA
ATOM      4  N   UNL     1       1.164   8.970  19.469  0.00  0.00    +0.000 N 
ATOM      5  C   UNL     1       1.319   8.416  20.802  0.00  0.00    +0.000 C 
ATOM      6  C   UNL     1       0.164   9.035  21.569  0.00  0.00    +0.000 C 
ATOM      7  C   UNL     1       0.152  10.470  21.057  0.00  0.00    +0.000 C 
ATOM      8  C   UNL     1       0.615  10.356  19.588  0.00  0.00    +0.000 C 
BRANCH   8   9
ATOM      9  C   UNL     1      -0.575  10.730  18.694  0.00  0.00    +0.000 C 
ATOM     10  O   UNL     1      -1.605  10.066  18.627  0.00  0.00    +0.000 OA
BRANCH   9  11
ATOM     11  O   UNL     1      -0.318  11.760  17.857  0.00  0.00    +0.000 OA
ATOM     12  H   UNL     1      -1.138  12.038  17.407  0.00  0.00    +0.000 HD
ENDBRANCH   9  11
ENDBRANCH   8   9
ENDBRANCH   1   2
BRANCH   1  13
ATOM     13  N   UNL     1       4.171   7.701  17.924  0.00  0.00    +0.000 NA
ATOM     14  H   UNL     1       4.315   8.664  17.624  0.00  0.00    +0.000 HD
BRANCH  13  15
ATOM     15  S   UNL     1       5.268   6.703  17.115  0.00  0.00    +0.000 S 
ATOM     16  O   UNL     1       6.620   7.017  17.494  0.00  0.00    +0.000 OA
ATOM     17  O   UNL     1       4.870   6.838  15.724  0.00  0.00    +0.000 OA
BRANCH  15  22
ATOM     18  C   UNL     1       3.945   1.023  18.803  0.00  0.00    +0.000 C 
ATOM     19  C   UNL     1       4.287   2.418  18.367  0.00  0.00    +0.000 A 
ATOM     20  C   UNL     1       4.887   3.308  19.265  0.00  0.00    +0.000 A 
ATOM     21  C   UNL     1       5.178   4.616  18.874  0.00  0.00    +0.000 A 
ATOM     22  C   UNL     1       4.882   5.030  17.587  0.00  0.00    +0.000 A 
ATOM     23  C   UNL     1       4.223   4.177  16.706  0.00  0.00    +0.000 A 
ATOM     24  C   UNL     1       3.968   2.857  17.077  0.00  0.00    +0.000 A 
ENDBRANCH  15  22
ENDBRANCH  13  15
ENDBRANCH   1  13
BRANCH   1  25
ATOM     25  C   UNL     1       2.677   6.608  19.644  0.00  0.00    +0.000 C 
BRANCH  25  26
ATOM     26  C   UNL     1       1.917   5.301  19.701  0.00  0.00    +0.000 A 
ATOM     27  C   UNL     1       1.835   4.597  20.909  0.00  0.00    +0.000 A 
ATOM     28  C   UNL     1       1.357   3.284  20.942  0.00  0.00    +0.000 A 
ATOM     29  C   UNL     1       0.879   2.688  19.779  0.00  0.00    +0.000 A 
ATOM     30  C   UNL     1       0.815   3.432  18.601  0.00  0.00    +0.000 A 
ATOM     31  C   UNL     1       1.336   4.733  18.558  0.00  0.00    +0.000 A 
ENDBRANCH  25  26
ENDBRANCH   1  25
TORSDOF 8
ENDMDL
