MODEL 1
REMARK VINA RESULT:      -8.5      0.000      0.000
REMARK  Name = 
REMARK  4 active torsions:
REMARK  status: ('A' for Active; 'I' for Inactive)
REMARK    1  A    between atoms: O_1  and  C_2
REMARK    2  A    between atoms: C_2  and  C_3
REMARK    3  A    between atoms: N_6  and  C_7
REMARK    4  A    between atoms: N_23  and  C_24
REMARK                            x       y       z     vdW  Elec       q    Type
REMARK                         _______ _______ _______ _____ _____    ______ ____
ROOT
ATOM      1  C   UNL     1       3.161   6.280  18.483  0.00  0.00    +0.000 A 
ATOM      2  C   UNL     1       2.938   7.654  18.557  0.00  0.00    +0.000 A 
ATOM      3  C   UNL     1       2.322   8.224  19.666  0.00  0.00    +0.000 A 
ATOM      4  C   UNL     1       1.843   7.421  20.695  0.00  0.00    +0.000 A 
ATOM      5  N   UNL     1       1.168   7.950  21.797  0.00  0.00    +0.000 N 
ATOM      6  C   UNL     1       0.382   9.097  21.861  0.00  0.00    +0.000 A 
ATOM      7  N   UNL     1      -0.300   9.320  23.004  0.00  0.00    +0.000 NA
ATOM      8  C   UNL     1      -1.111  10.411  23.099  0.00  0.00    +0.000 A 
ATOM      9  C   UNL     1      -1.215  11.289  22.024  0.00  0.00    +0.000 A 
ATOM     10  C   UNL     1      -1.923  12.473  21.679  0.00  0.00    +0.000 A 
ATOM     11  C   UNL     1      -3.004  13.204  22.190  0.00  0.00    +0.000 A 
ATOM     12  C   UNL     1      -3.226  14.451  21.618  0.00  0.00    +0.000 A 
ATOM     13  N   UNL     1      -2.407  15.047  20.727  0.00  0.00    +0.000 NA
ATOM     14  C   UNL     1      -1.390  14.331  20.212  0.00  0.00    +0.000 A 
ATOM     15  F   UNL     1      -0.509  14.942  19.414  0.00  0.00    +0.000 F 
ATOM     16  C   UNL     1      -1.255  12.998  20.566  0.00  0.00    +0.000 A 
ATOM     17  N   UNL     1      -0.652  11.916  19.954  0.00  0.00    +0.000 N 
ATOM     18  C   UNL     1      -0.437  10.972  20.930  0.00  0.00    +0.000 A 
ATOM     19  N   UNL     1       0.327   9.894  20.790  0.00  0.00    +0.000 NA
ATOM     20  N   UNL     1       2.039   6.096  20.669  0.00  0.00    +0.000 NA
ATOM     21  C   UNL     1       2.671   5.564  19.577  0.00  0.00    +0.000 A 
ATOM     22  H   UNL     1       0.912   7.262  22.484  0.00  0.00    +0.000 HD
ENDROOT
BRANCH   1  26
ATOM     23  C   UNL     1       5.784   4.297  15.859  0.00  0.00    +0.000 C 
ATOM     24  C   UNL     1       4.835   3.590  16.837  0.00  0.00    +0.000 C 
ATOM     25  C   UNL     1       3.514   4.344  16.981  0.00  0.00    +0.000 C 
ATOM     26  N   UNL     1       3.796   5.725  17.388  0.00  0.00    +0.000 N 
ATOM     27  C   UNL     1       4.616   6.502  16.462  0.00  0.00    +0.000 C 
ATOM     28  C   UNL     1       5.951   5.778  16.256  0.00  0.00    +0.000 C 
BRANCH  23  29
ATOM     29  C   UNL     1       5.307   4.117  14.414  0.00  0.00    +0.000 C 
BRANCH  29  30
ATOM     30  O   UNL     1       6.281   3.403  13.666  0.00  0.00    +0.000 OA
ATOM     31  H   UNL     1       5.816   2.677  13.213  0.00  0.00    +0.000 HD
ENDBRANCH  29  30
ENDBRANCH  23  29
ENDBRANCH   1  26
BRANCH  17  32
ATOM     32  C   UNL     1      -0.823  11.546  18.548  0.00  0.00    +0.000 C 
ATOM     33  C   UNL     1      -0.753  10.026  18.355  0.00  0.00    +0.000 C 
ATOM     34  C   UNL     1      -1.466   9.739  17.048  0.00  0.00    +0.000 C 
ATOM     35  C   UNL     1      -2.465  10.872  16.858  0.00  0.00    +0.000 C 
ATOM     36  C   UNL     1      -2.121  11.968  17.866  0.00  0.00    +0.000 C 
ENDBRANCH  17  32
TORSDOF 4
ENDMDL
MODEL 2
REMARK VINA RESULT:      -8.3      5.637      7.118
REMARK  Name = 
REMARK  4 active torsions:
REMARK  status: ('A' for Active; 'I' for Inactive)
REMARK    1  A    between atoms: O_1  and  C_2
REMARK    2  A    between atoms: C_2  and  C_3
REMARK    3  A    between atoms: N_6  and  C_7
REMARK    4  A    between atoms: N_23  and  C_24
REMARK                            x       y       z     vdW  Elec       q    Type
REMARK                         _______ _______ _______ _____ _____    ______ ____
ROOT
ATOM      1  C   UNL     1       6.767  14.565  18.474  0.00  0.00    +0.000 A 
ATOM      2  C   UNL     1       5.674  13.916  17.903  0.00  0.00    +0.000 A 
ATOM      3  C   UNL     1       4.381  14.399  18.074  0.00  0.00    +0.000 A 
ATOM      4  C   UNL     1       4.143  15.503  18.887  0.00  0.00    +0.000 A 
ATOM      5  N   UNL     1       2.855  15.983  19.130  0.00  0.00    +0.000 N 
ATOM      6  C   UNL     1       1.658  15.274  19.154  0.00  0.00    +0.000 A 
ATOM      7  N   UNL     1       0.554  15.930  19.569  0.00  0.00    +0.000 NA
ATOM      8  C   UNL     1      -0.633  15.266  19.645  0.00  0.00    +0.000 A 
ATOM      9  C   UNL     1      -0.698  13.925  19.279  0.00  0.00    +0.000 A 
ATOM     10  C   UNL     1      -1.659  12.877  19.230  0.00  0.00    +0.000 A 
ATOM     11  C   UNL     1      -2.954  12.654  19.716  0.00  0.00    +0.000 A 
ATOM     12  C   UNL     1      -3.604  11.526  19.233  0.00  0.00    +0.000 A 
ATOM     13  N   UNL     1      -3.140  10.731  18.246  0.00  0.00    +0.000 NA
ATOM     14  C   UNL     1      -1.884  10.926  17.805  0.00  0.00    +0.000 A 
ATOM     15  F   UNL     1      -1.451  10.220  16.755  0.00  0.00    +0.000 F 
ATOM     16  C   UNL     1      -1.095  11.889  18.414  0.00  0.00    +0.000 A 
ATOM     17  N   UNL     1       0.272  12.058  18.522  0.00  0.00    +0.000 N 
ATOM     18  C   UNL     1       0.489  13.380  18.834  0.00  0.00    +0.000 A 
ATOM     19  N   UNL     1       1.670  13.988  18.792  0.00  0.00    +0.000 NA
ATOM     20  N   UNL     1       5.164  16.161  19.452  0.00  0.00    +0.000 NA
ATOM     21  C   UNL     1       6.429  15.678  19.246  0.00  0.00    +0.000 A 
ATOM     22  H   UNL     1       2.831  16.809  19.702  0.00  0.00    +0.000 HD
ENDROOT
BRANCH   1  26
ATOM     23  C   UNL     1      10.455  12.556  18.717  0.00  0.00    +0.000 C 
ATOM     24  C   UNL     1       9.148  11.916  18.230  0.00  0.00    +0.000 C 
ATOM     25  C   UNL     1       8.293  12.910  17.445  0.00  0.00    +0.000 C 
ATOM     26  N   UNL     1       8.050  14.092  18.279  0.00  0.00    +0.000 N 
ATOM     27  C   UNL     1       9.243  14.819  18.708  0.00  0.00    +0.000 C 
ATOM     28  C   UNL     1      10.155  13.862  19.481  0.00  0.00    +0.000 C 
BRANCH  23  29
ATOM     29  C   UNL     1      11.428  12.758  17.550  0.00  0.00    +0.000 C 
BRANCH  29  30
ATOM     30  O   UNL     1      12.315  11.653  17.459  0.00  0.00    +0.000 OA
ATOM     31  H   UNL     1      13.096  11.954  16.964  0.00  0.00    +0.000 HD
ENDBRANCH  29  30
ENDBRANCH  23  29
ENDBRANCH   1  26
BRANCH  17  32
ATOM     32  C   UNL     1       1.219  11.010  18.907  0.00  0.00    +0.000 C 
ATOM     33  C   UNL     1       0.671  10.152  20.054  0.00  0.00    +0.000 C 
ATOM     34  C   UNL     1       1.425   8.839  19.988  0.00  0.00    +0.000 C 
ATOM     35  C   UNL     1       1.850   8.671  18.536  0.00  0.00    +0.000 C 
ATOM     36  C   UNL     1       1.630  10.009  17.832  0.00  0.00    +0.000 C 
ENDBRANCH  17  32
TORSDOF 4
ENDMDL
MODEL 3
REMARK VINA RESULT:      -7.9      3.006      4.725
REMARK  Name = 
REMARK  4 active torsions:
REMARK  status: ('A' for Active; 'I' for Inactive)
REMARK    1  A    between atoms: O_1  and  C_2
REMARK    2  A    between atoms: C_2  and  C_3
REMARK    3  A    between atoms: N_6  and  C_7
REMARK    4  A    between atoms: N_23  and  C_24
REMARK                            x       y       z     vdW  Elec       q    Type
REMARK                         _______ _______ _______ _____ _____    ______ ____
ROOT
ATOM      1  C   UNL     1       0.708   9.150  20.634  0.00  0.00    +0.000 A 
ATOM      2  C   UNL     1      -0.119  10.126  20.082  0.00  0.00    +0.000 A 
ATOM      3  C   UNL     1      -0.664  11.136  20.868  0.00  0.00    +0.000 A 
ATOM      4  C   UNL     1      -0.458  11.146  22.244  0.00  0.00    +0.000 A 
ATOM      5  N   UNL     1      -1.035  12.108  23.075  0.00  0.00    +0.000 N 
ATOM      6  C   UNL     1      -2.235  12.792  22.902  0.00  0.00    +0.000 A 
ATOM      7  N   UNL     1      -2.664  13.563  23.924  0.00  0.00    +0.000 NA
ATOM      8  C   UNL     1      -3.851  14.223  23.814  0.00  0.00    +0.000 A 
ATOM      9  C   UNL     1      -4.599  14.106  22.646  0.00  0.00    +0.000 A 
ATOM     10  C   UNL     1      -5.843  14.561  22.126  0.00  0.00    +0.000 A 
ATOM     11  C   UNL     1      -6.994  15.183  22.627  0.00  0.00    +0.000 A 
ATOM     12  C   UNL     1      -7.905  15.639  21.681  0.00  0.00    +0.000 A 
ATOM     13  N   UNL     1      -7.693  15.649  20.349  0.00  0.00    +0.000 NA
ATOM     14  C   UNL     1      -6.604  15.021  19.869  0.00  0.00    +0.000 A 
ATOM     15  F   UNL     1      -6.325  15.118  18.565  0.00  0.00    +0.000 F 
ATOM     16  C   UNL     1      -5.775  14.340  20.745  0.00  0.00    +0.000 A 
ATOM     17  N   UNL     1      -4.886  13.295  20.583  0.00  0.00    +0.000 N 
ATOM     18  C   UNL     1      -4.033  13.323  21.662  0.00  0.00    +0.000 A 
ATOM     19  N   UNL     1      -2.902  12.632  21.756  0.00  0.00    +0.000 NA
ATOM     20  N   UNL     1       0.333  10.229  22.817  0.00  0.00    +0.000 NA
ATOM     21  C   UNL     1       0.878   9.262  22.016  0.00  0.00    +0.000 A 
ATOM     22  H   UNL     1      -0.771  12.021  24.041  0.00  0.00    +0.000 HD
ENDROOT
BRANCH   1  26
ATOM     23  C   UNL     1       3.285   6.496  18.632  0.00  0.00    +0.000 C 
ATOM     24  C   UNL     1       2.913   6.390  20.116  0.00  0.00    +0.000 C 
ATOM     25  C   UNL     1       1.464   6.808  20.364  0.00  0.00    +0.000 C 
ATOM     26  N   UNL     1       1.264   8.164  19.842  0.00  0.00    +0.000 N 
ATOM     27  C   UNL     1       1.505   8.332  18.411  0.00  0.00    +0.000 C 
ATOM     28  C   UNL     1       2.941   7.901  18.096  0.00  0.00    +0.000 C 
BRANCH  23  29
ATOM     29  C   UNL     1       2.626   5.372  17.824  0.00  0.00    +0.000 C 
BRANCH  29  30
ATOM     30  O   UNL     1       2.985   4.110  18.366  0.00  0.00    +0.000 OA
ATOM     31  H   UNL     1       2.220   3.790  18.876  0.00  0.00    +0.000 HD
ENDBRANCH  29  30
ENDBRANCH  23  29
ENDBRANCH   1  26
BRANCH  17  32
ATOM     32  C   UNL     1      -5.171  12.056  19.858  0.00  0.00    +0.000 C 
ATOM     33  C   UNL     1      -6.571  11.522  20.188  0.00  0.00    +0.000 C 
ATOM     34  C   UNL     1      -6.956  10.621  19.032  0.00  0.00    +0.000 C 
ATOM     35  C   UNL     1      -6.182  11.133  17.825  0.00  0.00    +0.000 C 
ATOM     36  C   UNL     1      -5.122  12.109  18.335  0.00  0.00    +0.000 C 
ENDBRANCH  17  32
TORSDOF 4
ENDMDL
MODEL 4
REMARK VINA RESULT:      -7.8      4.359      9.267
REMARK  Name = 
REMARK  4 active torsions:
REMARK  status: ('A' for Active; 'I' for Inactive)
REMARK    1  A    between atoms: O_1  and  C_2
REMARK    2  A    between atoms: C_2  and  C_3
REMARK    3  A    between atoms: N_6  and  C_7
REMARK    4  A    between atoms: N_23  and  C_24
REMARK                            x       y       z     vdW  Elec       q    Type
REMARK                         _______ _______ _______ _____ _____    ______ ____
ROOT
ATOM      1  C   UNL     1       1.803  12.444  19.183  0.00  0.00    +0.000 A 
ATOM      2  C   UNL     1       1.932  11.281  18.425  0.00  0.00    +0.000 A 
ATOM      3  C   UNL     1       1.570  10.042  18.943  0.00  0.00    +0.000 A 
ATOM      4  C   UNL     1       1.143   9.927  20.261  0.00  0.00    +0.000 A 
ATOM      5  N   UNL     1       0.825   8.695  20.835  0.00  0.00    +0.000 N 
ATOM      6  C   UNL     1       1.346   7.440  20.532  0.00  0.00    +0.000 A 
ATOM      7  N   UNL     1       0.998   6.412  21.334  0.00  0.00    +0.000 NA
ATOM      8  C   UNL     1       1.513   5.172  21.097  0.00  0.00    +0.000 A 
ATOM      9  C   UNL     1       2.378   4.978  20.025  0.00  0.00    +0.000 A 
ATOM     10  C   UNL     1       3.141   3.926  19.447  0.00  0.00    +0.000 A 
ATOM     11  C   UNL     1       3.535   2.631  19.808  0.00  0.00    +0.000 A 
ATOM     12  C   UNL     1       4.126   1.868  18.808  0.00  0.00    +0.000 A 
ATOM     13  N   UNL     1       4.214   2.231  17.512  0.00  0.00    +0.000 NA
ATOM     14  C   UNL     1       3.867   3.487  17.174  0.00  0.00    +0.000 A 
ATOM     15  F   UNL     1       3.846   3.825  15.880  0.00  0.00    +0.000 F 
ATOM     16  C   UNL     1       3.492   4.376  18.168  0.00  0.00    +0.000 A 
ATOM     17  N   UNL     1       3.495   5.755  18.251  0.00  0.00    +0.000 N 
ATOM     18  C   UNL     1       2.622   6.098  19.257  0.00  0.00    +0.000 A 
ATOM     19  N   UNL     1       2.173   7.327  19.488  0.00  0.00    +0.000 NA
ATOM     20  N   UNL     1       0.999  11.019  21.025  0.00  0.00    +0.000 NA
ATOM     21  C   UNL     1       1.339  12.229  20.482  0.00  0.00    +0.000 A 
ATOM     22  H   UNL     1       0.493   8.761  21.782  0.00  0.00    +0.000 HD
ENDROOT
BRANCH   1  26
ATOM     23  C   UNL     1       3.349  16.289  18.461  0.00  0.00    +0.000 C 
ATOM     24  C   UNL     1       4.175  14.997  18.407  0.00  0.00    +0.000 C 
ATOM     25  C   UNL     1       3.360  13.831  17.848  0.00  0.00    +0.000 C 
ATOM     26  N   UNL     1       2.143  13.674  18.653  0.00  0.00    +0.000 N 
ATOM     27  C   UNL     1       1.249  14.829  18.679  0.00  0.00    +0.000 C 
ATOM     28  C   UNL     1       2.023  16.042  19.208  0.00  0.00    +0.000 C 
BRANCH  23  29
ATOM     29  C   UNL     1       3.144  16.862  17.054  0.00  0.00    +0.000 C 
BRANCH  29  30
ATOM     30  O   UNL     1       2.204  17.925  17.095  0.00  0.00    +0.000 OA
ATOM     31  H   UNL     1       2.375  18.426  17.912  0.00  0.00    +0.000 HD
ENDBRANCH  29  30
ENDBRANCH  23  29
ENDBRANCH   1  26
BRANCH  17  32
ATOM     32  C   UNL     1       4.620   6.615  17.880  0.00  0.00    +0.000 C 
ATOM     33  C   UNL     1       5.938   6.104  18.476  0.00  0.00    +0.000 C 
ATOM     34  C   UNL     1       7.039   6.694  17.617  0.00  0.00    +0.000 C 
ATOM     35  C   UNL     1       6.420   6.935  16.248  0.00  0.00    +0.000 C 
ATOM     36  C   UNL     1       4.905   6.790  16.392  0.00  0.00    +0.000 C 
ENDBRANCH  17  32
TORSDOF 4
ENDMDL
MODEL 5
REMARK VINA RESULT:      -7.7      2.823      4.573
REMARK  Name = 
REMARK  4 active torsions:
REMARK  status: ('A' for Active; 'I' for Inactive)
REMARK    1  A    between atoms: O_1  and  C_2
REMARK    2  A    between atoms: C_2  and  C_3
REMARK    3  A    between atoms: N_6  and  C_7
REMARK    4  A    between atoms: N_23  and  C_24
REMARK                            x       y       z     vdW  Elec       q    Type
REMARK                         _______ _______ _______ _____ _____    ______ ____
ROOT
ATOM      1  C   UNL     1       0.998   9.058  20.961  0.00  0.00    +0.000 A 
ATOM      2  C   UNL     1       0.217  10.059  20.386  0.00  0.00    +0.000 A 
ATOM      3  C   UNL     1      -0.467  10.979  21.174  0.00  0.00    +0.000 A 
ATOM      4  C   UNL     1      -0.449  10.869  22.561  0.00  0.00    +0.000 A 
ATOM      5  N   UNL     1      -1.169  11.737  23.384  0.00  0.00    +0.000 N 
ATOM      6  C   UNL     1      -2.360  12.403  23.107  0.00  0.00    +0.000 A 
ATOM      7  N   UNL     1      -2.951  13.067  24.123  0.00  0.00    +0.000 NA
ATOM      8  C   UNL     1      -4.137  13.703  23.908  0.00  0.00    +0.000 A 
ATOM      9  C   UNL     1      -4.716  13.673  22.642  0.00  0.00    +0.000 A 
ATOM     10  C   UNL     1      -5.894  14.141  21.997  0.00  0.00    +0.000 A 
ATOM     11  C   UNL     1      -7.125  14.685  22.386  0.00  0.00    +0.000 A 
ATOM     12  C   UNL     1      -7.917  15.202  21.367  0.00  0.00    +0.000 A 
ATOM     13  N   UNL     1      -7.528  15.338  20.083  0.00  0.00    +0.000 NA
ATOM     14  C   UNL     1      -6.360  14.785  19.704  0.00  0.00    +0.000 A 
ATOM     15  F   UNL     1      -5.912  15.006  18.465  0.00  0.00    +0.000 F 
ATOM     16  C   UNL     1      -5.632  14.048  20.625  0.00  0.00    +0.000 A 
ATOM     17  N   UNL     1      -4.690  13.045  20.497  0.00  0.00    +0.000 N 
ATOM     18  C   UNL     1      -3.992  12.997  21.681  0.00  0.00    +0.000 A 
ATOM     19  N   UNL     1      -2.859  12.330  21.870  0.00  0.00    +0.000 NA
ATOM     20  N   UNL     1       0.292   9.925  23.156  0.00  0.00    +0.000 NA
ATOM     21  C   UNL     1       0.976   9.049  22.357  0.00  0.00    +0.000 A 
ATOM     22  H   UNL     1      -1.034  11.569  24.366  0.00  0.00    +0.000 HD
ENDROOT
BRANCH   1  26
ATOM     23  C   UNL     1       2.174   6.122  18.187  0.00  0.00    +0.000 C 
ATOM     24  C   UNL     1       1.740   7.545  17.813  0.00  0.00    +0.000 C 
ATOM     25  C   UNL     1       2.201   8.566  18.854  0.00  0.00    +0.000 C 
ATOM     26  N   UNL     1       1.694   8.163  20.171  0.00  0.00    +0.000 N 
ATOM     27  C   UNL     1       2.140   6.856  20.647  0.00  0.00    +0.000 C 
ATOM     28  C   UNL     1       1.728   5.790  19.626  0.00  0.00    +0.000 C 
BRANCH  23  29
ATOM     29  C   UNL     1       3.681   5.939  17.974  0.00  0.00    +0.000 C 
BRANCH  29  30
ATOM     30  O   UNL     1       3.924   4.788  17.178  0.00  0.00    +0.000 OA
ATOM     31  H   UNL     1       3.094   4.584  16.713  0.00  0.00    +0.000 HD
ENDBRANCH  29  30
ENDBRANCH  23  29
ENDBRANCH   1  26
BRANCH  17  32
ATOM     32  C   UNL     1      -4.828  11.870  19.636  0.00  0.00    +0.000 C 
ATOM     33  C   UNL     1      -6.282  11.383  19.578  0.00  0.00    +0.000 C 
ATOM     34  C   UNL     1      -6.400  10.578  18.300  0.00  0.00    +0.000 C 
ATOM     35  C   UNL     1      -5.340  11.128  17.356  0.00  0.00    +0.000 C 
ATOM     36  C   UNL     1      -4.407  12.018  18.177  0.00  0.00    +0.000 C 
ENDBRANCH  17  32
TORSDOF 4
ENDMDL
MODEL 6
REMARK VINA RESULT:      -7.5      2.406      3.799
REMARK  Name = 
REMARK  4 active torsions:
REMARK  status: ('A' for Active; 'I' for Inactive)
REMARK    1  A    between atoms: O_1  and  C_2
REMARK    2  A    between atoms: C_2  and  C_3
REMARK    3  A    between atoms: N_6  and  C_7
REMARK    4  A    between atoms: N_23  and  C_24
REMARK                            x       y       z     vdW  Elec       q    Type
REMARK                         _______ _______ _______ _____ _____    ______ ____
ROOT
ATOM      1  C   UNL     1       2.628   6.735  18.113  0.00  0.00    +0.000 A 
ATOM      2  C   UNL     1       1.401   7.370  18.298  0.00  0.00    +0.000 A 
ATOM      3  C   UNL     1       1.267   8.742  18.114  0.00  0.00    +0.000 A 
ATOM      4  C   UNL     1       2.377   9.524  17.815  0.00  0.00    +0.000 A 
ATOM      5  N   UNL     1       2.295  10.911  17.679  0.00  0.00    +0.000 N 
ATOM      6  C   UNL     1       1.413  11.790  18.301  0.00  0.00    +0.000 A 
ATOM      7  N   UNL     1       1.629  13.112  18.132  0.00  0.00    +0.000 NA
ATOM      8  C   UNL     1       0.813  14.010  18.753  0.00  0.00    +0.000 A 
ATOM      9  C   UNL     1      -0.241  13.555  19.539  0.00  0.00    +0.000 A 
ATOM     10  C   UNL     1      -1.272  14.094  20.358  0.00  0.00    +0.000 A 
ATOM     11  C   UNL     1      -1.588  15.341  20.915  0.00  0.00    +0.000 A 
ATOM     12  C   UNL     1      -2.846  15.451  21.496  0.00  0.00    +0.000 A 
ATOM     13  N   UNL     1      -3.809  14.509  21.435  0.00  0.00    +0.000 NA
ATOM     14  C   UNL     1      -3.493  13.302  20.930  0.00  0.00    +0.000 A 
ATOM     15  F   UNL     1      -4.463  12.397  20.764  0.00  0.00    +0.000 F 
ATOM     16  C   UNL     1      -2.184  13.050  20.549  0.00  0.00    +0.000 A 
ATOM     17  N   UNL     1      -1.448  11.889  20.414  0.00  0.00    +0.000 N 
ATOM     18  C   UNL     1      -0.381  12.183  19.598  0.00  0.00    +0.000 A 
ATOM     19  N   UNL     1       0.424  11.283  19.043  0.00  0.00    +0.000 NA
ATOM     20  N   UNL     1       3.575   8.956  17.623  0.00  0.00    +0.000 NA
ATOM     21  C   UNL     1       3.674   7.600  17.786  0.00  0.00    +0.000 A 
ATOM     22  H   UNL     1       3.164  11.347  17.423  0.00  0.00    +0.000 HD
ENDROOT
BRANCH   1  26
ATOM     23  C   UNL     1       2.605   2.554  17.649  0.00  0.00    +0.000 C 
ATOM     24  C   UNL     1       3.607   3.497  16.970  0.00  0.00    +0.000 C 
ATOM     25  C   UNL     1       3.975   4.672  17.876  0.00  0.00    +0.000 C 
ATOM     26  N   UNL     1       2.747   5.368  18.275  0.00  0.00    +0.000 N 
ATOM     27  C   UNL     1       1.777   4.564  19.014  0.00  0.00    +0.000 C 
ATOM     28  C   UNL     1       1.388   3.351  18.163  0.00  0.00    +0.000 C 
BRANCH  23  29
ATOM     29  C   UNL     1       3.288   1.734  18.749  0.00  0.00    +0.000 C 
BRANCH  29  30
ATOM     30  O   UNL     1       4.044   0.680  18.171  0.00  0.00    +0.000 OA
ATOM     31  H   UNL     1       4.833   0.557  18.727  0.00  0.00    +0.000 HD
ENDBRANCH  29  30
ENDBRANCH  23  29
ENDBRANCH   1  26
BRANCH  17  32
ATOM     32  C   UNL     1      -1.386  10.815  21.406  0.00  0.00    +0.000 C 
ATOM     33  C   UNL     1      -0.626   9.595  20.869  0.00  0.00    +0.000 C 
ATOM     34  C   UNL     1      -0.157   8.827  22.088  0.00  0.00    +0.000 C 
ATOM     35  C   UNL     1      -0.031   9.851  23.207  0.00  0.00    +0.000 C 
ATOM     36  C   UNL     1      -0.720  11.133  22.741  0.00  0.00    +0.000 C 
ENDBRANCH  17  32
TORSDOF 4
ENDMDL
MODEL 7
REMARK VINA RESULT:      -7.4      5.815      7.587
REMARK  Name = 
REMARK  4 active torsions:
REMARK  status: ('A' for Active; 'I' for Inactive)
REMARK    1  A    between atoms: O_1  and  C_2
REMARK    2  A    between atoms: C_2  and  C_3
REMARK    3  A    between atoms: N_6  and  C_7
REMARK    4  A    between atoms: N_23  and  C_24
REMARK                            x       y       z     vdW  Elec       q    Type
REMARK                         _______ _______ _______ _____ _____    ______ ____
ROOT
ATOM      1  C   UNL     1       6.153  15.625  18.313  0.00  0.00    +0.000 A 
ATOM      2  C   UNL     1       4.968  14.972  17.979  0.00  0.00    +0.000 A 
ATOM      3  C   UNL     1       3.730  15.516  18.305  0.00  0.00    +0.000 A 
ATOM      4  C   UNL     1       3.651  16.691  19.045  0.00  0.00    +0.000 A 
ATOM      5  N   UNL     1       2.429  17.238  19.442  0.00  0.00    +0.000 N 
ATOM      6  C   UNL     1       1.234  16.578  19.714  0.00  0.00    +0.000 A 
ATOM      7  N   UNL     1       0.226  17.308  20.236  0.00  0.00    +0.000 NA
ATOM      8  C   UNL     1      -0.950  16.697  20.553  0.00  0.00    +0.000 A 
ATOM      9  C   UNL     1      -1.104  15.334  20.321  0.00  0.00    +0.000 A 
ATOM     10  C   UNL     1      -2.086  14.322  20.514  0.00  0.00    +0.000 A 
ATOM     11  C   UNL     1      -3.292  14.189  21.213  0.00  0.00    +0.000 A 
ATOM     12  C   UNL     1      -4.038  13.050  20.937  0.00  0.00    +0.000 A 
ATOM     13  N   UNL     1      -3.755  12.160  19.965  0.00  0.00    +0.000 NA
ATOM     14  C   UNL     1      -2.580  12.270  19.318  0.00  0.00    +0.000 A 
ATOM     15  F   UNL     1      -2.335  11.464  18.280  0.00  0.00    +0.000 F 
ATOM     16  C   UNL     1      -1.681  13.250  19.710  0.00  0.00    +0.000 A 
ATOM     17  N   UNL     1      -0.311  13.376  19.590  0.00  0.00    +0.000 N 
ATOM     18  C   UNL     1      -0.016  14.710  19.746  0.00  0.00    +0.000 A 
ATOM     19  N   UNL     1       1.158  15.267  19.468  0.00  0.00    +0.000 NA
ATOM     20  N   UNL     1       4.763  17.355  19.384  0.00  0.00    +0.000 NA
ATOM     21  C   UNL     1       5.969  16.810  19.028  0.00  0.00    +0.000 A 
ATOM     22  H   UNL     1       2.516  18.109  19.936  0.00  0.00    +0.000 HD
ENDROOT
BRANCH   1  26
ATOM     23  C   UNL     1       9.973  13.863  18.272  0.00  0.00    +0.000 C 
ATOM     24  C   UNL     1       8.667  13.099  18.530  0.00  0.00    +0.000 C 
ATOM     25  C   UNL     1       7.516  13.654  17.691  0.00  0.00    +0.000 C 
ATOM     26  N   UNL     1       7.378  15.089  17.964  0.00  0.00    +0.000 N 
ATOM     27  C   UNL     1       8.548  15.907  17.654  0.00  0.00    +0.000 C 
ATOM     28  C   UNL     1       9.746  15.378  18.449  0.00  0.00    +0.000 C 
BRANCH  23  29
ATOM     29  C   UNL     1      10.551  13.503  16.899  0.00  0.00    +0.000 C 
BRANCH  29  30
ATOM     30  O   UNL     1      11.413  14.538  16.448  0.00  0.00    +0.000 OA
ATOM     31  H   UNL     1      12.264  14.123  16.224  0.00  0.00    +0.000 HD
ENDBRANCH  29  30
ENDBRANCH  23  29
ENDBRANCH   1  26
BRANCH  17  32
ATOM     32  C   UNL     1       0.659  12.329  19.913  0.00  0.00    +0.000 C 
ATOM     33  C   UNL     1       0.264  11.571  21.188  0.00  0.00    +0.000 C 
ATOM     34  C   UNL     1       0.973  10.234  21.113  0.00  0.00    +0.000 C 
ATOM     35  C   UNL     1       1.181   9.950  19.632  0.00  0.00    +0.000 C 
ATOM     36  C   UNL     1       0.890  11.242  18.868  0.00  0.00    +0.000 C 
ENDBRANCH  17  32
TORSDOF 4
ENDMDL
MODEL 8
REMARK VINA RESULT:      -7.4      2.474      3.789
REMARK  Name = 
REMARK  4 active torsions:
REMARK  status: ('A' for Active; 'I' for Inactive)
REMARK    1  A    between atoms: O_1  and  C_2
REMARK    2  A    between atoms: C_2  and  C_3
REMARK    3  A    between atoms: N_6  and  C_7
REMARK    4  A    between atoms: N_23  and  C_24
REMARK                            x       y       z     vdW  Elec       q    Type
REMARK                         _______ _______ _______ _____ _____    ______ ____
ROOT
ATOM      1  C   UNL     1       2.740   6.610  17.997  0.00  0.00    +0.000 A 
ATOM      2  C   UNL     1       1.517   7.246  18.198  0.00  0.00    +0.000 A 
ATOM      3  C   UNL     1       1.389   8.623  18.046  0.00  0.00    +0.000 A 
ATOM      4  C   UNL     1       2.504   9.407  17.767  0.00  0.00    +0.000 A 
ATOM      5  N   UNL     1       2.428  10.797  17.664  0.00  0.00    +0.000 N 
ATOM      6  C   UNL     1       1.550  11.665  18.308  0.00  0.00    +0.000 A 
ATOM      7  N   UNL     1       1.773  12.989  18.171  0.00  0.00    +0.000 NA
ATOM      8  C   UNL     1       0.961  13.875  18.813  0.00  0.00    +0.000 A 
ATOM      9  C   UNL     1      -0.096  13.407  19.588  0.00  0.00    +0.000 A 
ATOM     10  C   UNL     1      -1.125  13.932  20.418  0.00  0.00    +0.000 A 
ATOM     11  C   UNL     1      -1.434  15.166  21.005  0.00  0.00    +0.000 A 
ATOM     12  C   UNL     1      -2.692  15.269  21.588  0.00  0.00    +0.000 A 
ATOM     13  N   UNL     1      -3.659  14.333  21.505  0.00  0.00    +0.000 NA
ATOM     14  C   UNL     1      -3.349  13.137  20.971  0.00  0.00    +0.000 A 
ATOM     15  F   UNL     1      -4.324  12.241  20.782  0.00  0.00    +0.000 F 
ATOM     16  C   UNL     1      -2.042  12.887  20.584  0.00  0.00    +0.000 A 
ATOM     17  N   UNL     1      -1.311  11.726  20.421  0.00  0.00    +0.000 N 
ATOM     18  C   UNL     1      -0.242  12.035  19.613  0.00  0.00    +0.000 A 
ATOM     19  N   UNL     1       0.558  11.145  19.037  0.00  0.00    +0.000 NA
ATOM     20  N   UNL     1       3.698   8.837  17.561  0.00  0.00    +0.000 NA
ATOM     21  C   UNL     1       3.791   7.477  17.692  0.00  0.00    +0.000 A 
ATOM     22  H   UNL     1       3.299  11.234  17.419  0.00  0.00    +0.000 HD
ENDROOT
BRANCH   1  26
ATOM     23  C   UNL     1       2.902   2.642  19.386  0.00  0.00    +0.000 C 
ATOM     24  C   UNL     1       1.609   3.455  19.229  0.00  0.00    +0.000 C 
ATOM     25  C   UNL     1       1.670   4.377  18.011  0.00  0.00    +0.000 C 
ATOM     26  N   UNL     1       2.852   5.238  18.126  0.00  0.00    +0.000 N 
ATOM     27  C   UNL     1       4.137   4.545  18.184  0.00  0.00    +0.000 C 
ATOM     28  C   UNL     1       4.125   3.581  19.375  0.00  0.00    +0.000 C 
BRANCH  23  29
ATOM     29  C   UNL     1       2.985   1.542  18.322  0.00  0.00    +0.000 C 
BRANCH  29  30
ATOM     30  O   UNL     1       4.245   0.890  18.395  0.00  0.00    +0.000 OA
ATOM     31  H   UNL     1       4.090  -0.051  18.198  0.00  0.00    +0.000 HD
ENDBRANCH  29  30
ENDBRANCH  23  29
ENDBRANCH   1  26
BRANCH  17  32
ATOM     32  C   UNL     1      -1.255  10.629  21.387  0.00  0.00    +0.000 C 
ATOM     33  C   UNL     1      -0.386   9.473  20.875  0.00  0.00    +0.000 C 
ATOM     34  C   UNL     1       0.041   8.697  22.105  0.00  0.00    +0.000 C 
ATOM     35  C   UNL     1       0.025   9.692  23.257  0.00  0.00    +0.000 C 
ATOM     36  C   UNL     1      -0.707  10.945  22.775  0.00  0.00    +0.000 C 
ENDBRANCH  17  32
TORSDOF 4
ENDMDL
MODEL 9
REMARK VINA RESULT:      -7.4      5.849      7.436
REMARK  Name = 
REMARK  4 active torsions:
REMARK  status: ('A' for Active; 'I' for Inactive)
REMARK    1  A    between atoms: O_1  and  C_2
REMARK    2  A    between atoms: C_2  and  C_3
REMARK    3  A    between atoms: N_6  and  C_7
REMARK    4  A    between atoms: N_23  and  C_24
REMARK                            x       y       z     vdW  Elec       q    Type
REMARK                         _______ _______ _______ _____ _____    ______ ____
ROOT
ATOM      1  C   UNL     1       6.670  14.927  18.951  0.00  0.00    +0.000 A 
ATOM      2  C   UNL     1       5.628  14.270  18.299  0.00  0.00    +0.000 A 
ATOM      3  C   UNL     1       4.312  14.697  18.437  0.00  0.00    +0.000 A 
ATOM      4  C   UNL     1       3.998  15.745  19.295  0.00  0.00    +0.000 A 
ATOM      5  N   UNL     1       2.683  16.166  19.505  0.00  0.00    +0.000 N 
ATOM      6  C   UNL     1       1.513  15.414  19.439  0.00  0.00    +0.000 A 
ATOM      7  N   UNL     1       0.369  16.007  19.838  0.00  0.00    +0.000 NA
ATOM      8  C   UNL     1      -0.794  15.297  19.825  0.00  0.00    +0.000 A 
ATOM      9  C   UNL     1      -0.792  13.977  19.387  0.00  0.00    +0.000 A 
ATOM     10  C   UNL     1      -1.709  12.900  19.239  0.00  0.00    +0.000 A 
ATOM     11  C   UNL     1      -3.014  12.604  19.654  0.00  0.00    +0.000 A 
ATOM     12  C   UNL     1      -3.601  11.481  19.083  0.00  0.00    +0.000 A 
ATOM     13  N   UNL     1      -3.064  10.759  18.078  0.00  0.00    +0.000 NA
ATOM     14  C   UNL     1      -1.799  11.023  17.704  0.00  0.00    +0.000 A 
ATOM     15  F   UNL     1      -1.295  10.391  16.639  0.00  0.00    +0.000 F 
ATOM     16  C   UNL     1      -1.074  11.978  18.398  0.00  0.00    +0.000 A 
ATOM     17  N   UNL     1       0.280  12.190  18.576  0.00  0.00    +0.000 N 
ATOM     18  C   UNL     1       0.433  13.500  18.966  0.00  0.00    +0.000 A 
ATOM     19  N   UNL     1       1.591  14.151  19.010  0.00  0.00    +0.000 NA
ATOM     20  N   UNL     1       4.968  16.408  19.939  0.00  0.00    +0.000 NA
ATOM     21  C   UNL     1       6.258  15.983  19.766  0.00  0.00    +0.000 A 
ATOM     22  H   UNL     1       2.603  16.958  20.119  0.00  0.00    +0.000 HD
ENDROOT
BRANCH   1  26
ATOM     23  C   UNL     1      10.439  13.801  17.459  0.00  0.00    +0.000 C 
ATOM     24  C   UNL     1       9.929  15.247  17.527  0.00  0.00    +0.000 C 
ATOM     25  C   UNL     1       9.076  15.484  18.773  0.00  0.00    +0.000 C 
ATOM     26  N   UNL     1       7.978  14.510  18.790  0.00  0.00    +0.000 N 
ATOM     27  C   UNL     1       8.379  13.106  18.824  0.00  0.00    +0.000 C 
ATOM     28  C   UNL     1       9.263  12.814  17.607  0.00  0.00    +0.000 C 
BRANCH  23  29
ATOM     29  C   UNL     1      11.548  13.567  18.492  0.00  0.00    +0.000 C 
BRANCH  29  30
ATOM     30  O   UNL     1      12.332  12.444  18.116  0.00  0.00    +0.000 OA
ATOM     31  H   UNL     1      12.402  11.871  18.900  0.00  0.00    +0.000 HD
ENDBRANCH  29  30
ENDBRANCH  23  29
ENDBRANCH   1  26
BRANCH  17  32
ATOM     32  C   UNL     1       1.248  11.157  18.947  0.00  0.00    +0.000 C 
ATOM     33  C   UNL     1       0.661  10.178  19.972  0.00  0.00    +0.000 C 
ATOM     34  C   UNL     1       1.486   8.912  19.857  0.00  0.00    +0.000 C 
ATOM     35  C   UNL     1       2.028   8.890  18.435  0.00  0.00    +0.000 C 
ATOM     36  C   UNL     1       1.792  10.274  17.829  0.00  0.00    +0.000 C 
ENDBRANCH  17  32
TORSDOF 4
ENDMDL
