MODEL 1
REMARK VINA RESULT:      -7.0      0.000      0.000
REMARK  Name = 
REMARK  6 active torsions:
REMARK  status: ('A' for Active; 'I' for Inactive)
REMARK    1  A    between atoms: C_1  and  N_2
REMARK    2  A    between atoms: C_5  and  C_6
REMARK    3  A    between atoms: C_6  and  N_7
REMARK    4  A    between atoms: N_7  and  C_8
REMARK    5  A    between atoms: C_14  and  S_15
REMARK    6  A    between atoms: S_15  and  C_16
REMARK                            x       y       z     vdW  Elec       q    Type
REMARK                         _______ _______ _______ _____ _____    ______ ____
ROOT
ATOM      1  C   UNL     1       4.284   4.777  18.426  0.00  0.00    +0.000 A 
ATOM      2  C   UNL     1       3.985   6.122  18.066  0.00  0.00    +0.000 A 
ATOM      3 BR   UNL     1       4.734   7.122  16.620  0.00  0.00    +0.000 Br
ATOM      4  C   UNL     1       3.022   6.883  18.763  0.00  0.00    +0.000 A 
ATOM      5  C   UNL     1       2.287   6.339  19.800  0.00  0.00    +0.000 A 
ATOM      6  C   UNL     1       2.489   5.012  20.136  0.00  0.00    +0.000 A 
ATOM      7  C   UNL     1       3.449   4.241  19.450  0.00  0.00    +0.000 A 
ENDROOT
BRANCH   7   8
ATOM      8  S   UNL     1       3.600   2.542  19.993  0.00  0.00    +0.000 S 
ATOM      9  C   UNL     1       2.687   2.443  21.507  0.00  0.00    +0.000 C 
ATOM     10  O   UNL     1       2.928   1.726  19.000  0.00  0.00    +0.000 OA
ATOM     11  O   UNL     1       4.995   2.295  20.320  0.00  0.00    +0.000 OA
ENDBRANCH   7   8
BRANCH   1  12
ATOM     12  N   UNL     1       5.197   3.921  17.775  0.00  0.00    +0.000 N 
ATOM     13  H   UNL     1       5.446   3.108  18.353  0.00  0.00    +0.000 HD
BRANCH  12  14
ATOM     14  C   UNL     1       6.469   4.403  17.205  0.00  0.00    +0.000 C 
BRANCH  14  19
ATOM     15  C   UNL     1       6.035   3.382  12.445  0.00  0.00    +0.000 C 
ATOM     16  N   UNL     1       6.473   3.987  13.674  0.00  0.00    +0.000 N 
ATOM     17  C   UNL     1       7.398   4.969  13.824  0.00  0.00    +0.000 A 
ATOM     18  N   UNL     1       7.541   5.239  15.097  0.00  0.00    +0.000 NA
ATOM     19  C   UNL     1       6.648   4.384  15.707  0.00  0.00    +0.000 A 
ATOM     20  N   UNL     1       5.973   3.590  14.861  0.00  0.00    +0.000 NA
ENDBRANCH  14  19
ENDBRANCH  12  14
ENDBRANCH   1  12
TORSDOF 4
ENDMDL
MODEL 2
REMARK VINA RESULT:      -6.9      1.085      1.085
REMARK  Name = 
REMARK  6 active torsions:
REMARK  status: ('A' for Active; 'I' for Inactive)
REMARK    1  A    between atoms: C_1  and  N_2
REMARK    2  A    between atoms: C_5  and  C_6
REMARK    3  A    between atoms: C_6  and  N_7
REMARK    4  A    between atoms: N_7  and  C_8
REMARK    5  A    between atoms: C_14  and  S_15
REMARK    6  A    between atoms: S_15  and  C_16
REMARK                            x       y       z     vdW  Elec       q    Type
REMARK                         _______ _______ _______ _____ _____    ______ ____
ROOT
ATOM      1  C   UNL     1       4.863   4.843  18.224  0.00  0.00    +0.000 A 
ATOM      2  C   UNL     1       4.738   6.224  17.900  0.00  0.00    +0.000 A 
ATOM      3 BR   UNL     1       6.120   7.394  17.288  0.00  0.00    +0.000 Br
ATOM      4  C   UNL     1       3.500   6.897  17.970  0.00  0.00    +0.000 A 
ATOM      5  C   UNL     1       2.336   6.231  18.310  0.00  0.00    +0.000 A 
ATOM      6  C   UNL     1       2.395   4.871  18.559  0.00  0.00    +0.000 A 
ATOM      7  C   UNL     1       3.626   4.187  18.495  0.00  0.00    +0.000 A 
ENDROOT
BRANCH   7   8
ATOM      8  S   UNL     1       3.548   2.433  18.841  0.00  0.00    +0.000 S 
ATOM      9  C   UNL     1       1.867   2.109  19.290  0.00  0.00    +0.000 C 
ATOM     10  O   UNL     1       3.828   1.749  17.593  0.00  0.00    +0.000 OA
ATOM     11  O   UNL     1       4.362   2.169  20.017  0.00  0.00    +0.000 OA
ENDBRANCH   7   8
BRANCH   1  12
ATOM     12  N   UNL     1       6.041   4.071  18.151  0.00  0.00    +0.000 N 
ATOM     13  H   UNL     1       6.452   3.902  19.079  0.00  0.00    +0.000 HD
BRANCH  12  14
ATOM     14  C   UNL     1       7.174   4.429  17.278  0.00  0.00    +0.000 C 
BRANCH  14  19
ATOM     15  C   UNL     1       5.579   3.372  12.781  0.00  0.00    +0.000 C 
ATOM     16  N   UNL     1       6.305   3.986  13.858  0.00  0.00    +0.000 N 
ATOM     17  C   UNL     1       7.237   4.970  13.768  0.00  0.00    +0.000 A 
ATOM     18  N   UNL     1       7.690   5.250  14.964  0.00  0.00    +0.000 NA
ATOM     19  C   UNL     1       6.977   4.399  15.782  0.00  0.00    +0.000 A 
ATOM     20  N   UNL     1       6.115   3.599  15.135  0.00  0.00    +0.000 NA
ENDBRANCH  14  19
ENDBRANCH  12  14
ENDBRANCH   1  12
TORSDOF 4
ENDMDL
MODEL 3
REMARK VINA RESULT:      -6.9      0.549      1.112
REMARK  Name = 
REMARK  6 active torsions:
REMARK  status: ('A' for Active; 'I' for Inactive)
REMARK    1  A    between atoms: C_1  and  N_2
REMARK    2  A    between atoms: C_5  and  C_6
REMARK    3  A    between atoms: C_6  and  N_7
REMARK    4  A    between atoms: N_7  and  C_8
REMARK    5  A    between atoms: C_14  and  S_15
REMARK    6  A    between atoms: S_15  and  C_16
REMARK                            x       y       z     vdW  Elec       q    Type
REMARK                         _______ _______ _______ _____ _____    ______ ____
ROOT
ATOM      1  C   UNL     1       4.219   4.780  18.381  0.00  0.00    +0.000 A 
ATOM      2  C   UNL     1       3.919   6.126  18.027  0.00  0.00    +0.000 A 
ATOM      3 BR   UNL     1       4.622   7.115  16.550  0.00  0.00    +0.000 Br
ATOM      4  C   UNL     1       2.990   6.899  18.756  0.00  0.00    +0.000 A 
ATOM      5  C   UNL     1       2.288   6.365  19.822  0.00  0.00    +0.000 A 
ATOM      6  C   UNL     1       2.491   5.037  20.156  0.00  0.00    +0.000 A 
ATOM      7  C   UNL     1       3.418   4.255  19.437  0.00  0.00    +0.000 A 
ENDROOT
BRANCH   7   8
ATOM      8  S   UNL     1       3.574   2.557  19.981  0.00  0.00    +0.000 S 
ATOM      9  C   UNL     1       2.656   2.453  21.490  0.00  0.00    +0.000 C 
ATOM     10  O   UNL     1       2.910   1.738  18.984  0.00  0.00    +0.000 OA
ATOM     11  O   UNL     1       4.969   2.316  20.312  0.00  0.00    +0.000 OA
ENDBRANCH   7   8
BRANCH   1  12
ATOM     12  N   UNL     1       5.100   3.914  17.700  0.00  0.00    +0.000 N 
ATOM     13  H   UNL     1       5.277   3.048  18.226  0.00  0.00    +0.000 HD
BRANCH  12  14
ATOM     14  C   UNL     1       6.419   4.350  17.205  0.00  0.00    +0.000 C 
BRANCH  14  19
ATOM     15  C   UNL     1       8.143   5.550  12.792  0.00  0.00    +0.000 C 
ATOM     16  N   UNL     1       7.367   4.921  13.826  0.00  0.00    +0.000 N 
ATOM     17  C   UNL     1       6.387   3.994  13.671  0.00  0.00    +0.000 A 
ATOM     18  N   UNL     1       5.900   3.678  14.845  0.00  0.00    +0.000 NA
ATOM     19  C   UNL     1       6.642   4.446  15.716  0.00  0.00    +0.000 A 
ATOM     20  N   UNL     1       7.556   5.232  15.123  0.00  0.00    +0.000 NA
ENDBRANCH  14  19
ENDBRANCH  12  14
ENDBRANCH   1  12
TORSDOF 4
ENDMDL
MODEL 4
REMARK VINA RESULT:      -6.9      0.861      1.040
REMARK  Name = 
REMARK  6 active torsions:
REMARK  status: ('A' for Active; 'I' for Inactive)
REMARK    1  A    between atoms: C_1  and  N_2
REMARK    2  A    between atoms: C_5  and  C_6
REMARK    3  A    between atoms: C_6  and  N_7
REMARK    4  A    between atoms: N_7  and  C_8
REMARK    5  A    between atoms: C_14  and  S_15
REMARK    6  A    between atoms: S_15  and  C_16
REMARK                            x       y       z     vdW  Elec       q    Type
REMARK                         _______ _______ _______ _____ _____    ______ ____
ROOT
ATOM      1  C   UNL     1       4.344   4.846  18.361  0.00  0.00    +0.000 A 
ATOM      2  C   UNL     1       4.028   6.166  17.933  0.00  0.00    +0.000 A 
ATOM      3 BR   UNL     1       4.773   7.105  16.443  0.00  0.00    +0.000 Br
ATOM      4  C   UNL     1       3.050   6.947  18.585  0.00  0.00    +0.000 A 
ATOM      5  C   UNL     1       2.315   6.444  19.643  0.00  0.00    +0.000 A 
ATOM      6  C   UNL     1       2.534   5.138  20.046  0.00  0.00    +0.000 A 
ATOM      7  C   UNL     1       3.510   4.348  19.405  0.00  0.00    +0.000 A 
ENDROOT
BRANCH   7   8
ATOM      8  S   UNL     1       3.682   2.681  20.033  0.00  0.00    +0.000 S 
ATOM      9  C   UNL     1       3.015   1.628  18.777  0.00  0.00    +0.000 C 
ATOM     10  O   UNL     1       5.106   2.421  20.139  0.00  0.00    +0.000 OA
ATOM     11  O   UNL     1       2.827   2.548  21.201  0.00  0.00    +0.000 OA
ENDBRANCH   7   8
BRANCH   1  12
ATOM     12  N   UNL     1       5.275   3.973  17.759  0.00  0.00    +0.000 N 
ATOM     13  H   UNL     1       5.538   3.198  18.382  0.00  0.00    +0.000 HD
BRANCH  12  14
ATOM     14  C   UNL     1       6.538   4.446  17.163  0.00  0.00    +0.000 C 
BRANCH  14  19
ATOM     15  C   UNL     1       5.984   3.420  12.417  0.00  0.00    +0.000 C 
ATOM     16  N   UNL     1       6.467   4.011  13.635  0.00  0.00    +0.000 N 
ATOM     17  C   UNL     1       7.438   4.951  13.765  0.00  0.00    +0.000 A 
ATOM     18  N   UNL     1       7.613   5.221  15.034  0.00  0.00    +0.000 NA
ATOM     19  C   UNL     1       6.693   4.411  15.663  0.00  0.00    +0.000 A 
ATOM     20  N   UNL     1       5.968   3.644  14.832  0.00  0.00    +0.000 NA
ENDBRANCH  14  19
ENDBRANCH  12  14
ENDBRANCH   1  12
TORSDOF 4
ENDMDL
MODEL 5
REMARK VINA RESULT:      -6.7      4.054      5.590
REMARK  Name = 
REMARK  6 active torsions:
REMARK  status: ('A' for Active; 'I' for Inactive)
REMARK    1  A    between atoms: C_1  and  N_2
REMARK    2  A    between atoms: C_5  and  C_6
REMARK    3  A    between atoms: C_6  and  N_7
REMARK    4  A    between atoms: N_7  and  C_8
REMARK    5  A    between atoms: C_14  and  S_15
REMARK    6  A    between atoms: S_15  and  C_16
REMARK                            x       y       z     vdW  Elec       q    Type
REMARK                         _______ _______ _______ _____ _____    ______ ____
ROOT
ATOM      1  C   UNL     1       2.214   7.218  19.757  0.00  0.00    +0.000 A 
ATOM      2  C   UNL     1       1.397   8.343  20.061  0.00  0.00    +0.000 A 
ATOM      3 BR   UNL     1       0.493   8.701  21.707  0.00  0.00    +0.000 Br
ATOM      4  C   UNL     1       1.188   9.385  19.132  0.00  0.00    +0.000 A 
ATOM      5  C   UNL     1       1.812   9.385  17.898  0.00  0.00    +0.000 A 
ATOM      6  C   UNL     1       2.675   8.350  17.587  0.00  0.00    +0.000 A 
ATOM      7  C   UNL     1       2.891   7.301  18.505  0.00  0.00    +0.000 A 
ENDROOT
BRANCH   7   8
ATOM      8  S   UNL     1       4.033   6.033  17.966  0.00  0.00    +0.000 S 
ATOM      9  C   UNL     1       5.063   6.803  16.751  0.00  0.00    +0.000 C 
ATOM     10  O   UNL     1       4.854   5.697  19.115  0.00  0.00    +0.000 OA
ATOM     11  O   UNL     1       3.271   4.998  17.286  0.00  0.00    +0.000 OA
ENDBRANCH   7   8
BRANCH   1  12
ATOM     12  N   UNL     1       2.516   6.146  20.623  0.00  0.00    +0.000 N 
ATOM     13  H   UNL     1       3.443   5.743  20.434  0.00  0.00    +0.000 HD
BRANCH  12  14
ATOM     14  C   UNL     1       1.614   4.992  20.803  0.00  0.00    +0.000 C 
BRANCH  14  19
ATOM     15  C   UNL     1       3.674   1.083  18.715  0.00  0.00    +0.000 C 
ATOM     16  N   UNL     1       2.697   2.065  19.100  0.00  0.00    +0.000 N 
ATOM     17  C   UNL     1       1.391   2.114  18.735  0.00  0.00    +0.000 A 
ATOM     18  N   UNL     1       0.830   3.169  19.269  0.00  0.00    +0.000 NA
ATOM     19  C   UNL     1       1.855   3.746  19.987  0.00  0.00    +0.000 A 
ATOM     20  N   UNL     1       3.027   3.096  19.903  0.00  0.00    +0.000 NA
ENDBRANCH  14  19
ENDBRANCH  12  14
ENDBRANCH   1  12
TORSDOF 4
ENDMDL
MODEL 6
REMARK VINA RESULT:      -6.7      1.272      1.543
REMARK  Name = 
REMARK  6 active torsions:
REMARK  status: ('A' for Active; 'I' for Inactive)
REMARK    1  A    between atoms: C_1  and  N_2
REMARK    2  A    between atoms: C_5  and  C_6
REMARK    3  A    between atoms: C_6  and  N_7
REMARK    4  A    between atoms: N_7  and  C_8
REMARK    5  A    between atoms: C_14  and  S_15
REMARK    6  A    between atoms: S_15  and  C_16
REMARK                            x       y       z     vdW  Elec       q    Type
REMARK                         _______ _______ _______ _____ _____    ______ ____
ROOT
ATOM      1  C   UNL     1       4.939   4.996  18.244  0.00  0.00    +0.000 A 
ATOM      2  C   UNL     1       4.845   6.372  17.891  0.00  0.00    +0.000 A 
ATOM      3 BR   UNL     1       6.272   7.529  17.367  0.00  0.00    +0.000 Br
ATOM      4  C   UNL     1       3.607   7.050  17.859  0.00  0.00    +0.000 A 
ATOM      5  C   UNL     1       2.418   6.392  18.121  0.00  0.00    +0.000 A 
ATOM      6  C   UNL     1       2.454   5.036  18.394  0.00  0.00    +0.000 A 
ATOM      7  C   UNL     1       3.683   4.347  18.432  0.00  0.00    +0.000 A 
ENDROOT
BRANCH   7   8
ATOM      8  S   UNL     1       3.573   2.599  18.798  0.00  0.00    +0.000 S 
ATOM      9  C   UNL     1       1.889   2.313  19.261  0.00  0.00    +0.000 C 
ATOM     10  O   UNL     1       3.831   1.896  17.555  0.00  0.00    +0.000 OA
ATOM     11  O   UNL     1       4.390   2.331  19.971  0.00  0.00    +0.000 OA
ENDBRANCH   7   8
BRANCH   1  12
ATOM     12  N   UNL     1       6.117   4.220  18.271  0.00  0.00    +0.000 N 
ATOM     13  H   UNL     1       6.524   4.166  19.214  0.00  0.00    +0.000 HD
BRANCH  12  14
ATOM     14  C   UNL     1       7.253   4.468  17.364  0.00  0.00    +0.000 C 
BRANCH  14  19
ATOM     15  C   UNL     1       7.550   5.244  12.548  0.00  0.00    +0.000 C 
ATOM     16  N   UNL     1       7.134   4.717  13.820  0.00  0.00    +0.000 N 
ATOM     17  C   UNL     1       6.175   3.784  14.051  0.00  0.00    +0.000 A 
ATOM     18  N   UNL     1       6.069   3.581  15.339  0.00  0.00    +0.000 NA
ATOM     19  C   UNL     1       7.019   4.424  15.875  0.00  0.00    +0.000 A 
ATOM     20  N   UNL     1       7.695   5.147  14.967  0.00  0.00    +0.000 NA
ENDBRANCH  14  19
ENDBRANCH  12  14
ENDBRANCH   1  12
TORSDOF 4
ENDMDL
MODEL 7
REMARK VINA RESULT:      -6.7      2.486      3.131
REMARK  Name = 
REMARK  6 active torsions:
REMARK  status: ('A' for Active; 'I' for Inactive)
REMARK    1  A    between atoms: C_1  and  N_2
REMARK    2  A    between atoms: C_5  and  C_6
REMARK    3  A    between atoms: C_6  and  N_7
REMARK    4  A    between atoms: N_7  and  C_8
REMARK    5  A    between atoms: C_14  and  S_15
REMARK    6  A    between atoms: S_15  and  C_16
REMARK                            x       y       z     vdW  Elec       q    Type
REMARK                         _______ _______ _______ _____ _____    ______ ____
ROOT
ATOM      1  C   UNL     1       2.937   5.073  18.276  0.00  0.00    +0.000 A 
ATOM      2  C   UNL     1       2.773   6.440  18.641  0.00  0.00    +0.000 A 
ATOM      3 BR   UNL     1       3.240   7.974  17.602  0.00  0.00    +0.000 Br
ATOM      4  C   UNL     1       2.183   6.819  19.866  0.00  0.00    +0.000 A 
ATOM      5  C   UNL     1       1.688   5.876  20.749  0.00  0.00    +0.000 A 
ATOM      6  C   UNL     1       1.756   4.538  20.403  0.00  0.00    +0.000 A 
ATOM      7  C   UNL     1       2.345   4.146  19.184  0.00  0.00    +0.000 A 
ENDROOT
BRANCH   7   8
ATOM      8  S   UNL     1       2.363   2.383  18.872  0.00  0.00    +0.000 S 
ATOM      9  C   UNL     1       4.005   1.847  19.258  0.00  0.00    +0.000 C 
ATOM     10  O   UNL     1       1.450   1.782  19.826  0.00  0.00    +0.000 OA
ATOM     11  O   UNL     1       2.170   2.176  17.446  0.00  0.00    +0.000 OA
ENDBRANCH   7   8
BRANCH   1  12
ATOM     12  N   UNL     1       3.478   4.590  17.067  0.00  0.00    +0.000 N 
ATOM     13  H   UNL     1       2.954   3.784  16.701  0.00  0.00    +0.000 HD
BRANCH  12  14
ATOM     14  C   UNL     1       4.902   4.233  16.921  0.00  0.00    +0.000 C 
BRANCH  14  19
ATOM     15  C   UNL     1       7.942   7.955  17.806  0.00  0.00    +0.000 C 
ATOM     16  N   UNL     1       7.234   6.712  17.948  0.00  0.00    +0.000 N 
ATOM     17  C   UNL     1       7.355   5.805  18.951  0.00  0.00    +0.000 A 
ATOM     18  N   UNL     1       6.562   4.791  18.717  0.00  0.00    +0.000 NA
ATOM     19  C   UNL     1       5.945   5.135  17.533  0.00  0.00    +0.000 A 
ATOM     20  N   UNL     1       6.338   6.313  17.023  0.00  0.00    +0.000 NA
ENDBRANCH  14  19
ENDBRANCH  12  14
ENDBRANCH   1  12
TORSDOF 4
ENDMDL
MODEL 8
REMARK VINA RESULT:      -6.7      2.421      3.014
REMARK  Name = 
REMARK  6 active torsions:
REMARK  status: ('A' for Active; 'I' for Inactive)
REMARK    1  A    between atoms: C_1  and  N_2
REMARK    2  A    between atoms: C_5  and  C_6
REMARK    3  A    between atoms: C_6  and  N_7
REMARK    4  A    between atoms: N_7  and  C_8
REMARK    5  A    between atoms: C_14  and  S_15
REMARK    6  A    between atoms: S_15  and  C_16
REMARK                            x       y       z     vdW  Elec       q    Type
REMARK                         _______ _______ _______ _____ _____    ______ ____
ROOT
ATOM      1  C   UNL     1       2.740   5.264  18.619  0.00  0.00    +0.000 A 
ATOM      2  C   UNL     1       2.662   6.685  18.658  0.00  0.00    +0.000 A 
ATOM      3 BR   UNL     1       3.126   7.903  17.260  0.00  0.00    +0.000 Br
ATOM      4  C   UNL     1       2.173   7.374  19.788  0.00  0.00    +0.000 A 
ATOM      5  C   UNL     1       1.698   6.695  20.896  0.00  0.00    +0.000 A 
ATOM      6  C   UNL     1       1.684   5.312  20.874  0.00  0.00    +0.000 A 
ATOM      7  C   UNL     1       2.171   4.611  19.753  0.00  0.00    +0.000 A 
ENDROOT
BRANCH   7   8
ATOM      8  S   UNL     1       2.089   2.827  19.867  0.00  0.00    +0.000 S 
ATOM      9  C   UNL     1       1.422   2.482  21.470  0.00  0.00    +0.000 C 
ATOM     10  O   UNL     1       1.132   2.389  18.869  0.00  0.00    +0.000 OA
ATOM     11  O   UNL     1       3.449   2.311  19.851  0.00  0.00    +0.000 OA
ENDBRANCH   7   8
BRANCH   1  12
ATOM     12  N   UNL     1       3.177   4.480  17.531  0.00  0.00    +0.000 N 
ATOM     13  H   UNL     1       2.603   3.635  17.406  0.00  0.00    +0.000 HD
BRANCH  12  14
ATOM     14  C   UNL     1       4.574   4.032  17.384  0.00  0.00    +0.000 C 
BRANCH  14  19
ATOM     15  C   UNL     1       7.819   7.671  17.734  0.00  0.00    +0.000 C 
ATOM     16  N   UNL     1       7.060   6.489  18.040  0.00  0.00    +0.000 N 
ATOM     17  C   UNL     1       7.181   5.693  19.134  0.00  0.00    +0.000 A 
ATOM     18  N   UNL     1       6.332   4.701  19.045  0.00  0.00    +0.000 NA
ATOM     19  C   UNL     1       5.683   4.942  17.853  0.00  0.00    +0.000 A 
ATOM     20  N   UNL     1       6.109   6.036  17.200  0.00  0.00    +0.000 NA
ENDBRANCH  14  19
ENDBRANCH  12  14
ENDBRANCH   1  12
TORSDOF 4
ENDMDL
MODEL 9
REMARK VINA RESULT:      -6.6      5.179      6.480
REMARK  Name = 
REMARK  6 active torsions:
REMARK  status: ('A' for Active; 'I' for Inactive)
REMARK    1  A    between atoms: C_1  and  N_2
REMARK    2  A    between atoms: C_5  and  C_6
REMARK    3  A    between atoms: C_6  and  N_7
REMARK    4  A    between atoms: N_7  and  C_8
REMARK    5  A    between atoms: C_14  and  S_15
REMARK    6  A    between atoms: S_15  and  C_16
REMARK                            x       y       z     vdW  Elec       q    Type
REMARK                         _______ _______ _______ _____ _____    ______ ____
ROOT
ATOM      1  C   UNL     1       1.921   7.913  19.917  0.00  0.00    +0.000 A 
ATOM      2  C   UNL     1       2.423   7.899  18.584  0.00  0.00    +0.000 A 
ATOM      3 BR   UNL     1       3.406   6.496  17.737  0.00  0.00    +0.000 Br
ATOM      4  C   UNL     1       2.200   8.971  17.693  0.00  0.00    +0.000 A 
ATOM      5  C   UNL     1       1.439  10.066  18.059  0.00  0.00    +0.000 A 
ATOM      6  C   UNL     1       0.867  10.089  19.319  0.00  0.00    +0.000 A 
ATOM      7  C   UNL     1       1.083   9.027  20.220  0.00  0.00    +0.000 A 
ENDROOT
BRANCH   7   8
ATOM      8  S   UNL     1       0.282   9.195  21.811  0.00  0.00    +0.000 S 
ATOM      9  C   UNL     1      -0.542  10.760  21.767  0.00  0.00    +0.000 C 
ATOM     10  O   UNL     1      -0.723   8.151  21.884  0.00  0.00    +0.000 OA
ATOM     11  O   UNL     1       1.316   9.285  22.830  0.00  0.00    +0.000 OA
ENDBRANCH   7   8
BRANCH   1  12
ATOM     12  N   UNL     1       2.056   6.883  20.871  0.00  0.00    +0.000 N 
ATOM     13  H   UNL     1       3.034   6.590  20.990  0.00  0.00    +0.000 HD
BRANCH  12  14
ATOM     14  C   UNL     1       1.274   5.634  20.807  0.00  0.00    +0.000 C 
BRANCH  14  19
ATOM     15  C   UNL     1       3.833   1.788  19.212  0.00  0.00    +0.000 C 
ATOM     16  N   UNL     1       3.115   2.679  20.081  0.00  0.00    +0.000 N 
ATOM     17  C   UNL     1       2.867   2.517  21.406  0.00  0.00    +0.000 A 
ATOM     18  N   UNL     1       2.164   3.530  21.844  0.00  0.00    +0.000 NA
ATOM     19  C   UNL     1       2.010   4.319  20.724  0.00  0.00    +0.000 A 
ATOM     20  N   UNL     1       2.579   3.825  19.613  0.00  0.00    +0.000 NA
ENDBRANCH  14  19
ENDBRANCH  12  14
ENDBRANCH   1  12
TORSDOF 4
ENDMDL
