MODEL 1
REMARK VINA RESULT:      -6.8      0.000      0.000
REMARK  Name = 
REMARK  9 active torsions:
REMARK  status: ('A' for Active; 'I' for Inactive)
REMARK    1  A    between atoms: C_1  and  O_2
REMARK    2  A    between atoms: O_2  and  C_3
REMARK    3  A    between atoms: C_6  and  N_7
REMARK    4  A    between atoms: C_8  and  C_10
REMARK    5  A    between atoms: C_14  and  C_15
REMARK    6  A    between atoms: C_16  and  C_17
REMARK    7  A    between atoms: C_17  and  C_18
REMARK    8  A    between atoms: C_17  and  O_19
REMARK    9  A    between atoms: C_22  and  N_23
REMARK                            x       y       z     vdW  Elec       q    Type
REMARK                         _______ _______ _______ _____ _____    ______ ____
ROOT
ATOM      1  C   UNL     1       1.979   8.116  19.164  0.00  0.00    +0.000 A 
ATOM      2  S   UNL     1       1.260   7.477  20.579  0.00  0.00    +0.000 S 
ATOM      3  C   UNL     1       1.966   5.943  20.325  0.00  0.00    +0.000 A 
ATOM      4  N   UNL     1       1.723   4.917  21.161  0.00  0.00    +0.000 NA
ATOM      5  C   UNL     1       2.337   3.747  20.838  0.00  0.00    +0.000 A 
ATOM      6  C   UNL     1       2.057   2.636  21.812  0.00  0.00    +0.000 C 
ATOM      7  C   UNL     1       3.172   3.565  19.722  0.00  0.00    +0.000 A 
ATOM      8  C   UNL     1       3.374   4.675  18.892  0.00  0.00    +0.000 A 
ATOM      9  C   UNL     1       2.766   5.904  19.196  0.00  0.00    +0.000 A 
ATOM     10  C   UNL     1       2.788   7.172  18.553  0.00  0.00    +0.000 A 
ENDROOT
BRANCH   1  12
ATOM     11  N   UNL     1       1.250  10.401  19.576  0.00  0.00    +0.000 N 
ATOM     12  C   UNL     1       1.750   9.468  18.672  0.00  0.00    +0.000 C 
ATOM     13  O   UNL     1       2.001   9.743  17.502  0.00  0.00    +0.000 OA
ATOM     14  H   UNL     1       1.206  10.127  20.548  0.00  0.00    +0.000 HD
BRANCH  11  18
ATOM     15  C   UNL     1       0.180  14.403  18.686  0.00  0.00    +0.000 A 
ATOM     16  C   UNL     1       1.464  14.113  19.131  0.00  0.00    +0.000 A 
ATOM     17  C   UNL     1       1.837  12.795  19.393  0.00  0.00    +0.000 A 
ATOM     18  C   UNL     1       0.927  11.741  19.247  0.00  0.00    +0.000 A 
ATOM     19  C   UNL     1      -0.353  12.034  18.773  0.00  0.00    +0.000 A 
ATOM     20  C   UNL     1      -0.727  13.361  18.508  0.00  0.00    +0.000 A 
BRANCH  15  22
ATOM     21  C   UNL     1      -0.806  16.362  19.542  0.00  0.00    +0.000 C 
ATOM     22  O   UNL     1      -0.076  15.732  18.499  0.00  0.00    +0.000 OA
ENDBRANCH  15  22
ENDBRANCH  11  18
ENDBRANCH   1  12
BRANCH  10  23
ATOM     23  N   UNL     1       3.501   7.419  17.431  0.00  0.00    +0.000 N 
ATOM     24  H   UNL     1       4.412   7.861  17.417  0.00  0.00    +0.000 HD
ATOM     25  H   UNL     1       3.221   6.991  16.542  0.00  0.00    +0.000 HD
ENDBRANCH  10  23
BRANCH   7  26
ATOM     26  C   UNL     1       3.829   2.247  19.364  0.00  0.00    +0.000 C 
ATOM     27  C   UNL     1       3.535   1.805  17.932  0.00  0.00    +0.000 C 
BRANCH  26  28
ATOM     28  O   UNL     1       5.248   2.348  19.532  0.00  0.00    +0.000 OA
ATOM     29  H   UNL     1       5.436   2.449  20.481  0.00  0.00    +0.000 HD
ENDBRANCH  26  28
ENDBRANCH   7  26
TORSDOF 6
ENDMDL
MODEL 2
REMARK VINA RESULT:      -6.6      2.749      8.948
REMARK  Name = 
REMARK  9 active torsions:
REMARK  status: ('A' for Active; 'I' for Inactive)
REMARK    1  A    between atoms: C_1  and  O_2
REMARK    2  A    between atoms: O_2  and  C_3
REMARK    3  A    between atoms: C_6  and  N_7
REMARK    4  A    between atoms: C_8  and  C_10
REMARK    5  A    between atoms: C_14  and  C_15
REMARK    6  A    between atoms: C_16  and  C_17
REMARK    7  A    between atoms: C_17  and  C_18
REMARK    8  A    between atoms: C_17  and  O_19
REMARK    9  A    between atoms: C_22  and  N_23
REMARK                            x       y       z     vdW  Elec       q    Type
REMARK                         _______ _______ _______ _____ _____    ______ ____
ROOT
ATOM      1  C   UNL     1       1.006   9.262  19.233  0.00  0.00    +0.000 A 
ATOM      2  S   UNL     1       1.132   9.342  20.937  0.00  0.00    +0.000 S 
ATOM      3  C   UNL     1      -0.098  10.522  21.039  0.00  0.00    +0.000 A 
ATOM      4  N   UNL     1      -0.458  11.054  22.222  0.00  0.00    +0.000 NA
ATOM      5  C   UNL     1      -1.440  11.992  22.161  0.00  0.00    +0.000 A 
ATOM      6  C   UNL     1      -1.828  12.540  23.506  0.00  0.00    +0.000 C 
ATOM      7  C   UNL     1      -2.066  12.419  20.977  0.00  0.00    +0.000 A 
ATOM      8  C   UNL     1      -1.636  11.827  19.782  0.00  0.00    +0.000 A 
ATOM      9  C   UNL     1      -0.630  10.846  19.803  0.00  0.00    +0.000 A 
ATOM     10  C   UNL     1      -0.004  10.089  18.774  0.00  0.00    +0.000 A 
ENDROOT
BRANCH   1  12
ATOM     11  N   UNL     1       2.212   7.179  18.867  0.00  0.00    +0.000 N 
ATOM     12  C   UNL     1       1.865   8.440  18.390  0.00  0.00    +0.000 C 
ATOM     13  O   UNL     1       2.246   8.869  17.305  0.00  0.00    +0.000 OA
ATOM     14  H   UNL     1       1.741   6.854  19.700  0.00  0.00    +0.000 HD
BRANCH  11  18
ATOM     15  C   UNL     1       4.696   4.470  16.760  0.00  0.00    +0.000 A 
ATOM     16  C   UNL     1       5.152   5.754  17.038  0.00  0.00    +0.000 A 
ATOM     17  C   UNL     1       4.356   6.641  17.762  0.00  0.00    +0.000 A 
ATOM     18  C   UNL     1       3.075   6.279  18.196  0.00  0.00    +0.000 A 
ATOM     19  C   UNL     1       2.633   4.980  17.939  0.00  0.00    +0.000 A 
ATOM     20  C   UNL     1       3.435   4.086  17.211  0.00  0.00    +0.000 A 
BRANCH  15  22
ATOM     21  C   UNL     1       6.250   4.402  14.993  0.00  0.00    +0.000 C 
ATOM     22  O   UNL     1       5.550   3.707  16.014  0.00  0.00    +0.000 OA
ENDBRANCH  15  22
ENDBRANCH  11  18
ENDBRANCH   1  12
BRANCH  10  23
ATOM     23  N   UNL     1      -0.340  10.199  17.469  0.00  0.00    +0.000 N 
ATOM     24  H   UNL     1      -1.285  10.331  17.129  0.00  0.00    +0.000 HD
ATOM     25  H   UNL     1       0.389  10.340  16.762  0.00  0.00    +0.000 HD
ENDBRANCH  10  23
BRANCH   7  26
ATOM     26  C   UNL     1      -3.143  13.484  20.925  0.00  0.00    +0.000 C 
ATOM     27  C   UNL     1      -2.577  14.901  20.889  0.00  0.00    +0.000 C 
BRANCH  26  28
ATOM     28  O   UNL     1      -3.968  13.288  19.770  0.00  0.00    +0.000 OA
ATOM     29  H   UNL     1      -3.576  13.782  19.028  0.00  0.00    +0.000 HD
ENDBRANCH  26  28
ENDBRANCH   7  26
TORSDOF 6
ENDMDL
MODEL 3
REMARK VINA RESULT:      -6.6      2.734      2.978
REMARK  Name = 
REMARK  9 active torsions:
REMARK  status: ('A' for Active; 'I' for Inactive)
REMARK    1  A    between atoms: C_1  and  O_2
REMARK    2  A    between atoms: O_2  and  C_3
REMARK    3  A    between atoms: C_6  and  N_7
REMARK    4  A    between atoms: C_8  and  C_10
REMARK    5  A    between atoms: C_14  and  C_15
REMARK    6  A    between atoms: C_16  and  C_17
REMARK    7  A    between atoms: C_17  and  C_18
REMARK    8  A    between atoms: C_17  and  O_19
REMARK    9  A    between atoms: C_22  and  N_23
REMARK                            x       y       z     vdW  Elec       q    Type
REMARK                         _______ _______ _______ _____ _____    ______ ____
ROOT
ATOM      1  C   UNL     1       1.702   8.075  19.717  0.00  0.00    +0.000 A 
ATOM      2  S   UNL     1       1.739   6.718  20.758  0.00  0.00    +0.000 S 
ATOM      3  C   UNL     1       2.752   5.848  19.694  0.00  0.00    +0.000 A 
ATOM      4  N   UNL     1       3.135   4.587  19.971  0.00  0.00    +0.000 NA
ATOM      5  C   UNL     1       3.931   4.003  19.035  0.00  0.00    +0.000 A 
ATOM      6  C   UNL     1       4.354   2.607  19.397  0.00  0.00    +0.000 C 
ATOM      7  C   UNL     1       4.349   4.622  17.844  0.00  0.00    +0.000 A 
ATOM      8  C   UNL     1       3.906   5.932  17.619  0.00  0.00    +0.000 A 
ATOM      9  C   UNL     1       3.092   6.574  18.566  0.00  0.00    +0.000 A 
ATOM     10  C   UNL     1       2.503   7.868  18.607  0.00  0.00    +0.000 A 
ENDROOT
BRANCH   1  12
ATOM     11  N   UNL     1       0.910   9.774  21.271  0.00  0.00    +0.000 N 
ATOM     12  C   UNL     1       0.915   9.275  19.971  0.00  0.00    +0.000 C 
ATOM     13  O   UNL     1       0.296   9.805  19.053  0.00  0.00    +0.000 OA
ATOM     14  H   UNL     1       1.557   9.360  21.928  0.00  0.00    +0.000 HD
BRANCH  11  18
ATOM     15  C   UNL     1      -1.291  13.114  22.667  0.00  0.00    +0.000 A 
ATOM     16  C   UNL     1      -0.291  13.292  21.719  0.00  0.00    +0.000 A 
ATOM     17  C   UNL     1       0.415  12.195  21.227  0.00  0.00    +0.000 A 
ATOM     18  C   UNL     1       0.161  10.899  21.694  0.00  0.00    +0.000 A 
ATOM     19  C   UNL     1      -0.863  10.722  22.625  0.00  0.00    +0.000 A 
ATOM     20  C   UNL     1      -1.575  11.827  23.120  0.00  0.00    +0.000 A 
BRANCH  15  22
ATOM     21  C   UNL     1      -1.367  14.800  24.308  0.00  0.00    +0.000 C 
ATOM     22  O   UNL     1      -1.886  14.266  23.099  0.00  0.00    +0.000 OA
ENDBRANCH  15  22
ENDBRANCH  11  18
ENDBRANCH   1  12
BRANCH  10  23
ATOM     23  N   UNL     1       2.679   8.791  17.635  0.00  0.00    +0.000 N 
ATOM     24  H   UNL     1       3.385   9.517  17.656  0.00  0.00    +0.000 HD
ATOM     25  H   UNL     1       2.213   8.676  16.729  0.00  0.00    +0.000 HD
ENDBRANCH  10  23
BRANCH   7  26
ATOM     26  C   UNL     1       5.216   3.948  16.800  0.00  0.00    +0.000 C 
ATOM     27  C   UNL     1       5.052   4.553  15.408  0.00  0.00    +0.000 C 
BRANCH  26  28
ATOM     28  O   UNL     1       6.595   4.036  17.180  0.00  0.00    +0.000 OA
ATOM     29  H   UNL     1       6.905   3.144  17.413  0.00  0.00    +0.000 HD
ENDBRANCH  26  28
ENDBRANCH   7  26
TORSDOF 6
ENDMDL
MODEL 4
REMARK VINA RESULT:      -6.6      3.188      3.779
REMARK  Name = 
REMARK  9 active torsions:
REMARK  status: ('A' for Active; 'I' for Inactive)
REMARK    1  A    between atoms: C_1  and  O_2
REMARK    2  A    between atoms: O_2  and  C_3
REMARK    3  A    between atoms: C_6  and  N_7
REMARK    4  A    between atoms: C_8  and  C_10
REMARK    5  A    between atoms: C_14  and  C_15
REMARK    6  A    between atoms: C_16  and  C_17
REMARK    7  A    between atoms: C_17  and  C_18
REMARK    8  A    between atoms: C_17  and  O_19
REMARK    9  A    between atoms: C_22  and  N_23
REMARK                            x       y       z     vdW  Elec       q    Type
REMARK                         _______ _______ _______ _____ _____    ______ ____
ROOT
ATOM      1  C   UNL     1       1.118   8.896  19.774  0.00  0.00    +0.000 A 
ATOM      2  S   UNL     1       1.535   7.544  20.736  0.00  0.00    +0.000 S 
ATOM      3  C   UNL     1       2.625   6.960  19.559  0.00  0.00    +0.000 A 
ATOM      4  N   UNL     1       3.295   5.807  19.741  0.00  0.00    +0.000 NA
ATOM      5  C   UNL     1       4.121   5.449  18.722  0.00  0.00    +0.000 A 
ATOM      6  C   UNL     1       4.868   4.169  18.978  0.00  0.00    +0.000 C 
ATOM      7  C   UNL     1       4.299   6.188  17.539  0.00  0.00    +0.000 A 
ATOM      8  C   UNL     1       3.564   7.374  17.416  0.00  0.00    +0.000 A 
ATOM      9  C   UNL     1       2.707   7.784  18.450  0.00  0.00    +0.000 A 
ATOM     10  C   UNL     1       1.854   8.913  18.602  0.00  0.00    +0.000 A 
ENDROOT
BRANCH   1  12
ATOM     11  N   UNL     1       0.321  10.598  21.321  0.00  0.00    +0.000 N 
ATOM     12  C   UNL     1       0.112   9.882  20.146  0.00  0.00    +0.000 C 
ATOM     13  O   UNL     1      -0.869  10.054  19.428  0.00  0.00    +0.000 OA
ATOM     14  H   UNL     1       1.219  10.494  21.773  0.00  0.00    +0.000 HD
BRANCH  11  18
ATOM     15  C   UNL     1      -2.433  13.474  22.769  0.00  0.00    +0.000 A 
ATOM     16  C   UNL     1      -2.409  12.199  23.323  0.00  0.00    +0.000 A 
ATOM     17  C   UNL     1      -1.483  11.257  22.878  0.00  0.00    +0.000 A 
ATOM     18  C   UNL     1      -0.582  11.555  21.848  0.00  0.00    +0.000 A 
ATOM     19  C   UNL     1      -0.591  12.845  21.315  0.00  0.00    +0.000 A 
ATOM     20  C   UNL     1      -1.523  13.794  21.764  0.00  0.00    +0.000 A 
BRANCH  15  22
ATOM     21  C   UNL     1      -3.329  14.562  24.655  0.00  0.00    +0.000 C 
ATOM     22  O   UNL     1      -3.408  14.295  23.262  0.00  0.00    +0.000 OA
ENDBRANCH  15  22
ENDBRANCH  11  18
ENDBRANCH   1  12
BRANCH  10  23
ATOM     23  N   UNL     1       1.747   9.887  17.671  0.00  0.00    +0.000 N 
ATOM     24  H   UNL     1       1.713  10.877  17.879  0.00  0.00    +0.000 HD
ATOM     25  H   UNL     1       1.884   9.665  16.679  0.00  0.00    +0.000 HD
ENDBRANCH  10  23
BRANCH   7  26
ATOM     26  C   UNL     1       5.206   5.761  16.403  0.00  0.00    +0.000 C 
ATOM     27  C   UNL     1       4.785   4.437  15.771  0.00  0.00    +0.000 C 
BRANCH  26  28
ATOM     28  O   UNL     1       5.222   6.771  15.387  0.00  0.00    +0.000 OA
ATOM     29  H   UNL     1       6.146   6.924  15.124  0.00  0.00    +0.000 HD
ENDBRANCH  26  28
ENDBRANCH   7  26
TORSDOF 6
ENDMDL
MODEL 5
REMARK VINA RESULT:      -6.5      2.829      3.175
REMARK  Name = 
REMARK  9 active torsions:
REMARK  status: ('A' for Active; 'I' for Inactive)
REMARK    1  A    between atoms: C_1  and  O_2
REMARK    2  A    between atoms: O_2  and  C_3
REMARK    3  A    between atoms: C_6  and  N_7
REMARK    4  A    between atoms: C_8  and  C_10
REMARK    5  A    between atoms: C_14  and  C_15
REMARK    6  A    between atoms: C_16  and  C_17
REMARK    7  A    between atoms: C_17  and  C_18
REMARK    8  A    between atoms: C_17  and  O_19
REMARK    9  A    between atoms: C_22  and  N_23
REMARK                            x       y       z     vdW  Elec       q    Type
REMARK                         _______ _______ _______ _____ _____    ______ ____
ROOT
ATOM      1  C   UNL     1       1.694   7.993  19.734  0.00  0.00    +0.000 A 
ATOM      2  S   UNL     1       1.713   6.589  20.712  0.00  0.00    +0.000 S 
ATOM      3  C   UNL     1       2.734   5.763  19.621  0.00  0.00    +0.000 A 
ATOM      4  N   UNL     1       3.108   4.490  19.844  0.00  0.00    +0.000 NA
ATOM      5  C   UNL     1       3.912   3.945  18.892  0.00  0.00    +0.000 A 
ATOM      6  C   UNL     1       4.325   2.532  19.194  0.00  0.00    +0.000 C 
ATOM      7  C   UNL     1       4.348   4.616  17.735  0.00  0.00    +0.000 A 
ATOM      8  C   UNL     1       3.914   5.937  17.565  0.00  0.00    +0.000 A 
ATOM      9  C   UNL     1       3.091   6.539  18.532  0.00  0.00    +0.000 A 
ATOM     10  C   UNL     1       2.507   7.833  18.626  0.00  0.00    +0.000 A 
ENDROOT
BRANCH   1  12
ATOM     11  N   UNL     1       0.918   9.642  21.349  0.00  0.00    +0.000 N 
ATOM     12  C   UNL     1       0.910   9.184  20.034  0.00  0.00    +0.000 C 
ATOM     13  O   UNL     1       0.281   9.742  19.140  0.00  0.00    +0.000 OA
ATOM     14  H   UNL     1       1.572   9.208  21.986  0.00  0.00    +0.000 HD
BRANCH  11  18
ATOM     15  C   UNL     1      -1.343  12.994  22.612  0.00  0.00    +0.000 A 
ATOM     16  C   UNL     1      -1.643  11.731  23.109  0.00  0.00    +0.000 A 
ATOM     17  C   UNL     1      -0.882  10.627  22.727  0.00  0.00    +0.000 A 
ATOM     18  C   UNL     1       0.174  10.753  21.815  0.00  0.00    +0.000 A 
ATOM     19  C   UNL     1       0.488  12.028  21.341  0.00  0.00    +0.000 A 
ATOM     20  C   UNL     1      -0.277  13.139  21.727  0.00  0.00    +0.000 A 
BRANCH  15  22
ATOM     21  C   UNL     1      -3.254  13.569  23.862  0.00  0.00    +0.000 C 
ATOM     22  O   UNL     1      -2.182  13.989  23.031  0.00  0.00    +0.000 OA
ENDBRANCH  15  22
ENDBRANCH  11  18
ENDBRANCH   1  12
BRANCH  10  23
ATOM     23  N   UNL     1       2.700   8.799  17.699  0.00  0.00    +0.000 N 
ATOM     24  H   UNL     1       2.438   8.718  16.725  0.00  0.00    +0.000 HD
ATOM     25  H   UNL     1       2.957   9.747  17.994  0.00  0.00    +0.000 HD
ENDBRANCH  10  23
BRANCH   7  26
ATOM     26  C   UNL     1       5.224   3.986  16.672  0.00  0.00    +0.000 C 
ATOM     27  C   UNL     1       5.119   4.689  15.321  0.00  0.00    +0.000 C 
BRANCH  26  28
ATOM     28  O   UNL     1       6.593   4.004  17.095  0.00  0.00    +0.000 OA
ATOM     29  H   UNL     1       6.889   4.930  17.131  0.00  0.00    +0.000 HD
ENDBRANCH  26  28
ENDBRANCH   7  26
TORSDOF 6
ENDMDL
MODEL 6
REMARK VINA RESULT:      -6.5      2.144      9.381
REMARK  Name = 
REMARK  9 active torsions:
REMARK  status: ('A' for Active; 'I' for Inactive)
REMARK    1  A    between atoms: C_1  and  O_2
REMARK    2  A    between atoms: O_2  and  C_3
REMARK    3  A    between atoms: C_6  and  N_7
REMARK    4  A    between atoms: C_8  and  C_10
REMARK    5  A    between atoms: C_14  and  C_15
REMARK    6  A    between atoms: C_16  and  C_17
REMARK    7  A    between atoms: C_17  and  C_18
REMARK    8  A    between atoms: C_17  and  O_19
REMARK    9  A    between atoms: C_22  and  N_23
REMARK                            x       y       z     vdW  Elec       q    Type
REMARK                         _______ _______ _______ _____ _____    ______ ____
ROOT
ATOM      1  C   UNL     1       1.065   9.034  20.470  0.00  0.00    +0.000 A 
ATOM      2  S   UNL     1       0.730   9.341  22.120  0.00  0.00    +0.000 S 
ATOM      3  C   UNL     1       0.080  10.881  21.768  0.00  0.00    +0.000 A 
ATOM      4  N   UNL     1      -0.361  11.692  22.748  0.00  0.00    +0.000 NA
ATOM      5  C   UNL     1      -0.842  12.894  22.334  0.00  0.00    +0.000 A 
ATOM      6  C   UNL     1      -1.346  13.757  23.458  0.00  0.00    +0.000 C 
ATOM      7  C   UNL     1      -0.895  13.315  20.993  0.00  0.00    +0.000 A 
ATOM      8  C   UNL     1      -0.412  12.422  20.028  0.00  0.00    +0.000 A 
ATOM      9  C   UNL     1       0.084  11.166  20.414  0.00  0.00    +0.000 A 
ATOM     10  C   UNL     1       0.627  10.079  19.675  0.00  0.00    +0.000 A 
ENDROOT
BRANCH   1  12
ATOM     11  N   UNL     1       1.676   6.699  20.788  0.00  0.00    +0.000 N 
ATOM     12  C   UNL     1       1.735   7.834  19.985  0.00  0.00    +0.000 C 
ATOM     13  O   UNL     1       2.317   7.855  18.904  0.00  0.00    +0.000 OA
ATOM     14  H   UNL     1       1.060   6.730  21.589  0.00  0.00    +0.000 HD
BRANCH  11  18
ATOM     15  C   UNL     1       3.466   2.984  19.818  0.00  0.00    +0.000 A 
ATOM     16  C   UNL     1       4.072   4.169  19.418  0.00  0.00    +0.000 A 
ATOM     17  C   UNL     1       3.509   5.397  19.763  0.00  0.00    +0.000 A 
ATOM     18  C   UNL     1       2.313   5.470  20.486  0.00  0.00    +0.000 A 
ATOM     19  C   UNL     1       1.724   4.278  20.910  0.00  0.00    +0.000 A 
ATOM     20  C   UNL     1       2.291   3.041  20.564  0.00  0.00    +0.000 A 
BRANCH  15  22
ATOM     21  C   UNL     1       3.667   1.362  18.124  0.00  0.00    +0.000 C 
ATOM     22  O   UNL     1       4.091   1.846  19.390  0.00  0.00    +0.000 OA
ENDBRANCH  15  22
ENDBRANCH  11  18
ENDBRANCH   1  12
BRANCH  10  23
ATOM     23  N   UNL     1       0.740  10.085  18.327  0.00  0.00    +0.000 N 
ATOM     24  H   UNL     1       0.123  10.590  17.703  0.00  0.00    +0.000 HD
ATOM     25  H   UNL     1       1.588   9.717  17.883  0.00  0.00    +0.000 HD
ENDBRANCH  10  23
BRANCH   7  26
ATOM     26  C   UNL     1      -1.412  14.669  20.552  0.00  0.00    +0.000 C 
ATOM     27  C   UNL     1      -0.560  15.303  19.454  0.00  0.00    +0.000 C 
BRANCH  26  28
ATOM     28  O   UNL     1      -2.758  14.546  20.076  0.00  0.00    +0.000 OA
ATOM     29  H   UNL     1      -2.898  13.625  19.794  0.00  0.00    +0.000 HD
ENDBRANCH  26  28
ENDBRANCH   7  26
TORSDOF 6
ENDMDL
MODEL 7
REMARK VINA RESULT:      -6.5      3.958      9.500
REMARK  Name = 
REMARK  9 active torsions:
REMARK  status: ('A' for Active; 'I' for Inactive)
REMARK    1  A    between atoms: C_1  and  O_2
REMARK    2  A    between atoms: O_2  and  C_3
REMARK    3  A    between atoms: C_6  and  N_7
REMARK    4  A    between atoms: C_8  and  C_10
REMARK    5  A    between atoms: C_14  and  C_15
REMARK    6  A    between atoms: C_16  and  C_17
REMARK    7  A    between atoms: C_17  and  C_18
REMARK    8  A    between atoms: C_17  and  O_19
REMARK    9  A    between atoms: C_22  and  N_23
REMARK                            x       y       z     vdW  Elec       q    Type
REMARK                         _______ _______ _______ _____ _____    ______ ____
ROOT
ATOM      1  C   UNL     1       0.193  10.289  21.336  0.00  0.00    +0.000 A 
ATOM      2  S   UNL     1      -0.108  11.617  20.301  0.00  0.00    +0.000 S 
ATOM      3  C   UNL     1      -1.300  12.248  21.348  0.00  0.00    +0.000 A 
ATOM      4  N   UNL     1      -1.984  13.364  21.034  0.00  0.00    +0.000 NA
ATOM      5  C   UNL     1      -2.913  13.752  21.949  0.00  0.00    +0.000 A 
ATOM      6  C   UNL     1      -3.635  15.015  21.570  0.00  0.00    +0.000 C 
ATOM      7  C   UNL     1      -3.185  13.072  23.149  0.00  0.00    +0.000 A 
ATOM      8  C   UNL     1      -2.439  11.914  23.406  0.00  0.00    +0.000 A 
ATOM      9  C   UNL     1      -1.463  11.486  22.492  0.00  0.00    +0.000 A 
ATOM     10  C   UNL     1      -0.574  10.376  22.485  0.00  0.00    +0.000 A 
ENDROOT
BRANCH   1  12
ATOM     11  N   UNL     1       1.289   8.870  19.689  0.00  0.00    +0.000 N 
ATOM     12  C   UNL     1       1.124   9.211  21.029  0.00  0.00    +0.000 C 
ATOM     13  O   UNL     1       1.727   8.648  21.937  0.00  0.00    +0.000 OA
ATOM     14  H   UNL     1       0.863   9.477  19.001  0.00  0.00    +0.000 HD
BRANCH  11  18
ATOM     15  C   UNL     1       3.649   5.640  18.295  0.00  0.00    +0.000 A 
ATOM     16  C   UNL     1       3.649   6.846  17.603  0.00  0.00    +0.000 A 
ATOM     17  C   UNL     1       2.903   7.926  18.073  0.00  0.00    +0.000 A 
ATOM     18  C   UNL     1       2.116   7.817  19.226  0.00  0.00    +0.000 A 
ATOM     19  C   UNL     1       2.142   6.614  19.932  0.00  0.00    +0.000 A 
ATOM     20  C   UNL     1       2.894   5.527  19.460  0.00  0.00    +0.000 A 
BRANCH  15  22
ATOM     21  C   UNL     1       3.827   3.344  17.804  0.00  0.00    +0.000 C 
ATOM     22  O   UNL     1       4.389   4.646  17.717  0.00  0.00    +0.000 OA
ENDBRANCH  15  22
ENDBRANCH  11  18
ENDBRANCH   1  12
BRANCH  10  23
ATOM     23  N   UNL     1      -0.514   9.472  23.488  0.00  0.00    +0.000 N 
ATOM     24  H   UNL     1       0.336   9.020  23.803  0.00  0.00    +0.000 HD
ATOM     25  H   UNL     1      -1.319   9.341  24.109  0.00  0.00    +0.000 HD
ENDBRANCH  10  23
BRANCH   7  26
ATOM     26  C   UNL     1      -4.242  13.505  24.145  0.00  0.00    +0.000 C 
ATOM     27  C   UNL     1      -4.935  12.327  24.827  0.00  0.00    +0.000 C 
BRANCH  26  28
ATOM     28  O   UNL     1      -3.651  14.337  25.151  0.00  0.00    +0.000 OA
ATOM     29  H   UNL     1      -4.184  15.147  25.228  0.00  0.00    +0.000 HD
ENDBRANCH  26  28
ENDBRANCH   7  26
TORSDOF 6
ENDMDL
MODEL 8
REMARK VINA RESULT:      -6.5      3.094      3.983
REMARK  Name = 
REMARK  9 active torsions:
REMARK  status: ('A' for Active; 'I' for Inactive)
REMARK    1  A    between atoms: C_1  and  O_2
REMARK    2  A    between atoms: O_2  and  C_3
REMARK    3  A    between atoms: C_6  and  N_7
REMARK    4  A    between atoms: C_8  and  C_10
REMARK    5  A    between atoms: C_14  and  C_15
REMARK    6  A    between atoms: C_16  and  C_17
REMARK    7  A    between atoms: C_17  and  C_18
REMARK    8  A    between atoms: C_17  and  O_19
REMARK    9  A    between atoms: C_22  and  N_23
REMARK                            x       y       z     vdW  Elec       q    Type
REMARK                         _______ _______ _______ _____ _____    ______ ____
ROOT
ATOM      1  C   UNL     1       1.416   8.389  19.617  0.00  0.00    +0.000 A 
ATOM      2  S   UNL     1       1.889   8.885  18.050  0.00  0.00    +0.000 S 
ATOM      3  C   UNL     1       3.018   7.611  17.916  0.00  0.00    +0.000 A 
ATOM      4  N   UNL     1       3.795   7.479  16.824  0.00  0.00    +0.000 NA
ATOM      5  C   UNL     1       4.660   6.430  16.851  0.00  0.00    +0.000 A 
ATOM      6  C   UNL     1       5.489   6.306  15.602  0.00  0.00    +0.000 C 
ATOM      7  C   UNL     1       4.780   5.520  17.916  0.00  0.00    +0.000 A 
ATOM      8  C   UNL     1       3.945   5.723  19.022  0.00  0.00    +0.000 A 
ATOM      9  C   UNL     1       3.031   6.789  19.030  0.00  0.00    +0.000 A 
ATOM     10  C   UNL     1       2.080   7.233  19.990  0.00  0.00    +0.000 A 
ENDROOT
BRANCH   1  12
ATOM     11  N   UNL     1       0.251  10.455  20.166  0.00  0.00    +0.000 N 
ATOM     12  C   UNL     1       0.452   9.105  20.442  0.00  0.00    +0.000 C 
ATOM     13  O   UNL     1      -0.146   8.514  21.336  0.00  0.00    +0.000 OA
ATOM     14  H   UNL     1       0.678  10.824  19.327  0.00  0.00    +0.000 HD
BRANCH  11  18
ATOM     15  C   UNL     1      -2.434  12.915  22.330  0.00  0.00    +0.000 A 
ATOM     16  C   UNL     1      -1.374  12.303  22.988  0.00  0.00    +0.000 A 
ATOM     17  C   UNL     1      -0.464  11.520  22.278  0.00  0.00    +0.000 A 
ATOM     18  C   UNL     1      -0.610  11.304  20.902  0.00  0.00    +0.000 A 
ATOM     19  C   UNL     1      -1.660  11.944  20.241  0.00  0.00    +0.000 A 
ATOM     20  C   UNL     1      -2.576  12.734  20.956  0.00  0.00    +0.000 A 
BRANCH  15  22
ATOM     21  C   UNL     1      -4.086  12.846  24.007  0.00  0.00    +0.000 C 
ATOM     22  O   UNL     1      -3.277  13.626  23.137  0.00  0.00    +0.000 OA
ENDBRANCH  15  22
ENDBRANCH  11  18
ENDBRANCH   1  12
BRANCH  10  23
ATOM     23  N   UNL     1       1.874   6.606  21.170  0.00  0.00    +0.000 N 
ATOM     24  H   UNL     1       2.537   6.593  21.935  0.00  0.00    +0.000 HD
ATOM     25  H   UNL     1       0.938   6.264  21.412  0.00  0.00    +0.000 HD
ENDBRANCH  10  23
BRANCH   7  26
ATOM     26  C   UNL     1       5.767   4.370  17.939  0.00  0.00    +0.000 C 
ATOM     27  C   UNL     1       7.211   4.829  18.129  0.00  0.00    +0.000 C 
BRANCH  26  28
ATOM     28  O   UNL     1       5.431   3.460  18.993  0.00  0.00    +0.000 OA
ATOM     29  H   UNL     1       5.966   3.686  19.773  0.00  0.00    +0.000 HD
ENDBRANCH  26  28
ENDBRANCH   7  26
TORSDOF 6
ENDMDL
MODEL 9
REMARK VINA RESULT:      -6.4      4.060      9.507
REMARK  Name = 
REMARK  9 active torsions:
REMARK  status: ('A' for Active; 'I' for Inactive)
REMARK    1  A    between atoms: C_1  and  O_2
REMARK    2  A    between atoms: O_2  and  C_3
REMARK    3  A    between atoms: C_6  and  N_7
REMARK    4  A    between atoms: C_8  and  C_10
REMARK    5  A    between atoms: C_14  and  C_15
REMARK    6  A    between atoms: C_16  and  C_17
REMARK    7  A    between atoms: C_17  and  C_18
REMARK    8  A    between atoms: C_17  and  O_19
REMARK    9  A    between atoms: C_22  and  N_23
REMARK                            x       y       z     vdW  Elec       q    Type
REMARK                         _______ _______ _______ _____ _____    ______ ____
ROOT
ATOM      1  C   UNL     1       0.202  10.511  21.451  0.00  0.00    +0.000 A 
ATOM      2  S   UNL     1       0.062  11.979  20.583  0.00  0.00    +0.000 S 
ATOM      3  C   UNL     1      -1.238  12.507  21.556  0.00  0.00    +0.000 A 
ATOM      4  N   UNL     1      -1.852  13.681  21.321  0.00  0.00    +0.000 NA
ATOM      5  C   UNL     1      -2.880  13.977  22.161  0.00  0.00    +0.000 A 
ATOM      6  C   UNL     1      -3.521  15.307  21.878  0.00  0.00    +0.000 C 
ATOM      7  C   UNL     1      -3.316  13.151  23.212  0.00  0.00    +0.000 A 
ATOM      8  C   UNL     1      -2.634  11.940  23.393  0.00  0.00    +0.000 A 
ATOM      9  C   UNL     1      -1.560  11.603  22.553  0.00  0.00    +0.000 A 
ATOM     10  C   UNL     1      -0.702  10.470  22.499  0.00  0.00    +0.000 A 
ENDROOT
BRANCH   1  12
ATOM     11  N   UNL     1       1.180   9.032  19.784  0.00  0.00    +0.000 N 
ATOM     12  C   UNL     1       1.140   9.449  21.111  0.00  0.00    +0.000 C 
ATOM     13  O   UNL     1       1.856   8.965  21.983  0.00  0.00    +0.000 OA
ATOM     14  H   UNL     1       0.662   9.579  19.110  0.00  0.00    +0.000 HD
BRANCH  11  18
ATOM     15  C   UNL     1       3.735   5.977  18.337  0.00  0.00    +0.000 A 
ATOM     16  C   UNL     1       3.020   5.782  19.513  0.00  0.00    +0.000 A 
ATOM     17  C   UNL     1       2.150   6.767  19.978  0.00  0.00    +0.000 A 
ATOM     18  C   UNL     1       1.998   7.982  19.299  0.00  0.00    +0.000 A 
ATOM     19  C   UNL     1       2.696   8.161  18.104  0.00  0.00    +0.000 A 
ATOM     20  C   UNL     1       3.571   7.169  17.634  0.00  0.00    +0.000 A 
BRANCH  15  22
ATOM     21  C   UNL     1       5.005   4.142  19.086  0.00  0.00    +0.000 C 
ATOM     22  O   UNL     1       4.581   4.957  18.003  0.00  0.00    +0.000 OA
ENDBRANCH  15  22
ENDBRANCH  11  18
ENDBRANCH   1  12
BRANCH  10  23
ATOM     23  N   UNL     1      -0.788   9.436  23.366  0.00  0.00    +0.000 N 
ATOM     24  H   UNL     1      -1.064   8.496  23.110  0.00  0.00    +0.000 HD
ATOM     25  H   UNL     1      -0.390   9.521  24.307  0.00  0.00    +0.000 HD
ENDBRANCH  10  23
BRANCH   7  26
ATOM     26  C   UNL     1      -4.480  13.485  24.123  0.00  0.00    +0.000 C 
ATOM     27  C   UNL     1      -5.824  13.021  23.566  0.00  0.00    +0.000 C 
BRANCH  26  28
ATOM     28  O   UNL     1      -4.282  12.882  25.408  0.00  0.00    +0.000 OA
ATOM     29  H   UNL     1      -4.021  11.954  25.272  0.00  0.00    +0.000 HD
ENDBRANCH  26  28
ENDBRANCH   7  26
TORSDOF 6
ENDMDL
