MODEL 1
REMARK VINA RESULT:      -8.3      0.000      0.000
REMARK  Name = 
REMARK  3 active torsions:
REMARK  status: ('A' for Active; 'I' for Inactive)
REMARK    1  A    between atoms: C_1  and  C_2
REMARK    2  A    between atoms: C_19  and  C_20
REMARK    3  A    between atoms: N_24  and  C_25
REMARK                            x       y       z     vdW  Elec       q    Type
REMARK                         _______ _______ _______ _____ _____    ______ ____
ROOT
ATOM      1  C   UNL     1      -6.140  11.248  17.832  0.00  0.00    +0.000 C 
ATOM      2  C   UNL     1      -5.062  11.948  18.594  0.00  0.00    +0.000 A 
ATOM      3  C   UNL     1      -5.236  12.757  19.718  0.00  0.00    +0.000 A 
ATOM      4  C   UNL     1      -4.142  13.000  20.611  0.00  0.00    +0.000 A 
ATOM      5  C   UNL     1      -2.883  12.483  20.314  0.00  0.00    +0.000 A 
ATOM      6  C   UNL     1      -2.751  12.314  18.963  0.00  0.00    +0.000 A 
ATOM      7  C   UNL     1      -3.768  11.759  18.196  0.00  0.00    +0.000 A 
ATOM      8  C   UNL     1      -1.412  12.144  18.532  0.00  0.00    +0.000 C 
ATOM      9  O   UNL     1      -0.902  12.756  17.611  0.00  0.00    +0.000 OA
ATOM     10  N   UNL     1      -1.111  10.946  19.037  0.00  0.00    +0.000 N 
ATOM     11  C   UNL     1      -0.995   9.886  18.083  0.00  0.00    +0.000 C 
ATOM     12  C   UNL     1       0.471   9.762  17.838  0.00  0.00    +0.000 C 
ATOM     13  C   UNL     1       1.027   9.445  19.201  0.00  0.00    +0.000 A 
ATOM     14  C   UNL     1       0.404   9.801  20.451  0.00  0.00    +0.000 A 
ATOM     15  N   UNL     1       0.766   8.643  21.211  0.00  0.00    +0.000 N 
ATOM     16  C   UNL     1       1.644   7.759  20.498  0.00  0.00    +0.000 A 
ATOM     17  C   UNL     1       2.170   6.445  20.703  0.00  0.00    +0.000 A 
ATOM     18  C   UNL     1       2.940   5.821  19.658  0.00  0.00    +0.000 A 
ATOM     19  C   UNL     1       3.200   6.429  18.449  0.00  0.00    +0.000 A 
ATOM     20  C   UNL     1       3.933   5.817  17.278  0.00  0.00    +0.000 C 
ATOM     21  C   UNL     1       2.661   7.716  18.260  0.00  0.00    +0.000 A 
ATOM     22  C   UNL     1       1.916   8.357  19.282  0.00  0.00    +0.000 A 
ATOM     23  C   UNL     1      -1.011  10.747  20.491  0.00  0.00    +0.000 C 
ATOM     24  N   UNL     1      -1.704  12.139  21.157  0.00  0.00    +0.000 N 
ATOM     25  H   UNL     1       0.323   8.352  22.072  0.00  0.00    +0.000 HD
ENDROOT
BRANCH  24  26
ATOM     26  C   UNL     1      -1.255  13.099  22.094  0.00  0.00    +0.000 A 
ATOM     27  C   UNL     1      -0.294  14.075  21.805  0.00  0.00    +0.000 A 
ATOM     28  C   UNL     1      -0.070  15.176  22.676  0.00  0.00    +0.000 A 
ATOM     29  C   UNL     1      -0.793  15.347  23.861  0.00  0.00    +0.000 A 
ATOM     30  C   UNL     1      -1.726  14.393  24.182  0.00  0.00    +0.000 A 
ATOM     31  F   UNL     1      -2.474  14.533  25.294  0.00  0.00    +0.000 F 
ATOM     32  C   UNL     1      -1.936  13.290  23.327  0.00  0.00    +0.000 A 
ENDBRANCH  24  26
TORSDOF 1
ENDMDL
MODEL 2
REMARK VINA RESULT:      -8.0      4.166      9.292
REMARK  Name = 
REMARK  3 active torsions:
REMARK  status: ('A' for Active; 'I' for Inactive)
REMARK    1  A    between atoms: C_1  and  C_2
REMARK    2  A    between atoms: C_19  and  C_20
REMARK    3  A    between atoms: N_24  and  C_25
REMARK                            x       y       z     vdW  Elec       q    Type
REMARK                         _______ _______ _______ _____ _____    ______ ____
ROOT
ATOM      1  C   UNL     1       0.335   1.385  18.415  0.00  0.00    +0.000 C 
ATOM      2  C   UNL     1       1.573   2.205  18.590  0.00  0.00    +0.000 A 
ATOM      3  C   UNL     1       2.757   2.080  17.864  0.00  0.00    +0.000 A 
ATOM      4  C   UNL     1       3.685   3.169  17.798  0.00  0.00    +0.000 A 
ATOM      5  C   UNL     1       3.434   4.332  18.523  0.00  0.00    +0.000 A 
ATOM      6  C   UNL     1       2.655   4.048  19.612  0.00  0.00    +0.000 A 
ATOM      7  C   UNL     1       1.551   3.209  19.518  0.00  0.00    +0.000 A 
ATOM      8  C   UNL     1       2.644   5.068  20.595  0.00  0.00    +0.000 C 
ATOM      9  O   UNL     1       2.824   4.879  21.784  0.00  0.00    +0.000 OA
ATOM     10  N   UNL     1       1.983   6.044  19.971  0.00  0.00    +0.000 N 
ATOM     11  C   UNL     1       0.659   6.298  20.453  0.00  0.00    +0.000 C 
ATOM     12  C   UNL     1       0.812   7.465  21.369  0.00  0.00    +0.000 C 
ATOM     13  C   UNL     1       1.372   8.539  20.474  0.00  0.00    +0.000 A 
ATOM     14  C   UNL     1       2.129   8.301  19.271  0.00  0.00    +0.000 A 
ATOM     15  N   UNL     1       1.642   9.397  18.488  0.00  0.00    +0.000 N 
ATOM     16  C   UNL     1       0.782  10.274  19.230  0.00  0.00    +0.000 A 
ATOM     17  C   UNL     1      -0.068  11.382  18.925  0.00  0.00    +0.000 A 
ATOM     18  C   UNL     1      -0.906  11.936  19.956  0.00  0.00    +0.000 A 
ATOM     19  C   UNL     1      -0.938  11.446  21.244  0.00  0.00    +0.000 A 
ATOM     20  C   UNL     1      -1.839  11.920  22.361  0.00  0.00    +0.000 C 
ATOM     21  C   UNL     1      -0.106  10.345  21.522  0.00  0.00    +0.000 A 
ATOM     22  C   UNL     1       0.741   9.796  20.526  0.00  0.00    +0.000 A 
ATOM     23  C   UNL     1       2.568   6.723  18.805  0.00  0.00    +0.000 C 
ATOM     24  N   UNL     1       3.873   5.745  18.356  0.00  0.00    +0.000 N 
ATOM     25  H   UNL     1       1.717   9.470  17.483  0.00  0.00    +0.000 HD
ENDROOT
BRANCH  24  26
ATOM     26  C   UNL     1       5.250   5.992  18.149  0.00  0.00    +0.000 A 
ATOM     27  C   UNL     1       5.741   6.927  17.229  0.00  0.00    +0.000 A 
ATOM     28  C   UNL     1       7.102   7.335  17.241  0.00  0.00    +0.000 A 
ATOM     29  C   UNL     1       8.022   6.831  18.167  0.00  0.00    +0.000 A 
ATOM     30  C   UNL     1       7.575   5.896  19.066  0.00  0.00    +0.000 A 
ATOM     31  F   UNL     1       8.413   5.409  20.002  0.00  0.00    +0.000 F 
ATOM     32  C   UNL     1       6.227   5.476  19.042  0.00  0.00    +0.000 A 
ENDBRANCH  24  26
TORSDOF 1
ENDMDL
MODEL 3
REMARK VINA RESULT:      -7.7      3.545      7.283
REMARK  Name = 
REMARK  3 active torsions:
REMARK  status: ('A' for Active; 'I' for Inactive)
REMARK    1  A    between atoms: C_1  and  C_2
REMARK    2  A    between atoms: C_19  and  C_20
REMARK    3  A    between atoms: N_24  and  C_25
REMARK                            x       y       z     vdW  Elec       q    Type
REMARK                         _______ _______ _______ _____ _____    ______ ____
ROOT
ATOM      1  C   UNL     1      -4.249  11.659  16.756  0.00  0.00    +0.000 C 
ATOM      2  C   UNL     1      -3.127  10.930  17.421  0.00  0.00    +0.000 A 
ATOM      3  C   UNL     1      -2.547   9.736  16.992  0.00  0.00    +0.000 A 
ATOM      4  C   UNL     1      -1.230   9.374  17.425  0.00  0.00    +0.000 A 
ATOM      5  C   UNL     1      -0.557  10.186  18.335  0.00  0.00    +0.000 A 
ATOM      6  C   UNL     1      -1.455  10.879  19.099  0.00  0.00    +0.000 A 
ATOM      7  C   UNL     1      -2.570  11.490  18.538  0.00  0.00    +0.000 A 
ATOM      8  C   UNL     1      -0.899  11.443  20.274  0.00  0.00    +0.000 C 
ATOM      9  O   UNL     1      -1.383  11.334  21.386  0.00  0.00    +0.000 OA
ATOM     10  N   UNL     1      -0.102  12.389  19.774  0.00  0.00    +0.000 N 
ATOM     11  C   UNL     1      -0.543  13.736  19.973  0.00  0.00    +0.000 C 
ATOM     12  C   UNL     1       0.225  14.210  21.161  0.00  0.00    +0.000 C 
ATOM     13  C   UNL     1       1.659  14.077  20.724  0.00  0.00    +0.000 A 
ATOM     14  C   UNL     1       2.135  13.162  19.717  0.00  0.00    +0.000 A 
ATOM     15  N   UNL     1       3.154  13.986  19.139  0.00  0.00    +0.000 N 
ATOM     16  C   UNL     1       3.343  15.220  19.849  0.00  0.00    +0.000 A 
ATOM     17  C   UNL     1       4.078  16.427  19.636  0.00  0.00    +0.000 A 
ATOM     18  C   UNL     1       3.901  17.533  20.542  0.00  0.00    +0.000 A 
ATOM     19  C   UNL     1       3.043  17.492  21.620  0.00  0.00    +0.000 A 
ATOM     20  C   UNL     1       2.745  18.628  22.570  0.00  0.00    +0.000 C 
ATOM     21  C   UNL     1       2.316  16.301  21.804  0.00  0.00    +0.000 A 
ATOM     22  C   UNL     1       2.490  15.194  20.936  0.00  0.00    +0.000 A 
ATOM     23  C   UNL     1       1.090  12.032  18.990  0.00  0.00    +0.000 C 
ATOM     24  N   UNL     1       0.887  10.390  18.637  0.00  0.00    +0.000 N 
ATOM     25  H   UNL     1       3.574  13.839  18.232  0.00  0.00    +0.000 HD
ENDROOT
BRANCH  24  26
ATOM     26  C   UNL     1       1.693   9.243  18.834  0.00  0.00    +0.000 A 
ATOM     27  C   UNL     1       1.552   8.374  19.922  0.00  0.00    +0.000 A 
ATOM     28  C   UNL     1       2.189   7.104  19.943  0.00  0.00    +0.000 A 
ATOM     29  C   UNL     1       2.985   6.652  18.885  0.00  0.00    +0.000 A 
ATOM     30  C   UNL     1       3.160   7.493  17.815  0.00  0.00    +0.000 A 
ATOM     31  F   UNL     1       3.886   7.089  16.755  0.00  0.00    +0.000 F 
ATOM     32  C   UNL     1       2.542   8.763  17.802  0.00  0.00    +0.000 A 
ENDBRANCH  24  26
TORSDOF 1
ENDMDL
MODEL 4
REMARK VINA RESULT:      -7.6      3.593      6.877
REMARK  Name = 
REMARK  3 active torsions:
REMARK  status: ('A' for Active; 'I' for Inactive)
REMARK    1  A    between atoms: C_1  and  C_2
REMARK    2  A    between atoms: C_19  and  C_20
REMARK    3  A    between atoms: N_24  and  C_25
REMARK                            x       y       z     vdW  Elec       q    Type
REMARK                         _______ _______ _______ _____ _____    ______ ____
ROOT
ATOM      1  C   UNL     1      -4.719  12.262  17.793  0.00  0.00    +0.000 C 
ATOM      2  C   UNL     1      -3.566  11.413  18.220  0.00  0.00    +0.000 A 
ATOM      3  C   UNL     1      -3.261  10.135  17.751  0.00  0.00    +0.000 A 
ATOM      4  C   UNL     1      -1.933   9.613  17.880  0.00  0.00    +0.000 A 
ATOM      5  C   UNL     1      -0.962  10.360  18.543  0.00  0.00    +0.000 A 
ATOM      6  C   UNL     1      -1.551  11.199  19.448  0.00  0.00    +0.000 A 
ATOM      7  C   UNL     1      -2.686  11.934  19.128  0.00  0.00    +0.000 A 
ATOM      8  C   UNL     1      -0.657  11.727  20.412  0.00  0.00    +0.000 C 
ATOM      9  O   UNL     1      -0.861  11.728  21.613  0.00  0.00    +0.000 OA
ATOM     10  N   UNL     1       0.102  12.535  19.669  0.00  0.00    +0.000 N 
ATOM     11  C   UNL     1      -0.107  13.936  19.872  0.00  0.00    +0.000 C 
ATOM     12  C   UNL     1       0.983  14.346  20.804  0.00  0.00    +0.000 C 
ATOM     13  C   UNL     1       2.237  14.001  20.047  0.00  0.00    +0.000 A 
ATOM     14  C   UNL     1       2.333  12.991  19.023  0.00  0.00    +0.000 A 
ATOM     15  N   UNL     1       3.272  13.645  18.161  0.00  0.00    +0.000 N 
ATOM     16  C   UNL     1       3.780  14.868  18.715  0.00  0.00    +0.000 A 
ATOM     17  C   UNL     1       4.583  15.954  18.246  0.00  0.00    +0.000 A 
ATOM     18  C   UNL     1       4.772  17.108  19.087  0.00  0.00    +0.000 A 
ATOM     19  C   UNL     1       4.209  17.227  20.339  0.00  0.00    +0.000 A 
ATOM     20  C   UNL     1       4.297  18.430  21.250  0.00  0.00    +0.000 C 
ATOM     21  C   UNL     1       3.409  16.155  20.777  0.00  0.00    +0.000 A 
ATOM     22  C   UNL     1       3.225  15.001  19.973  0.00  0.00    +0.000 A 
ATOM     23  C   UNL     1       1.010  11.987  18.650  0.00  0.00    +0.000 C 
ATOM     24  N   UNL     1       0.526  10.376  18.474  0.00  0.00    +0.000 N 
ATOM     25  H   UNL     1       3.434  13.407  17.192  0.00  0.00    +0.000 HD
ENDROOT
BRANCH  24  26
ATOM     26  C   UNL     1       1.208   9.139  18.553  0.00  0.00    +0.000 A 
ATOM     27  C   UNL     1       2.161   8.717  17.618  0.00  0.00    +0.000 A 
ATOM     28  C   UNL     1       3.009   7.605  17.874  0.00  0.00    +0.000 A 
ATOM     29  C   UNL     1       2.941   6.876  19.066  0.00  0.00    +0.000 A 
ATOM     30  C   UNL     1       2.000   7.252  19.991  0.00  0.00    +0.000 A 
ATOM     31  F   UNL     1       1.921   6.605  21.170  0.00  0.00    +0.000 F 
ATOM     32  C   UNL     1       1.145   8.345  19.730  0.00  0.00    +0.000 A 
ENDBRANCH  24  26
TORSDOF 1
ENDMDL
MODEL 5
REMARK VINA RESULT:      -7.1      1.052      1.350
REMARK  Name = 
REMARK  3 active torsions:
REMARK  status: ('A' for Active; 'I' for Inactive)
REMARK    1  A    between atoms: C_1  and  C_2
REMARK    2  A    between atoms: C_19  and  C_20
REMARK    3  A    between atoms: N_24  and  C_25
REMARK                            x       y       z     vdW  Elec       q    Type
REMARK                         _______ _______ _______ _____ _____    ______ ____
ROOT
ATOM      1  C   UNL     1      -6.596  10.960  18.201  0.00  0.00    +0.000 C 
ATOM      2  C   UNL     1      -5.501  11.779  18.804  0.00  0.00    +0.000 A 
ATOM      3  C   UNL     1      -5.633  12.695  19.848  0.00  0.00    +0.000 A 
ATOM      4  C   UNL     1      -4.493  13.074  20.628  0.00  0.00    +0.000 A 
ATOM      5  C   UNL     1      -3.235  12.578  20.294  0.00  0.00    +0.000 A 
ATOM      6  C   UNL     1      -3.189  12.272  18.961  0.00  0.00    +0.000 A 
ATOM      7  C   UNL     1      -4.230  11.599  18.333  0.00  0.00    +0.000 A 
ATOM      8  C   UNL     1      -1.877  12.108  18.452  0.00  0.00    +0.000 C 
ATOM      9  O   UNL     1      -1.462  12.639  17.437  0.00  0.00    +0.000 OA
ATOM     10  N   UNL     1      -1.486  10.984  19.055  0.00  0.00    +0.000 N 
ATOM     11  C   UNL     1      -1.388   9.834  18.210  0.00  0.00    +0.000 C 
ATOM     12  C   UNL     1       0.062   9.741  17.871  0.00  0.00    +0.000 C 
ATOM     13  C   UNL     1       0.725   9.593  19.215  0.00  0.00    +0.000 A 
ATOM     14  C   UNL     1       0.175  10.056  20.464  0.00  0.00    +0.000 A 
ATOM     15  N   UNL     1       0.642   9.001  21.312  0.00  0.00    +0.000 N 
ATOM     16  C   UNL     1       1.509   8.081  20.631  0.00  0.00    +0.000 A 
ATOM     17  C   UNL     1       2.108   6.818  20.931  0.00  0.00    +0.000 A 
ATOM     18  C   UNL     1       2.832   6.117  19.903  0.00  0.00    +0.000 A 
ATOM     19  C   UNL     1       2.979   6.602  18.621  0.00  0.00    +0.000 A 
ATOM     20  C   UNL     1       3.657   5.897  17.469  0.00  0.00    +0.000 C 
ATOM     21  C   UNL     1       2.369   7.839  18.340  0.00  0.00    +0.000 A 
ATOM     22  C   UNL     1       1.668   8.555  19.343  0.00  0.00    +0.000 A 
ATOM     23  C   UNL     1      -1.276  10.945  20.510  0.00  0.00    +0.000 C 
ATOM     24  N   UNL     1      -1.986  12.372  21.078  0.00  0.00    +0.000 N 
ATOM     25  H   UNL     1       0.274   8.787  22.228  0.00  0.00    +0.000 HD
ENDROOT
BRANCH  24  26
ATOM     26  C   UNL     1      -1.518  13.444  21.875  0.00  0.00    +0.000 A 
ATOM     27  C   UNL     1      -1.873  13.625  23.217  0.00  0.00    +0.000 A 
ATOM     28  C   UNL     1      -1.180  14.546  24.049  0.00  0.00    +0.000 A 
ATOM     29  C   UNL     1      -0.111  15.316  23.579  0.00  0.00    +0.000 A 
ATOM     30  C   UNL     1       0.244  15.176  22.261  0.00  0.00    +0.000 A 
ATOM     31  F   UNL     1       1.291  15.868  21.770  0.00  0.00    +0.000 F 
ATOM     32  C   UNL     1      -0.456  14.275  21.429  0.00  0.00    +0.000 A 
ENDBRANCH  24  26
TORSDOF 1
ENDMDL
MODEL 6
REMARK VINA RESULT:      -7.1      2.127      4.714
REMARK  Name = 
REMARK  3 active torsions:
REMARK  status: ('A' for Active; 'I' for Inactive)
REMARK    1  A    between atoms: C_1  and  C_2
REMARK    2  A    between atoms: C_19  and  C_20
REMARK    3  A    between atoms: N_24  and  C_25
REMARK                            x       y       z     vdW  Elec       q    Type
REMARK                         _______ _______ _______ _____ _____    ______ ____
ROOT
ATOM      1  C   UNL     1      -0.238  16.239  23.694  0.00  0.00    +0.000 C 
ATOM      2  C   UNL     1      -1.314  15.374  23.121  0.00  0.00    +0.000 A 
ATOM      3  C   UNL     1      -2.503  15.812  22.537  0.00  0.00    +0.000 A 
ATOM      4  C   UNL     1      -3.227  14.959  21.642  0.00  0.00    +0.000 A 
ATOM      5  C   UNL     1      -2.776  13.662  21.412  0.00  0.00    +0.000 A 
ATOM      6  C   UNL     1      -2.058  13.216  22.488  0.00  0.00    +0.000 A 
ATOM      7  C   UNL     1      -1.117  14.021  23.118  0.00  0.00    +0.000 A 
ATOM      8  C   UNL     1      -1.868  11.812  22.513  0.00  0.00    +0.000 C 
ATOM      9  O   UNL     1      -2.076  11.107  23.485  0.00  0.00    +0.000 OA
ATOM     10  N   UNL     1      -1.047  11.627  21.478  0.00  0.00    +0.000 N 
ATOM     11  C   UNL     1       0.300  11.282  21.814  0.00  0.00    +0.000 C 
ATOM     12  C   UNL     1       0.354   9.799  21.672  0.00  0.00    +0.000 C 
ATOM     13  C   UNL     1      -0.012   9.573  20.229  0.00  0.00    +0.000 A 
ATOM     14  C   UNL     1      -0.800  10.474  19.426  0.00  0.00    +0.000 A 
ATOM     15  N   UNL     1      -0.131  10.289  18.173  0.00  0.00    +0.000 N 
ATOM     16  C   UNL     1       0.870   9.261  18.221  0.00  0.00    +0.000 A 
ATOM     17  C   UNL     1       1.900   8.786  17.350  0.00  0.00    +0.000 A 
ATOM     18  C   UNL     1       2.823   7.788  17.825  0.00  0.00    +0.000 A 
ATOM     19  C   UNL     1       2.771   7.259  19.096  0.00  0.00    +0.000 A 
ATOM     20  C   UNL     1       3.742   6.267  19.694  0.00  0.00    +0.000 C 
ATOM     21  C   UNL     1       1.760   7.750  19.944  0.00  0.00    +0.000 A 
ATOM     22  C   UNL     1       0.829   8.718  19.491  0.00  0.00    +0.000 A 
ATOM     23  C   UNL     1      -1.507  11.867  20.102  0.00  0.00    +0.000 C 
ATOM     24  N   UNL     1      -2.963  12.709  20.283  0.00  0.00    +0.000 N 
ATOM     25  H   UNL     1      -0.192  10.918  17.384  0.00  0.00    +0.000 HD
ENDROOT
BRANCH  24  26
ATOM     26  C   UNL     1      -4.277  12.499  19.801  0.00  0.00    +0.000 A 
ATOM     27  C   UNL     1      -4.574  12.189  18.469  0.00  0.00    +0.000 A 
ATOM     28  C   UNL     1      -5.862  11.726  18.085  0.00  0.00    +0.000 A 
ATOM     29  C   UNL     1      -6.897  11.553  19.011  0.00  0.00    +0.000 A 
ATOM     30  C   UNL     1      -6.641  11.870  20.321  0.00  0.00    +0.000 A 
ATOM     31  F   UNL     1      -7.593  11.685  21.255  0.00  0.00    +0.000 F 
ATOM     32  C   UNL     1      -5.367  12.348  20.699  0.00  0.00    +0.000 A 
ENDBRANCH  24  26
TORSDOF 1
ENDMDL
MODEL 7
REMARK VINA RESULT:      -7.0      4.009      6.688
REMARK  Name = 
REMARK  3 active torsions:
REMARK  status: ('A' for Active; 'I' for Inactive)
REMARK    1  A    between atoms: C_1  and  C_2
REMARK    2  A    between atoms: C_19  and  C_20
REMARK    3  A    between atoms: N_24  and  C_25
REMARK                            x       y       z     vdW  Elec       q    Type
REMARK                         _______ _______ _______ _____ _____    ______ ____
ROOT
ATOM      1  C   UNL     1      -3.425  14.505  25.126  0.00  0.00    +0.000 C 
ATOM      2  C   UNL     1      -3.299  13.620  23.929  0.00  0.00    +0.000 A 
ATOM      3  C   UNL     1      -4.347  13.119  23.157  0.00  0.00    +0.000 A 
ATOM      4  C   UNL     1      -4.110  12.674  21.815  0.00  0.00    +0.000 A 
ATOM      5  C   UNL     1      -2.813  12.676  21.309  0.00  0.00    +0.000 A 
ATOM      6  C   UNL     1      -1.909  12.559  22.330  0.00  0.00    +0.000 A 
ATOM      7  C   UNL     1      -2.041  13.289  23.505  0.00  0.00    +0.000 A 
ATOM      8  C   UNL     1      -0.608  12.191  21.909  0.00  0.00    +0.000 C 
ATOM      9  O   UNL     1       0.050  11.296  22.409  0.00  0.00    +0.000 OA
ATOM     10  N   UNL     1      -0.212  13.282  21.251  0.00  0.00    +0.000 N 
ATOM     11  C   UNL     1       0.794  14.064  21.902  0.00  0.00    +0.000 C 
ATOM     12  C   UNL     1       2.072  13.641  21.259  0.00  0.00    +0.000 C 
ATOM     13  C   UNL     1       1.858  13.974  19.806  0.00  0.00    +0.000 A 
ATOM     14  C   UNL     1       0.573  14.066  19.160  0.00  0.00    +0.000 A 
ATOM     15  N   UNL     1       0.859  15.144  18.260  0.00  0.00    +0.000 N 
ATOM     16  C   UNL     1       2.237  15.544  18.290  0.00  0.00    +0.000 A 
ATOM     17  C   UNL     1       3.009  16.616  17.743  0.00  0.00    +0.000 A 
ATOM     18  C   UNL     1       4.391  16.757  18.121  0.00  0.00    +0.000 A 
ATOM     19  C   UNL     1       5.022  15.903  19.000  0.00  0.00    +0.000 A 
ATOM     20  C   UNL     1       6.442  16.024  19.503  0.00  0.00    +0.000 C 
ATOM     21  C   UNL     1       4.242  14.863  19.540  0.00  0.00    +0.000 A 
ATOM     22  C   UNL     1       2.885  14.694  19.166  0.00  0.00    +0.000 A 
ATOM     23  C   UNL     1      -0.861  13.677  19.991  0.00  0.00    +0.000 C 
ATOM     24  N   UNL     1      -2.265  12.736  19.925  0.00  0.00    +0.000 N 
ATOM     25  H   UNL     1       0.164  15.707  17.791  0.00  0.00    +0.000 HD
ENDROOT
BRANCH  24  26
ATOM     26  C   UNL     1      -2.802  11.852  18.959  0.00  0.00    +0.000 A 
ATOM     27  C   UNL     1      -4.057  12.025  18.363  0.00  0.00    +0.000 A 
ATOM     28  C   UNL     1      -4.442  11.278  17.217  0.00  0.00    +0.000 A 
ATOM     29  C   UNL     1      -3.595  10.337  16.622  0.00  0.00    +0.000 A 
ATOM     30  C   UNL     1      -2.367  10.130  17.199  0.00  0.00    +0.000 A 
ATOM     31  F   UNL     1      -1.501   9.262  16.641  0.00  0.00    +0.000 F 
ATOM     32  C   UNL     1      -1.991  10.859  18.349  0.00  0.00    +0.000 A 
ENDBRANCH  24  26
TORSDOF 1
ENDMDL
MODEL 8
REMARK VINA RESULT:      -7.0      4.389      9.596
REMARK  Name = 
REMARK  3 active torsions:
REMARK  status: ('A' for Active; 'I' for Inactive)
REMARK    1  A    between atoms: C_1  and  C_2
REMARK    2  A    between atoms: C_19  and  C_20
REMARK    3  A    between atoms: N_24  and  C_25
REMARK                            x       y       z     vdW  Elec       q    Type
REMARK                         _______ _______ _______ _____ _____    ______ ____
ROOT
ATOM      1  C   UNL     1       0.350   1.430  18.828  0.00  0.00    +0.000 C 
ATOM      2  C   UNL     1       1.560   2.282  18.621  0.00  0.00    +0.000 A 
ATOM      3  C   UNL     1       2.528   2.116  17.630  0.00  0.00    +0.000 A 
ATOM      4  C   UNL     1       3.368   3.212  17.247  0.00  0.00    +0.000 A 
ATOM      5  C   UNL     1       3.264   4.426  17.920  0.00  0.00    +0.000 A 
ATOM      6  C   UNL     1       2.795   4.222  19.189  0.00  0.00    +0.000 A 
ATOM      7  C   UNL     1       1.735   3.361  19.443  0.00  0.00    +0.000 A 
ATOM      8  C   UNL     1       2.993   5.321  20.061  0.00  0.00    +0.000 C 
ATOM      9  O   UNL     1       3.473   5.237  21.178  0.00  0.00    +0.000 OA
ATOM     10  N   UNL     1       2.160   6.230  19.551  0.00  0.00    +0.000 N 
ATOM     11  C   UNL     1       0.992   6.502  20.332  0.00  0.00    +0.000 C 
ATOM     12  C   UNL     1       1.326   7.745  21.087  0.00  0.00    +0.000 C 
ATOM     13  C   UNL     1       1.603   8.748  19.999  0.00  0.00    +0.000 A 
ATOM     14  C   UNL     1       2.042   8.422  18.665  0.00  0.00    +0.000 A 
ATOM     15  N   UNL     1       1.334   9.440  17.949  0.00  0.00    +0.000 N 
ATOM     16  C   UNL     1       0.655  10.363  18.815  0.00  0.00    +0.000 A 
ATOM     17  C   UNL     1      -0.285  11.427  18.650  0.00  0.00    +0.000 A 
ATOM     18  C   UNL     1      -0.858  12.052  19.814  0.00  0.00    +0.000 A 
ATOM     19  C   UNL     1      -0.547  11.671  21.102  0.00  0.00    +0.000 A 
ATOM     20  C   UNL     1      -1.156  12.222  22.370  0.00  0.00    +0.000 C 
ATOM     21  C   UNL     1       0.369  10.611  21.244  0.00  0.00    +0.000 A 
ATOM     22  C   UNL     1       0.959   9.995  20.112  0.00  0.00    +0.000 A 
ATOM     23  C   UNL     1       2.408   6.819  18.227  0.00  0.00    +0.000 C 
ATOM     24  N   UNL     1       3.594   5.828  17.539  0.00  0.00    +0.000 N 
ATOM     25  H   UNL     1       1.150   9.430  16.955  0.00  0.00    +0.000 HD
ENDROOT
BRANCH  24  26
ATOM     26  C   UNL     1       4.865   6.079  16.971  0.00  0.00    +0.000 A 
ATOM     27  C   UNL     1       5.941   6.618  17.686  0.00  0.00    +0.000 A 
ATOM     28  C   UNL     1       7.262   6.605  17.160  0.00  0.00    +0.000 A 
ATOM     29  C   UNL     1       7.559   6.054  15.909  0.00  0.00    +0.000 A 
ATOM     30  C   UNL     1       6.520   5.539  15.175  0.00  0.00    +0.000 A 
ATOM     31  F   UNL     1       6.761   4.964  13.982  0.00  0.00    +0.000 F 
ATOM     32  C   UNL     1       5.205   5.570  15.690  0.00  0.00    +0.000 A 
ENDBRANCH  24  26
TORSDOF 1
ENDMDL
MODEL 9
REMARK VINA RESULT:      -6.9      2.466      4.851
REMARK  Name = 
REMARK  3 active torsions:
REMARK  status: ('A' for Active; 'I' for Inactive)
REMARK    1  A    between atoms: C_1  and  C_2
REMARK    2  A    between atoms: C_19  and  C_20
REMARK    3  A    between atoms: N_24  and  C_25
REMARK                            x       y       z     vdW  Elec       q    Type
REMARK                         _______ _______ _______ _____ _____    ______ ____
ROOT
ATOM      1  C   UNL     1       0.828  15.821  22.809  0.00  0.00    +0.000 C 
ATOM      2  C   UNL     1      -0.266  14.966  22.258  0.00  0.00    +0.000 A 
ATOM      3  C   UNL     1      -1.414  15.412  21.603  0.00  0.00    +0.000 A 
ATOM      4  C   UNL     1      -2.146  14.530  20.743  0.00  0.00    +0.000 A 
ATOM      5  C   UNL     1      -1.749  13.201  20.622  0.00  0.00    +0.000 A 
ATOM      6  C   UNL     1      -1.088  12.802  21.751  0.00  0.00    +0.000 A 
ATOM      7  C   UNL     1      -0.132  13.608  22.358  0.00  0.00    +0.000 A 
ATOM      8  C   UNL     1      -0.964  11.397  21.882  0.00  0.00    +0.000 C 
ATOM      9  O   UNL     1      -1.236  10.772  22.891  0.00  0.00    +0.000 OA
ATOM     10  N   UNL     1      -0.119  11.102  20.892  0.00  0.00    +0.000 N 
ATOM     11  C   UNL     1       1.200  10.725  21.300  0.00  0.00    +0.000 C 
ATOM     12  C   UNL     1       1.190   9.233  21.264  0.00  0.00    +0.000 C 
ATOM     13  C   UNL     1       0.863   8.922  19.828  0.00  0.00    +0.000 A 
ATOM     14  C   UNL     1       0.144   9.796  18.936  0.00  0.00    +0.000 A 
ATOM     15  N   UNL     1       0.845   9.494  17.724  0.00  0.00    +0.000 N 
ATOM     16  C   UNL     1       1.796   8.429  17.880  0.00  0.00    +0.000 A 
ATOM     17  C   UNL     1       2.831   7.849  17.083  0.00  0.00    +0.000 A 
ATOM     18  C   UNL     1       3.691   6.848  17.659  0.00  0.00    +0.000 A 
ATOM     19  C   UNL     1       3.572   6.413  18.962  0.00  0.00    +0.000 A 
ATOM     20  C   UNL     1       4.476   5.426  19.662  0.00  0.00    +0.000 C 
ATOM     21  C   UNL     1       2.557   7.008  19.736  0.00  0.00    +0.000 A 
ATOM     22  C   UNL     1       1.687   7.980  19.183  0.00  0.00    +0.000 A 
ATOM     23  C   UNL     1      -0.520  11.263  19.487  0.00  0.00    +0.000 C 
ATOM     24  N   UNL     1      -1.941  12.178  19.555  0.00  0.00    +0.000 N 
ATOM     25  H   UNL     1       0.839  10.067  16.892  0.00  0.00    +0.000 HD
ENDROOT
BRANCH  24  26
ATOM     26  C   UNL     1      -3.247  11.992  19.042  0.00  0.00    +0.000 A 
ATOM     27  C   UNL     1      -4.401  12.484  19.663  0.00  0.00    +0.000 A 
ATOM     28  C   UNL     1      -5.652  12.511  18.987  0.00  0.00    +0.000 A 
ATOM     29  C   UNL     1      -5.798  12.052  17.673  0.00  0.00    +0.000 A 
ATOM     30  C   UNL     1      -4.688  11.544  17.048  0.00  0.00    +0.000 A 
ATOM     31  F   UNL     1      -4.770  11.125  15.770  0.00  0.00    +0.000 F 
ATOM     32  C   UNL     1      -3.450  11.500  17.725  0.00  0.00    +0.000 A 
ENDBRANCH  24  26
TORSDOF 1
ENDMDL
