MODEL 1
REMARK VINA RESULT:      -8.1      0.000      0.000
REMARK  Name = 
REMARK  5 active torsions:
REMARK  status: ('A' for Active; 'I' for Inactive)
REMARK    1  A    between atoms: C_1  and  N_2
REMARK    2  A    between atoms: C_6  and  C_7
REMARK    3  A    between atoms: C_6  and  C_8
REMARK    4  A    between atoms: C_10  and  C_11
REMARK    5  A    between atoms: C_14  and  N_15
REMARK                            x       y       z     vdW  Elec       q    Type
REMARK                         _______ _______ _______ _____ _____    ______ ____
ROOT
ATOM      1  C   UNL     1       3.623   6.182  18.544  0.00  0.00    +0.000 A 
ATOM      2  S   UNL     1       2.546   6.876  19.700  0.00  0.00    +0.000 S 
ATOM      3  C   UNL     1       2.216   8.256  18.755  0.00  0.00    +0.000 A 
ATOM      4  C   UNL     1       3.008   8.253  17.624  0.00  0.00    +0.000 A 
ATOM      5  C   UNL     1       3.799   7.070  17.494  0.00  0.00    +0.000 A 
ATOM      6 CL   UNL     1       4.826   6.870  16.137  0.00  0.00    +0.000 Cl
ENDROOT
BRANCH   1  12
ATOM      7  C   UNL     1       0.992   1.934  19.638  0.00  0.00    +0.000 C 
ATOM      8  N   UNL     1       2.016   2.968  19.387  0.00  0.00    +0.000 N 
ATOM      9  C   UNL     1       2.627   3.730  20.377  0.00  0.00    +0.000 C 
ATOM     10  N   UNL     1       2.090   3.961  21.520  0.00  0.00    +0.000 NA
ATOM     11  N   UNL     1       3.860   4.214  20.113  0.00  0.00    +0.000 N 
ATOM     12  C   UNL     1       4.245   4.803  18.829  0.00  0.00    +0.000 C 
ATOM     13  C   UNL     1       5.784   4.997  18.935  0.00  0.00    +0.000 C 
ATOM     14  C   UNL     1       4.008   3.766  17.742  0.00  0.00    +0.000 C 
ATOM     15  S   UNL     1       2.339   3.203  17.752  0.00  0.00    +0.000 S 
ATOM     16  O   UNL     1       2.331   1.907  17.105  0.00  0.00    +0.000 OA
ATOM     17  O   UNL     1       1.474   4.255  17.263  0.00  0.00    +0.000 OA
ATOM     18  H   UNL     1       1.134   3.608  21.527  0.00  0.00    +0.000 HD
ATOM     19  H   UNL     1       4.130   4.803  20.899  0.00  0.00    +0.000 HD
ENDBRANCH   1  12
BRANCH   3  20
ATOM     20  C   UNL     1       1.177   9.212  19.174  0.00  0.00    +0.000 A 
ATOM     21  C   UNL     1       0.725   9.297  20.503  0.00  0.00    +0.000 A 
ATOM     22  C   UNL     1      -0.316  10.159  20.861  0.00  0.00    +0.000 A 
ATOM     23  C   UNL     1      -0.925  10.957  19.887  0.00  0.00    +0.000 A 
ATOM     24  C   UNL     1      -0.475  10.901  18.564  0.00  0.00    +0.000 A 
ATOM     25  C   UNL     1       0.568  10.038  18.215  0.00  0.00    +0.000 A 
BRANCH  23  26
ATOM     26  N   UNL     1      -2.010  11.804  20.235  0.00  0.00    +0.000 N 
ATOM     27  N   UNL     1      -2.095  12.415  21.451  0.00  0.00    +0.000 NA
ATOM     28  C   UNL     1      -3.254  13.070  21.358  0.00  0.00    +0.000 A 
ATOM     29  C   UNL     1      -3.832  12.839  20.110  0.00  0.00    +0.000 A 
ATOM     30  N   UNL     1      -3.045  12.046  19.382  0.00  0.00    +0.000 NA
ENDBRANCH  23  26
ENDBRANCH   3  20
TORSDOF 3
ENDMDL
MODEL 2
REMARK VINA RESULT:      -8.1      3.041      3.934
REMARK  Name = 
REMARK  5 active torsions:
REMARK  status: ('A' for Active; 'I' for Inactive)
REMARK    1  A    between atoms: C_1  and  N_2
REMARK    2  A    between atoms: C_6  and  C_7
REMARK    3  A    between atoms: C_6  and  C_8
REMARK    4  A    between atoms: C_10  and  C_11
REMARK    5  A    between atoms: C_14  and  N_15
REMARK                            x       y       z     vdW  Elec       q    Type
REMARK                         _______ _______ _______ _____ _____    ______ ____
ROOT
ATOM      1  C   UNL     1       3.071   5.095  18.822  0.00  0.00    +0.000 A 
ATOM      2  S   UNL     1       2.620   6.742  18.572  0.00  0.00    +0.000 S 
ATOM      3  C   UNL     1       1.869   6.902  20.093  0.00  0.00    +0.000 A 
ATOM      4  C   UNL     1       1.851   5.683  20.741  0.00  0.00    +0.000 A 
ATOM      5  C   UNL     1       2.544   4.656  20.028  0.00  0.00    +0.000 A 
ATOM      6 CL   UNL     1       2.656   3.079  20.688  0.00  0.00    +0.000 Cl
ENDROOT
BRANCH   1  12
ATOM      7  C   UNL     1       7.540   6.695  16.917  0.00  0.00    +0.000 C 
ATOM      8  N   UNL     1       6.277   5.998  17.233  0.00  0.00    +0.000 N 
ATOM      9  C   UNL     1       5.077   6.194  16.558  0.00  0.00    +0.000 C 
ATOM     10  N   UNL     1       4.796   7.272  15.920  0.00  0.00    +0.000 NA
ATOM     11  N   UNL     1       4.192   5.174  16.559  0.00  0.00    +0.000 N 
ATOM     12  C   UNL     1       3.885   4.364  17.740  0.00  0.00    +0.000 C 
ATOM     13  C   UNL     1       3.005   3.203  17.197  0.00  0.00    +0.000 C 
ATOM     14  C   UNL     1       5.179   3.739  18.236  0.00  0.00    +0.000 C 
ATOM     15  S   UNL     1       6.398   4.969  18.560  0.00  0.00    +0.000 S 
ATOM     16  O   UNL     1       7.685   4.310  18.497  0.00  0.00    +0.000 OA
ATOM     17  O   UNL     1       6.028   5.711  19.746  0.00  0.00    +0.000 OA
ATOM     18  H   UNL     1       5.518   7.970  16.091  0.00  0.00    +0.000 HD
ATOM     19  H   UNL     1       3.349   5.502  16.091  0.00  0.00    +0.000 HD
ENDBRANCH   1  12
BRANCH   3  20
ATOM     20  C   UNL     1       1.393   8.218  20.552  0.00  0.00    +0.000 A 
ATOM     21  C   UNL     1       1.113   8.487  21.904  0.00  0.00    +0.000 A 
ATOM     22  C   UNL     1       0.589   9.720  22.305  0.00  0.00    +0.000 A 
ATOM     23  C   UNL     1       0.337  10.712  21.352  0.00  0.00    +0.000 A 
ATOM     24  C   UNL     1       0.630  10.470  20.006  0.00  0.00    +0.000 A 
ATOM     25  C   UNL     1       1.155   9.235  19.614  0.00  0.00    +0.000 A 
BRANCH  23  26
ATOM     26  N   UNL     1      -0.232  11.951  21.747  0.00  0.00    +0.000 N 
ATOM     27  N   UNL     1      -0.690  12.171  23.012  0.00  0.00    +0.000 NA
ATOM     28  C   UNL     1      -1.154  13.421  22.931  0.00  0.00    +0.000 A 
ATOM     29  C   UNL     1      -0.970  13.913  21.640  0.00  0.00    +0.000 A 
ATOM     30  N   UNL     1      -0.374  12.993  20.880  0.00  0.00    +0.000 NA
ENDBRANCH  23  26
ENDBRANCH   3  20
TORSDOF 3
ENDMDL
MODEL 3
REMARK VINA RESULT:      -7.6      1.104      1.636
REMARK  Name = 
REMARK  5 active torsions:
REMARK  status: ('A' for Active; 'I' for Inactive)
REMARK    1  A    between atoms: C_1  and  N_2
REMARK    2  A    between atoms: C_6  and  C_7
REMARK    3  A    between atoms: C_6  and  C_8
REMARK    4  A    between atoms: C_10  and  C_11
REMARK    5  A    between atoms: C_14  and  N_15
REMARK                            x       y       z     vdW  Elec       q    Type
REMARK                         _______ _______ _______ _____ _____    ______ ____
ROOT
ATOM      1  C   UNL     1       3.205   6.320  19.029  0.00  0.00    +0.000 A 
ATOM      2  S   UNL     1       2.284   6.895  20.370  0.00  0.00    +0.000 S 
ATOM      3  C   UNL     1       1.790   8.324  19.583  0.00  0.00    +0.000 A 
ATOM      4  C   UNL     1       2.415   8.427  18.357  0.00  0.00    +0.000 A 
ATOM      5  C   UNL     1       3.210   7.284  18.032  0.00  0.00    +0.000 A 
ATOM      6 CL   UNL     1       4.040   7.214  16.535  0.00  0.00    +0.000 Cl
ENDROOT
BRANCH   1  12
ATOM      7  C   UNL     1       0.788   1.820  19.291  0.00  0.00    +0.000 C 
ATOM      8  N   UNL     1       1.758   2.933  19.263  0.00  0.00    +0.000 N 
ATOM      9  C   UNL     1       2.278   3.556  20.393  0.00  0.00    +0.000 C 
ATOM     10  N   UNL     1       1.679   3.570  21.528  0.00  0.00    +0.000 NA
ATOM     11  N   UNL     1       3.490   4.140  20.275  0.00  0.00    +0.000 N 
ATOM     12  C   UNL     1       3.896   4.948  19.123  0.00  0.00    +0.000 C 
ATOM     13  C   UNL     1       5.414   5.202  19.341  0.00  0.00    +0.000 C 
ATOM     14  C   UNL     1       3.770   4.090  17.874  0.00  0.00    +0.000 C 
ATOM     15  S   UNL     1       2.139   3.446  17.706  0.00  0.00    +0.000 S 
ATOM     16  O   UNL     1       2.237   2.273  16.862  0.00  0.00    +0.000 OA
ATOM     17  O   UNL     1       1.234   4.516  17.345  0.00  0.00    +0.000 OA
ATOM     18  H   UNL     1       0.746   3.172  21.428  0.00  0.00    +0.000 HD
ATOM     19  H   UNL     1       3.690   4.607  21.158  0.00  0.00    +0.000 HD
ENDBRANCH   1  12
BRANCH   3  20
ATOM     20  C   UNL     1       0.796   9.211  20.210  0.00  0.00    +0.000 A 
ATOM     21  C   UNL     1       0.094  10.188  19.480  0.00  0.00    +0.000 A 
ATOM     22  C   UNL     1      -0.788  11.071  20.111  0.00  0.00    +0.000 A 
ATOM     23  C   UNL     1      -0.985  10.989  21.493  0.00  0.00    +0.000 A 
ATOM     24  C   UNL     1      -0.311  10.011  22.232  0.00  0.00    +0.000 A 
ATOM     25  C   UNL     1       0.568   9.131  21.593  0.00  0.00    +0.000 A 
BRANCH  23  26
ATOM     26  N   UNL     1      -1.847  11.908  22.146  0.00  0.00    +0.000 N 
ATOM     27  N   UNL     1      -2.026  13.182  21.696  0.00  0.00    +0.000 NA
ATOM     28  C   UNL     1      -2.871  13.685  22.601  0.00  0.00    +0.000 A 
ATOM     29  C   UNL     1      -3.170  12.717  23.560  0.00  0.00    +0.000 A 
ATOM     30  N   UNL     1      -2.537  11.579  23.275  0.00  0.00    +0.000 NA
ENDBRANCH  23  26
ENDBRANCH   3  20
TORSDOF 3
ENDMDL
MODEL 4
REMARK VINA RESULT:      -7.5      4.351      9.499
REMARK  Name = 
REMARK  5 active torsions:
REMARK  status: ('A' for Active; 'I' for Inactive)
REMARK    1  A    between atoms: C_1  and  N_2
REMARK    2  A    between atoms: C_6  and  C_7
REMARK    3  A    between atoms: C_6  and  C_8
REMARK    4  A    between atoms: C_10  and  C_11
REMARK    5  A    between atoms: C_14  and  N_15
REMARK                            x       y       z     vdW  Elec       q    Type
REMARK                         _______ _______ _______ _____ _____    ______ ____
ROOT
ATOM      1  C   UNL     1      -0.733  12.393  19.691  0.00  0.00    +0.000 A 
ATOM      2  S   UNL     1       0.719  11.549  20.088  0.00  0.00    +0.000 S 
ATOM      3  C   UNL     1       0.298  10.149  19.213  0.00  0.00    +0.000 A 
ATOM      4  C   UNL     1      -0.987  10.269  18.722  0.00  0.00    +0.000 A 
ATOM      5  C   UNL     1      -1.572  11.547  18.980  0.00  0.00    +0.000 A 
ATOM      6 CL   UNL     1      -3.153  11.897  18.420  0.00  0.00    +0.000 Cl
ENDROOT
BRANCH   1  12
ATOM      7  C   UNL     1      -3.566  13.779  23.717  0.00  0.00    +0.000 C 
ATOM      8  N   UNL     1      -2.717  13.708  22.512  0.00  0.00    +0.000 N 
ATOM      9  C   UNL     1      -3.187  13.821  21.207  0.00  0.00    +0.000 C 
ATOM     10  N   UNL     1      -4.395  13.552  20.868  0.00  0.00    +0.000 NA
ATOM     11  N   UNL     1      -2.319  14.271  20.274  0.00  0.00    +0.000 N 
ATOM     12  C   UNL     1      -0.923  13.838  20.184  0.00  0.00    +0.000 C 
ATOM     13  C   UNL     1      -0.291  14.782  19.124  0.00  0.00    +0.000 C 
ATOM     14  C   UNL     1      -0.244  14.149  21.508  0.00  0.00    +0.000 C 
ATOM     15  S   UNL     1      -1.098  13.398  22.854  0.00  0.00    +0.000 S 
ATOM     16  O   UNL     1      -0.744  14.144  24.044  0.00  0.00    +0.000 OA
ATOM     17  O   UNL     1      -0.890  11.966  22.816  0.00  0.00    +0.000 OA
ATOM     18  H   UNL     1      -4.890  13.142  21.658  0.00  0.00    +0.000 HD
ATOM     19  H   UNL     1      -2.792  14.226  19.373  0.00  0.00    +0.000 HD
ENDBRANCH   1  12
BRANCH   3  20
ATOM     20  C   UNL     1       1.273   9.059  19.040  0.00  0.00    +0.000 A 
ATOM     21  C   UNL     1       2.011   8.892  17.854  0.00  0.00    +0.000 A 
ATOM     22  C   UNL     1       2.874   7.806  17.685  0.00  0.00    +0.000 A 
ATOM     23  C   UNL     1       3.015   6.862  18.707  0.00  0.00    +0.000 A 
ATOM     24  C   UNL     1       2.305   7.023  19.901  0.00  0.00    +0.000 A 
ATOM     25  C   UNL     1       1.445   8.113  20.063  0.00  0.00    +0.000 A 
BRANCH  23  26
ATOM     26  N   UNL     1       3.858   5.734  18.525  0.00  0.00    +0.000 N 
ATOM     27  N   UNL     1       3.671   4.842  17.511  0.00  0.00    +0.000 NA
ATOM     28  C   UNL     1       4.644   3.955  17.733  0.00  0.00    +0.000 A 
ATOM     29  C   UNL     1       5.378   4.326  18.858  0.00  0.00    +0.000 A 
ATOM     30  N   UNL     1       4.898   5.463  19.364  0.00  0.00    +0.000 NA
ENDBRANCH  23  26
ENDBRANCH   3  20
TORSDOF 3
ENDMDL
MODEL 5
REMARK VINA RESULT:      -7.5      4.700      9.536
REMARK  Name = 
REMARK  5 active torsions:
REMARK  status: ('A' for Active; 'I' for Inactive)
REMARK    1  A    between atoms: C_1  and  N_2
REMARK    2  A    between atoms: C_6  and  C_7
REMARK    3  A    between atoms: C_6  and  C_8
REMARK    4  A    between atoms: C_10  and  C_11
REMARK    5  A    between atoms: C_14  and  N_15
REMARK                            x       y       z     vdW  Elec       q    Type
REMARK                         _______ _______ _______ _____ _____    ______ ____
ROOT
ATOM      1  C   UNL     1      -0.790  12.171  20.529  0.00  0.00    +0.000 A 
ATOM      2  S   UNL     1       0.597  11.203  20.870  0.00  0.00    +0.000 S 
ATOM      3  C   UNL     1       0.233  10.036  19.683  0.00  0.00    +0.000 A 
ATOM      4  C   UNL     1      -0.994  10.309  19.113  0.00  0.00    +0.000 A 
ATOM      5  C   UNL     1      -1.573  11.529  19.581  0.00  0.00    +0.000 A 
ATOM      6 CL   UNL     1      -3.083  12.054  18.965  0.00  0.00    +0.000 Cl
ENDROOT
BRANCH   1  12
ATOM      7  C   UNL     1       2.027  16.399  19.934  0.00  0.00    +0.000 C 
ATOM      8  N   UNL     1       1.074  15.352  20.353  0.00  0.00    +0.000 N 
ATOM      9  C   UNL     1       1.281  14.472  21.410  0.00  0.00    +0.000 C 
ATOM     10  N   UNL     1       2.447  14.154  21.843  0.00  0.00    +0.000 NA
ATOM     11  N   UNL     1       0.186  13.965  22.017  0.00  0.00    +0.000 N 
ATOM     12  C   UNL     1      -0.997  13.489  21.298  0.00  0.00    +0.000 C 
ATOM     13  C   UNL     1      -2.048  13.222  22.411  0.00  0.00    +0.000 C 
ATOM     14  C   UNL     1      -1.532  14.635  20.455  0.00  0.00    +0.000 C 
ATOM     15  S   UNL     1      -0.292  15.264  19.373  0.00  0.00    +0.000 S 
ATOM     16  O   UNL     1      -0.682  16.616  19.030  0.00  0.00    +0.000 OA
ATOM     17  O   UNL     1      -0.038  14.302  18.322  0.00  0.00    +0.000 OA
ATOM     18  H   UNL     1       3.159  14.543  21.227  0.00  0.00    +0.000 HD
ATOM     19  H   UNL     1       0.508  13.292  22.711  0.00  0.00    +0.000 HD
ENDBRANCH   1  12
BRANCH   3  20
ATOM     20  C   UNL     1       1.197   8.966  19.373  0.00  0.00    +0.000 A 
ATOM     21  C   UNL     1       1.836   8.869  18.124  0.00  0.00    +0.000 A 
ATOM     22  C   UNL     1       2.689   7.801  17.827  0.00  0.00    +0.000 A 
ATOM     23  C   UNL     1       2.918   6.806  18.782  0.00  0.00    +0.000 A 
ATOM     24  C   UNL     1       2.307   6.897  20.037  0.00  0.00    +0.000 A 
ATOM     25  C   UNL     1       1.458   7.969  20.327  0.00  0.00    +0.000 A 
BRANCH  23  26
ATOM     26  N   UNL     1       3.749   5.698  18.473  0.00  0.00    +0.000 N 
ATOM     27  N   UNL     1       4.942   5.486  19.099  0.00  0.00    +0.000 NA
ATOM     28  C   UNL     1       5.386   4.381  18.495  0.00  0.00    +0.000 A 
ATOM     29  C   UNL     1       4.467   3.964  17.533  0.00  0.00    +0.000 A 
ATOM     30  N   UNL     1       3.416   4.785  17.518  0.00  0.00    +0.000 NA
ENDBRANCH  23  26
ENDBRANCH   3  20
TORSDOF 3
ENDMDL
MODEL 6
REMARK VINA RESULT:      -7.4      4.026      8.994
REMARK  Name = 
REMARK  5 active torsions:
REMARK  status: ('A' for Active; 'I' for Inactive)
REMARK    1  A    between atoms: C_1  and  N_2
REMARK    2  A    between atoms: C_6  and  C_7
REMARK    3  A    between atoms: C_6  and  C_8
REMARK    4  A    between atoms: C_10  and  C_11
REMARK    5  A    between atoms: C_14  and  N_15
REMARK                            x       y       z     vdW  Elec       q    Type
REMARK                         _______ _______ _______ _____ _____    ______ ____
ROOT
ATOM      1  C   UNL     1       0.071  11.489  19.504  0.00  0.00    +0.000 A 
ATOM      2  S   UNL     1       0.784  10.252  18.535  0.00  0.00    +0.000 S 
ATOM      3  C   UNL     1       1.210   9.276  19.865  0.00  0.00    +0.000 A 
ATOM      4  C   UNL     1       0.924   9.936  21.044  0.00  0.00    +0.000 A 
ATOM      5  C   UNL     1       0.265  11.188  20.844  0.00  0.00    +0.000 A 
ATOM      6 CL   UNL     1      -0.197  12.139  22.191  0.00  0.00    +0.000 Cl
ENDROOT
BRANCH   1  12
ATOM      7  C   UNL     1      -4.736  11.635  17.761  0.00  0.00    +0.000 C 
ATOM      8  N   UNL     1      -3.327  11.893  18.121  0.00  0.00    +0.000 N 
ATOM      9  C   UNL     1      -2.244  11.679  17.275  0.00  0.00    +0.000 C 
ATOM     10  N   UNL     1      -2.266  10.844  16.301  0.00  0.00    +0.000 NA
ATOM     11  N   UNL     1      -1.136  12.421  17.489  0.00  0.00    +0.000 N 
ATOM     12  C   UNL     1      -0.585  12.700  18.817  0.00  0.00    +0.000 C 
ATOM     13  C   UNL     1       0.527  13.755  18.564  0.00  0.00    +0.000 C 
ATOM     14  C   UNL     1      -1.662  13.388  19.641  0.00  0.00    +0.000 C 
ATOM     15  S   UNL     1      -3.130  12.416  19.709  0.00  0.00    +0.000 S 
ATOM     16  O   UNL     1      -4.217  13.321  20.018  0.00  0.00    +0.000 OA
ATOM     17  O   UNL     1      -2.901  11.257  20.546  0.00  0.00    +0.000 OA
ATOM     18  H   UNL     1      -3.129  10.304  16.331  0.00  0.00    +0.000 HD
ATOM     19  H   UNL     1      -0.421  12.094  16.841  0.00  0.00    +0.000 HD
ENDBRANCH   1  12
BRANCH   3  20
ATOM     20  C   UNL     1       1.751   7.923  19.652  0.00  0.00    +0.000 A 
ATOM     21  C   UNL     1       2.443   7.567  18.480  0.00  0.00    +0.000 A 
ATOM     22  C   UNL     1       2.880   6.256  18.267  0.00  0.00    +0.000 A 
ATOM     23  C   UNL     1       2.631   5.273  19.230  0.00  0.00    +0.000 A 
ATOM     24  C   UNL     1       1.963   5.614  20.411  0.00  0.00    +0.000 A 
ATOM     25  C   UNL     1       1.531   6.928  20.617  0.00  0.00    +0.000 A 
BRANCH  23  26
ATOM     26  N   UNL     1       3.036   3.932  19.002  0.00  0.00    +0.000 N 
ATOM     27  N   UNL     1       2.548   3.191  17.967  0.00  0.00    +0.000 NA
ATOM     28  C   UNL     1       3.160   2.018  18.146  0.00  0.00    +0.000 A 
ATOM     29  C   UNL     1       3.985   2.079  19.269  0.00  0.00    +0.000 A 
ATOM     30  N   UNL     1       3.925   3.294  19.815  0.00  0.00    +0.000 NA
ENDBRANCH  23  26
ENDBRANCH   3  20
TORSDOF 3
ENDMDL
MODEL 7
REMARK VINA RESULT:      -7.3      4.740      9.501
REMARK  Name = 
REMARK  5 active torsions:
REMARK  status: ('A' for Active; 'I' for Inactive)
REMARK    1  A    between atoms: C_1  and  N_2
REMARK    2  A    between atoms: C_6  and  C_7
REMARK    3  A    between atoms: C_6  and  C_8
REMARK    4  A    between atoms: C_10  and  C_11
REMARK    5  A    between atoms: C_14  and  N_15
REMARK                            x       y       z     vdW  Elec       q    Type
REMARK                         _______ _______ _______ _____ _____    ______ ____
ROOT
ATOM      1  C   UNL     1      -0.571  12.149  20.697  0.00  0.00    +0.000 A 
ATOM      2  S   UNL     1       0.802  11.134  20.943  0.00  0.00    +0.000 S 
ATOM      3  C   UNL     1       0.301   9.963  19.811  0.00  0.00    +0.000 A 
ATOM      4  C   UNL     1      -0.957  10.275  19.336  0.00  0.00    +0.000 A 
ATOM      5  C   UNL     1      -1.451  11.523  19.826  0.00  0.00    +0.000 A 
ATOM      6 CL   UNL     1      -2.985  12.096  19.324  0.00  0.00    +0.000 Cl
ENDROOT
BRANCH   1  12
ATOM      7  C   UNL     1       2.161  16.339  19.629  0.00  0.00    +0.000 C 
ATOM      8  N   UNL     1       1.268  15.311  20.197  0.00  0.00    +0.000 N 
ATOM      9  C   UNL     1       1.611  14.453  21.237  0.00  0.00    +0.000 C 
ATOM     10  N   UNL     1       2.823  14.136  21.516  0.00  0.00    +0.000 NA
ATOM     11  N   UNL     1       0.606  13.969  21.997  0.00  0.00    +0.000 N 
ATOM     12  C   UNL     1      -0.666  13.486  21.455  0.00  0.00    +0.000 C 
ATOM     13  C   UNL     1      -1.559  13.252  22.705  0.00  0.00    +0.000 C 
ATOM     14  C   UNL     1      -1.304  14.617  20.665  0.00  0.00    +0.000 C 
ATOM     15  S   UNL     1      -0.218  15.211  19.412  0.00  0.00    +0.000 S 
ATOM     16  O   UNL     1      -0.644  16.558  19.092  0.00  0.00    +0.000 OA
ATOM     17  O   UNL     1      -0.112  14.223  18.359  0.00  0.00    +0.000 OA
ATOM     18  H   UNL     1       3.448  14.505  20.802  0.00  0.00    +0.000 HD
ATOM     19  H   UNL     1       1.014  13.309  22.657  0.00  0.00    +0.000 HD
ENDBRANCH   1  12
BRANCH   3  20
ATOM     20  C   UNL     1       1.196   8.853  19.445  0.00  0.00    +0.000 A 
ATOM     21  C   UNL     1       1.460   7.780  20.316  0.00  0.00    +0.000 A 
ATOM     22  C   UNL     1       2.373   6.777  19.976  0.00  0.00    +0.000 A 
ATOM     23  C   UNL     1       3.041   6.831  18.749  0.00  0.00    +0.000 A 
ATOM     24  C   UNL     1       2.777   7.879  17.861  0.00  0.00    +0.000 A 
ATOM     25  C   UNL     1       1.861   8.876  18.208  0.00  0.00    +0.000 A 
BRANCH  23  26
ATOM     26  N   UNL     1       4.000   5.839  18.415  0.00  0.00    +0.000 N 
ATOM     27  N   UNL     1       3.983   5.185  17.218  0.00  0.00    +0.000 NA
ATOM     28  C   UNL     1       5.015   4.346  17.341  0.00  0.00    +0.000 A 
ATOM     29  C   UNL     1       5.615   4.510  18.588  0.00  0.00    +0.000 A 
ATOM     30  N   UNL     1       4.988   5.465  19.276  0.00  0.00    +0.000 NA
ENDBRANCH  23  26
ENDBRANCH   3  20
TORSDOF 3
ENDMDL
MODEL 8
REMARK VINA RESULT:      -7.2      4.217      9.275
REMARK  Name = 
REMARK  5 active torsions:
REMARK  status: ('A' for Active; 'I' for Inactive)
REMARK    1  A    between atoms: C_1  and  N_2
REMARK    2  A    between atoms: C_6  and  C_7
REMARK    3  A    between atoms: C_6  and  C_8
REMARK    4  A    between atoms: C_10  and  C_11
REMARK    5  A    between atoms: C_14  and  N_15
REMARK                            x       y       z     vdW  Elec       q    Type
REMARK                         _______ _______ _______ _____ _____    ______ ____
ROOT
ATOM      1  C   UNL     1      -0.249  10.697  20.167  0.00  0.00    +0.000 A 
ATOM      2  S   UNL     1       0.828  10.210  18.911  0.00  0.00    +0.000 S 
ATOM      3  C   UNL     1       1.377   8.827  19.741  0.00  0.00    +0.000 A 
ATOM      4  C   UNL     1       0.841   8.797  21.013  0.00  0.00    +0.000 A 
ATOM      5  C   UNL     1      -0.094   9.850  21.255  0.00  0.00    +0.000 A 
ATOM      6 CL   UNL     1      -0.889   9.962  22.769  0.00  0.00    +0.000 Cl
ENDROOT
BRANCH   1  12
ATOM      7  C   UNL     1       0.640  15.303  22.207  0.00  0.00    +0.000 C 
ATOM      8  N   UNL     1       0.100  14.116  21.513  0.00  0.00    +0.000 N 
ATOM      9  C   UNL     1      -0.827  13.235  22.061  0.00  0.00    +0.000 C 
ATOM     10  N   UNL     1      -0.981  13.071  23.324  0.00  0.00    +0.000 NA
ATOM     11  N   UNL     1      -1.616  12.554  21.201  0.00  0.00    +0.000 N 
ATOM     12  C   UNL     1      -1.132  11.941  19.963  0.00  0.00    +0.000 C 
ATOM     13  C   UNL     1      -2.421  11.485  19.224  0.00  0.00    +0.000 C 
ATOM     14  C   UNL     1      -0.501  13.031  19.110  0.00  0.00    +0.000 C 
ATOM     15  S   UNL     1       0.774  13.871  19.990  0.00  0.00    +0.000 S 
ATOM     16  O   UNL     1       0.934  15.165  19.360  0.00  0.00    +0.000 OA
ATOM     17  O   UNL     1       1.917  12.995  20.133  0.00  0.00    +0.000 OA
ATOM     18  H   UNL     1      -0.257  13.581  23.828  0.00  0.00    +0.000 HD
ATOM     19  H   UNL     1      -2.179  11.908  21.752  0.00  0.00    +0.000 HD
ENDBRANCH   1  12
BRANCH   3  20
ATOM     20  C   UNL     1       2.257   7.856  19.069  0.00  0.00    +0.000 A 
ATOM     21  C   UNL     1       2.570   6.607  19.635  0.00  0.00    +0.000 A 
ATOM     22  C   UNL     1       3.469   5.734  19.013  0.00  0.00    +0.000 A 
ATOM     23  C   UNL     1       4.072   6.100  17.806  0.00  0.00    +0.000 A 
ATOM     24  C   UNL     1       3.757   7.329  17.218  0.00  0.00    +0.000 A 
ATOM     25  C   UNL     1       2.856   8.195  17.845  0.00  0.00    +0.000 A 
BRANCH  23  26
ATOM     26  N   UNL     1       5.016   5.237  17.191  0.00  0.00    +0.000 N 
ATOM     27  N   UNL     1       6.341   5.261  17.512  0.00  0.00    +0.000 NA
ATOM     28  C   UNL     1       6.847   4.333  16.696  0.00  0.00    +0.000 A 
ATOM     29  C   UNL     1       5.832   3.785  15.913  0.00  0.00    +0.000 A 
ATOM     30  N   UNL     1       4.661   4.341  16.227  0.00  0.00    +0.000 NA
ENDBRANCH  23  26
ENDBRANCH   3  20
TORSDOF 3
ENDMDL
MODEL 9
REMARK VINA RESULT:      -7.2      4.385      9.497
REMARK  Name = 
REMARK  5 active torsions:
REMARK  status: ('A' for Active; 'I' for Inactive)
REMARK    1  A    between atoms: C_1  and  N_2
REMARK    2  A    between atoms: C_6  and  C_7
REMARK    3  A    between atoms: C_6  and  C_8
REMARK    4  A    between atoms: C_10  and  C_11
REMARK    5  A    between atoms: C_14  and  N_15
REMARK                            x       y       z     vdW  Elec       q    Type
REMARK                         _______ _______ _______ _____ _____    ______ ____
ROOT
ATOM      1  C   UNL     1      -0.842  12.429  19.807  0.00  0.00    +0.000 A 
ATOM      2  S   UNL     1       0.598  11.558  20.190  0.00  0.00    +0.000 S 
ATOM      3  C   UNL     1       0.117  10.147  19.365  0.00  0.00    +0.000 A 
ATOM      4  C   UNL     1      -1.177  10.288  18.905  0.00  0.00    +0.000 A 
ATOM      5  C   UNL     1      -1.721  11.588  19.142  0.00  0.00    +0.000 A 
ATOM      6 CL   UNL     1      -3.307  11.964  18.614  0.00  0.00    +0.000 Cl
ENDROOT
BRANCH   1  12
ATOM      7  C   UNL     1      -3.521  13.997  23.872  0.00  0.00    +0.000 C 
ATOM      8  N   UNL     1      -2.709  13.872  22.645  0.00  0.00    +0.000 N 
ATOM      9  C   UNL     1      -3.214  13.962  21.352  0.00  0.00    +0.000 C 
ATOM     10  N   UNL     1      -4.437  13.715  21.054  0.00  0.00    +0.000 NA
ATOM     11  N   UNL     1      -2.363  14.364  20.383  0.00  0.00    +0.000 N 
ATOM     12  C   UNL     1      -0.981  13.892  20.266  0.00  0.00    +0.000 C 
ATOM     13  C   UNL     1      -0.356  14.790  19.162  0.00  0.00    +0.000 C 
ATOM     14  C   UNL     1      -0.256  14.221  21.561  0.00  0.00    +0.000 C 
ATOM     15  S   UNL     1      -1.090  13.529  22.951  0.00  0.00    +0.000 S 
ATOM     16  O   UNL     1      -0.682  14.298  24.108  0.00  0.00    +0.000 OA
ATOM     17  O   UNL     1      -0.919  12.092  22.947  0.00  0.00    +0.000 OA
ATOM     18  H   UNL     1      -4.920  13.340  21.870  0.00  0.00    +0.000 HD
ATOM     19  H   UNL     1      -2.862  14.307  19.497  0.00  0.00    +0.000 HD
ENDBRANCH   1  12
BRANCH   3  20
ATOM     20  C   UNL     1       1.058   9.027  19.197  0.00  0.00    +0.000 A 
ATOM     21  C   UNL     1       1.342   8.120  20.234  0.00  0.00    +0.000 A 
ATOM     22  C   UNL     1       2.297   7.111  20.074  0.00  0.00    +0.000 A 
ATOM     23  C   UNL     1       2.988   6.992  18.864  0.00  0.00    +0.000 A 
ATOM     24  C   UNL     1       2.705   7.872  17.815  0.00  0.00    +0.000 A 
ATOM     25  C   UNL     1       1.747   8.877  17.982  0.00  0.00    +0.000 A 
BRANCH  23  26
ATOM     26  N   UNL     1       3.988   5.997  18.710  0.00  0.00    +0.000 N 
ATOM     27  N   UNL     1       4.021   4.873  19.481  0.00  0.00    +0.000 NA
ATOM     28  C   UNL     1       5.111   4.250  19.026  0.00  0.00    +0.000 A 
ATOM     29  C   UNL     1       5.700   5.003  18.011  0.00  0.00    +0.000 A 
ATOM     30  N   UNL     1       4.989   6.110  17.791  0.00  0.00    +0.000 NA
ENDBRANCH  23  26
ENDBRANCH   3  20
TORSDOF 3
ENDMDL
