MODEL 1
REMARK VINA RESULT:      -7.1      0.000      0.000
REMARK  Name = 
REMARK  11 active torsions:
REMARK  status: ('A' for Active; 'I' for Inactive)
REMARK    1  A    between atoms: C_4  and  C_5
REMARK    2  A    between atoms: C_14  and  O_15
REMARK    3  A    between atoms: O_15  and  C_16
REMARK    4  A    between atoms: C_16  and  C_17
REMARK    5  A    between atoms: C_17  and  C_18
REMARK    6  A    between atoms: C_18  and  C_19
REMARK    7  A    between atoms: C_19  and  C_20
REMARK    8  A    between atoms: C_20  and  C_21
REMARK    9  A    between atoms: C_21  and  O_22
REMARK   10  A    between atoms: O_22  and  N_23
REMARK   11  A    between atoms: C_27  and  O_28
REMARK                            x       y       z     vdW  Elec       q    Type
REMARK                         _______ _______ _______ _____ _____    ______ ____
ROOT
ATOM      1  O   UNL     1       2.208   9.983  17.426  0.00  0.00    +0.000 OA
ATOM      2  C   UNL     1       1.741   9.571  18.478  0.00  0.00    +0.000 A 
ATOM      3  C   UNL     1       0.828  10.436  19.237  0.00  0.00    +0.000 A 
ATOM      4  C   UNL     1       0.299   9.991  20.382  0.00  0.00    +0.000 A 
ATOM      5  O   UNL     1       0.555   8.753  20.942  0.00  0.00    +0.000 OA
ATOM      6  C   UNL     1       1.389   7.896  20.260  0.00  0.00    +0.000 A 
ATOM      7  C   UNL     1       1.593   6.632  20.831  0.00  0.00    +0.000 A 
ATOM      8  C   UNL     1       2.439   5.706  20.219  0.00  0.00    +0.000 A 
ATOM      9  C   UNL     1       3.066   6.046  19.016  0.00  0.00    +0.000 A 
ATOM     10  C   UNL     1       2.855   7.304  18.441  0.00  0.00    +0.000 A 
ATOM     11  C   UNL     1       2.013   8.234  19.056  0.00  0.00    +0.000 A 
ENDROOT
BRANCH   4  12
ATOM     12  C   UNL     1      -0.638  10.829  21.141  0.00  0.00    +0.000 A 
ATOM     13  C   UNL     1      -0.763  10.676  22.528  0.00  0.00    +0.000 A 
ATOM     14  C   UNL     1      -1.675  11.458  23.245  0.00  0.00    +0.000 A 
ATOM     15  C   UNL     1      -2.464  12.396  22.583  0.00  0.00    +0.000 A 
ATOM     16  C   UNL     1      -2.344  12.559  21.203  0.00  0.00    +0.000 A 
ATOM     17  C   UNL     1      -1.436  11.773  20.484  0.00  0.00    +0.000 A 
ENDBRANCH   4  12
BRANCH  10  18
ATOM     18  O   UNL     1       3.492   7.602  17.270  0.00  0.00    +0.000 OA
ATOM     19  H   UNL     1       4.396   7.911  17.433  0.00  0.00    +0.000 HD
ENDBRANCH  10  18
BRANCH   8  20
ATOM     20  O   UNL     1       2.558   4.495  20.851  0.00  0.00    +0.000 OA
BRANCH  20  21
ATOM     21  C   UNL     1       1.366   3.709  20.897  0.00  0.00    +0.000 C 
BRANCH  21  22
ATOM     22  C   UNL     1       1.016   3.214  19.495  0.00  0.00    +0.000 C 
BRANCH  22  23
ATOM     23  C   UNL     1       1.924   2.049  19.095  0.00  0.00    +0.000 C 
BRANCH  23  24
ATOM     24  C   UNL     1       2.565   2.272  17.725  0.00  0.00    +0.000 C 
BRANCH  24  25
ATOM     25  C   UNL     1       3.940   2.924  17.859  0.00  0.00    +0.000 C 
BRANCH  25  26
ATOM     26  C   UNL     1       4.200   3.933  16.744  0.00  0.00    +0.000 C 
BRANCH  26  27
ATOM     27  O   UNL     1       5.535   3.738  16.288  0.00  0.00    +0.000 OA
BRANCH  27  28
ATOM     28  N   UNL     1       6.418   4.753  16.728  0.00  0.00    +0.000 N 
ATOM     29  O   UNL     1       7.618   4.469  16.785  0.00  0.00    +0.000 OA
ATOM     30  O   UNL     1       5.842   5.802  16.998  0.00  0.00    +0.000 OA
ENDBRANCH  27  28
ENDBRANCH  26  27
ENDBRANCH  25  26
ENDBRANCH  24  25
ENDBRANCH  23  24
ENDBRANCH  22  23
ENDBRANCH  21  22
ENDBRANCH  20  21
ENDBRANCH   8  20
TORSDOF 11
ENDMDL
MODEL 2
REMARK VINA RESULT:      -7.1      0.639      1.149
REMARK  Name = 
REMARK  11 active torsions:
REMARK  status: ('A' for Active; 'I' for Inactive)
REMARK    1  A    between atoms: C_4  and  C_5
REMARK    2  A    between atoms: C_14  and  O_15
REMARK    3  A    between atoms: O_15  and  C_16
REMARK    4  A    between atoms: C_16  and  C_17
REMARK    5  A    between atoms: C_17  and  C_18
REMARK    6  A    between atoms: C_18  and  C_19
REMARK    7  A    between atoms: C_19  and  C_20
REMARK    8  A    between atoms: C_20  and  C_21
REMARK    9  A    between atoms: C_21  and  O_22
REMARK   10  A    between atoms: O_22  and  N_23
REMARK   11  A    between atoms: C_27  and  O_28
REMARK                            x       y       z     vdW  Elec       q    Type
REMARK                         _______ _______ _______ _____ _____    ______ ____
ROOT
ATOM      1  O   UNL     1       2.094   9.841  17.427  0.00  0.00    +0.000 OA
ATOM      2  C   UNL     1       1.615   9.503  18.499  0.00  0.00    +0.000 A 
ATOM      3  C   UNL     1       0.713  10.429  19.198  0.00  0.00    +0.000 A 
ATOM      4  C   UNL     1       0.172  10.064  20.365  0.00  0.00    +0.000 A 
ATOM      5  O   UNL     1       0.405   8.859  21.003  0.00  0.00    +0.000 OA
ATOM      6  C   UNL     1       1.228   7.948  20.380  0.00  0.00    +0.000 A 
ATOM      7  C   UNL     1       1.408   6.720  21.030  0.00  0.00    +0.000 A 
ATOM      8  C   UNL     1       2.242   5.744  20.481  0.00  0.00    +0.000 A 
ATOM      9  C   UNL     1       2.880   5.998  19.264  0.00  0.00    +0.000 A 
ATOM     10  C   UNL     1       2.692   7.221  18.610  0.00  0.00    +0.000 A 
ATOM     11  C   UNL     1       1.863   8.201  19.161  0.00  0.00    +0.000 A 
ENDROOT
BRANCH   4  12
ATOM     12  C   UNL     1      -0.755  10.963  21.066  0.00  0.00    +0.000 A 
ATOM     13  C   UNL     1      -1.541  11.872  20.347  0.00  0.00    +0.000 A 
ATOM     14  C   UNL     1      -2.405  12.744  21.020  0.00  0.00    +0.000 A 
ATOM     15  C   UNL     1      -2.488  12.711  22.410  0.00  0.00    +0.000 A 
ATOM     16  C   UNL     1      -1.713  11.806  23.134  0.00  0.00    +0.000 A 
ATOM     17  C   UNL     1      -0.845  10.938  22.463  0.00  0.00    +0.000 A 
ENDBRANCH   4  12
BRANCH  10  18
ATOM     18  O   UNL     1       3.339   7.434  17.426  0.00  0.00    +0.000 OA
ATOM     19  H   UNL     1       2.808   7.123  16.677  0.00  0.00    +0.000 HD
ENDBRANCH  10  18
BRANCH   8  20
ATOM     20  O   UNL     1       2.338   4.572  21.188  0.00  0.00    +0.000 OA
BRANCH  20  21
ATOM     21  C   UNL     1       1.568   3.483  20.676  0.00  0.00    +0.000 C 
BRANCH  21  22
ATOM     22  C   UNL     1       2.451   2.582  19.817  0.00  0.00    +0.000 C 
BRANCH  22  23
ATOM     23  C   UNL     1       1.763   2.269  18.485  0.00  0.00    +0.000 C 
BRANCH  23  24
ATOM     24  C   UNL     1       2.631   2.665  17.290  0.00  0.00    +0.000 C 
BRANCH  24  25
ATOM     25  C   UNL     1       3.930   3.326  17.747  0.00  0.00    +0.000 C 
BRANCH  25  26
ATOM     26  C   UNL     1       4.675   3.975  16.584  0.00  0.00    +0.000 C 
BRANCH  26  27
ATOM     27  O   UNL     1       5.424   5.068  17.107  0.00  0.00    +0.000 OA
BRANCH  27  28
ATOM     28  N   UNL     1       6.049   5.836  16.097  0.00  0.00    +0.000 N 
ATOM     29  O   UNL     1       7.279   5.765  16.014  0.00  0.00    +0.000 OA
ATOM     30  O   UNL     1       5.251   6.483  15.426  0.00  0.00    +0.000 OA
ENDBRANCH  27  28
ENDBRANCH  26  27
ENDBRANCH  25  26
ENDBRANCH  24  25
ENDBRANCH  23  24
ENDBRANCH  22  23
ENDBRANCH  21  22
ENDBRANCH  20  21
ENDBRANCH   8  20
TORSDOF 11
ENDMDL
MODEL 3
REMARK VINA RESULT:      -7.0      4.415      9.883
REMARK  Name = 
REMARK  11 active torsions:
REMARK  status: ('A' for Active; 'I' for Inactive)
REMARK    1  A    between atoms: C_4  and  C_5
REMARK    2  A    between atoms: C_14  and  O_15
REMARK    3  A    between atoms: O_15  and  C_16
REMARK    4  A    between atoms: C_16  and  C_17
REMARK    5  A    between atoms: C_17  and  C_18
REMARK    6  A    between atoms: C_18  and  C_19
REMARK    7  A    between atoms: C_19  and  C_20
REMARK    8  A    between atoms: C_20  and  C_21
REMARK    9  A    between atoms: C_21  and  O_22
REMARK   10  A    between atoms: O_22  and  N_23
REMARK   11  A    between atoms: C_27  and  O_28
REMARK                            x       y       z     vdW  Elec       q    Type
REMARK                         _______ _______ _______ _____ _____    ______ ____
ROOT
ATOM      1  O   UNL     1       2.189   9.014  17.289  0.00  0.00    +0.000 OA
ATOM      2  C   UNL     1       2.006   8.491  18.378  0.00  0.00    +0.000 A 
ATOM      3  C   UNL     1       2.440   7.101  18.579  0.00  0.00    +0.000 A 
ATOM      4  C   UNL     1       2.258   6.522  19.771  0.00  0.00    +0.000 A 
ATOM      5  O   UNL     1       1.665   7.129  20.863  0.00  0.00    +0.000 OA
ATOM      6  C   UNL     1       1.259   8.438  20.733  0.00  0.00    +0.000 A 
ATOM      7  C   UNL     1       0.703   9.039  21.870  0.00  0.00    +0.000 A 
ATOM      8  C   UNL     1       0.245  10.357  21.823  0.00  0.00    +0.000 A 
ATOM      9  C   UNL     1       0.367  11.079  20.632  0.00  0.00    +0.000 A 
ATOM     10  C   UNL     1       0.931  10.482  19.499  0.00  0.00    +0.000 A 
ATOM     11  C   UNL     1       1.384   9.161  19.543  0.00  0.00    +0.000 A 
ENDROOT
BRANCH   4  12
ATOM     12  C   UNL     1       2.710   5.143  20.002  0.00  0.00    +0.000 A 
ATOM     13  C   UNL     1       2.089   4.347  20.974  0.00  0.00    +0.000 A 
ATOM     14  C   UNL     1       2.539   3.043  21.209  0.00  0.00    +0.000 A 
ATOM     15  C   UNL     1       3.607   2.529  20.477  0.00  0.00    +0.000 A 
ATOM     16  C   UNL     1       4.228   3.312  19.505  0.00  0.00    +0.000 A 
ATOM     17  C   UNL     1       3.783   4.618  19.273  0.00  0.00    +0.000 A 
ENDBRANCH   4  12
BRANCH  10  18
ATOM     18  O   UNL     1       1.025  11.218  18.352  0.00  0.00    +0.000 OA
ATOM     19  H   UNL     1       1.376  10.684  17.623  0.00  0.00    +0.000 HD
ENDBRANCH  10  18
BRANCH   8  20
ATOM     20  O   UNL     1      -0.267  10.854  22.994  0.00  0.00    +0.000 OA
BRANCH  20  21
ATOM     21  C   UNL     1      -1.582  11.407  22.901  0.00  0.00    +0.000 C 
BRANCH  21  22
ATOM     22  C   UNL     1      -1.537  12.905  23.193  0.00  0.00    +0.000 C 
BRANCH  22  23
ATOM     23  C   UNL     1      -2.949  13.496  23.183  0.00  0.00    +0.000 C 
BRANCH  23  24
ATOM     24  C   UNL     1      -3.636  13.352  24.541  0.00  0.00    +0.000 C 
BRANCH  24  25
ATOM     25  C   UNL     1      -4.799  12.365  24.468  0.00  0.00    +0.000 C 
BRANCH  25  26
ATOM     26  C   UNL     1      -6.097  13.048  24.045  0.00  0.00    +0.000 C 
BRANCH  26  27
ATOM     27  O   UNL     1      -6.949  12.050  23.489  0.00  0.00    +0.000 OA
BRANCH  27  28
ATOM     28  N   UNL     1      -7.125  12.198  22.093  0.00  0.00    +0.000 N 
ATOM     29  O   UNL     1      -6.922  11.203  21.391  0.00  0.00    +0.000 OA
ATOM     30  O   UNL     1      -7.468  13.332  21.772  0.00  0.00    +0.000 OA
ENDBRANCH  27  28
ENDBRANCH  26  27
ENDBRANCH  25  26
ENDBRANCH  24  25
ENDBRANCH  23  24
ENDBRANCH  22  23
ENDBRANCH  21  22
ENDBRANCH  20  21
ENDBRANCH   8  20
TORSDOF 11
ENDMDL
MODEL 4
REMARK VINA RESULT:      -6.9      0.654      1.239
REMARK  Name = 
REMARK  11 active torsions:
REMARK  status: ('A' for Active; 'I' for Inactive)
REMARK    1  A    between atoms: C_4  and  C_5
REMARK    2  A    between atoms: C_14  and  O_15
REMARK    3  A    between atoms: O_15  and  C_16
REMARK    4  A    between atoms: C_16  and  C_17
REMARK    5  A    between atoms: C_17  and  C_18
REMARK    6  A    between atoms: C_18  and  C_19
REMARK    7  A    between atoms: C_19  and  C_20
REMARK    8  A    between atoms: C_20  and  C_21
REMARK    9  A    between atoms: C_21  and  O_22
REMARK   10  A    between atoms: O_22  and  N_23
REMARK   11  A    between atoms: C_27  and  O_28
REMARK                            x       y       z     vdW  Elec       q    Type
REMARK                         _______ _______ _______ _____ _____    ______ ____
ROOT
ATOM      1  O   UNL     1       2.077  10.001  17.613  0.00  0.00    +0.000 OA
ATOM      2  C   UNL     1       1.605   9.601  18.667  0.00  0.00    +0.000 A 
ATOM      3  C   UNL     1       0.693  10.477  19.415  0.00  0.00    +0.000 A 
ATOM      4  C   UNL     1       0.159  10.045  20.563  0.00  0.00    +0.000 A 
ATOM      5  O   UNL     1       0.409   8.811  21.136  0.00  0.00    +0.000 OA
ATOM      6  C   UNL     1       1.241   7.944  20.464  0.00  0.00    +0.000 A 
ATOM      7  C   UNL     1       1.438   6.686  21.048  0.00  0.00    +0.000 A 
ATOM      8  C   UNL     1       2.283   5.751  20.447  0.00  0.00    +0.000 A 
ATOM      9  C   UNL     1       2.915   6.077  19.243  0.00  0.00    +0.000 A 
ATOM     10  C   UNL     1       2.710   7.330  18.655  0.00  0.00    +0.000 A 
ATOM     11  C   UNL     1       1.870   8.269  19.259  0.00  0.00    +0.000 A 
ENDROOT
BRANCH   4  12
ATOM     12  C   UNL     1      -0.777  10.894  21.312  0.00  0.00    +0.000 A 
ATOM     13  C   UNL     1      -1.432  11.959  20.679  0.00  0.00    +0.000 A 
ATOM     14  C   UNL     1      -2.303  12.780  21.402  0.00  0.00    +0.000 A 
ATOM     15  C   UNL     1      -2.527  12.543  22.756  0.00  0.00    +0.000 A 
ATOM     16  C   UNL     1      -1.884  11.482  23.393  0.00  0.00    +0.000 A 
ATOM     17  C   UNL     1      -1.007  10.664  22.673  0.00  0.00    +0.000 A 
ENDBRANCH   4  12
BRANCH  10  18
ATOM     18  O   UNL     1       3.352   7.614  17.483  0.00  0.00    +0.000 OA
ATOM     19  H   UNL     1       2.855   7.276  16.723  0.00  0.00    +0.000 HD
ENDBRANCH  10  18
BRANCH   8  20
ATOM     20  O   UNL     1       2.395   4.545  21.091  0.00  0.00    +0.000 OA
BRANCH  20  21
ATOM     21  C   UNL     1       2.718   3.432  20.255  0.00  0.00    +0.000 C 
BRANCH  21  22
ATOM     22  C   UNL     1       1.555   3.138  19.310  0.00  0.00    +0.000 C 
BRANCH  22  23
ATOM     23  C   UNL     1       2.043   2.366  18.082  0.00  0.00    +0.000 C 
BRANCH  23  24
ATOM     24  C   UNL     1       3.563   2.436  17.933  0.00  0.00    +0.000 C 
BRANCH  24  25
ATOM     25  C   UNL     1       3.972   3.535  16.954  0.00  0.00    +0.000 C 
BRANCH  25  26
ATOM     26  C   UNL     1       5.351   4.100  17.279  0.00  0.00    +0.000 C 
BRANCH  26  27
ATOM     27  O   UNL     1       6.157   3.971  16.111  0.00  0.00    +0.000 OA
BRANCH  27  28
ATOM     28  N   UNL     1       7.375   4.686  16.205  0.00  0.00    +0.000 N 
ATOM     29  O   UNL     1       7.541   5.623  15.418  0.00  0.00    +0.000 OA
ATOM     30  O   UNL     1       8.113   4.257  17.086  0.00  0.00    +0.000 OA
ENDBRANCH  27  28
ENDBRANCH  26  27
ENDBRANCH  25  26
ENDBRANCH  24  25
ENDBRANCH  23  24
ENDBRANCH  22  23
ENDBRANCH  21  22
ENDBRANCH  20  21
ENDBRANCH   8  20
TORSDOF 11
ENDMDL
MODEL 5
REMARK VINA RESULT:      -6.9      0.995      1.143
REMARK  Name = 
REMARK  11 active torsions:
REMARK  status: ('A' for Active; 'I' for Inactive)
REMARK    1  A    between atoms: C_4  and  C_5
REMARK    2  A    between atoms: C_14  and  O_15
REMARK    3  A    between atoms: O_15  and  C_16
REMARK    4  A    between atoms: C_16  and  C_17
REMARK    5  A    between atoms: C_17  and  C_18
REMARK    6  A    between atoms: C_18  and  C_19
REMARK    7  A    between atoms: C_19  and  C_20
REMARK    8  A    between atoms: C_20  and  C_21
REMARK    9  A    between atoms: C_21  and  O_22
REMARK   10  A    between atoms: O_22  and  N_23
REMARK   11  A    between atoms: C_27  and  O_28
REMARK                            x       y       z     vdW  Elec       q    Type
REMARK                         _______ _______ _______ _____ _____    ______ ____
ROOT
ATOM      1  O   UNL     1       2.106  10.224  17.473  0.00  0.00    +0.000 OA
ATOM      2  C   UNL     1       1.724   9.884  18.583  0.00  0.00    +0.000 A 
ATOM      3  C   UNL     1       1.058  10.875  19.439  0.00  0.00    +0.000 A 
ATOM      4  C   UNL     1       0.623  10.512  20.650  0.00  0.00    +0.000 A 
ATOM      5  O   UNL     1       0.760   9.246  21.193  0.00  0.00    +0.000 OA
ATOM      6  C   UNL     1       1.359   8.276  20.423  0.00  0.00    +0.000 A 
ATOM      7  C   UNL     1       1.443   6.994  20.983  0.00  0.00    +0.000 A 
ATOM      8  C   UNL     1       2.054   5.952  20.282  0.00  0.00    +0.000 A 
ATOM      9  C   UNL     1       2.562   6.197  19.003  0.00  0.00    +0.000 A 
ATOM     10  C   UNL     1       2.469   7.475  18.439  0.00  0.00    +0.000 A 
ATOM     11  C   UNL     1       1.865   8.520  19.143  0.00  0.00    +0.000 A 
ENDROOT
BRANCH   4  12
ATOM     12  C   UNL     1      -0.071  11.479  21.511  0.00  0.00    +0.000 A 
ATOM     13  C   UNL     1      -1.012  11.043  22.452  0.00  0.00    +0.000 A 
ATOM     14  C   UNL     1      -1.689  11.970  23.253  0.00  0.00    +0.000 A 
ATOM     15  C   UNL     1      -1.430  13.332  23.118  0.00  0.00    +0.000 A 
ATOM     16  C   UNL     1      -0.492  13.775  22.187  0.00  0.00    +0.000 A 
ATOM     17  C   UNL     1       0.182  12.850  21.382  0.00  0.00    +0.000 A 
ENDBRANCH   4  12
BRANCH  10  18
ATOM     18  O   UNL     1       2.986   7.677  17.191  0.00  0.00    +0.000 OA
ATOM     19  H   UNL     1       3.037   8.622  16.983  0.00  0.00    +0.000 HD
ENDBRANCH  10  18
BRANCH   8  20
ATOM     20  O   UNL     1       2.070   4.735  20.913  0.00  0.00    +0.000 OA
BRANCH  20  21
ATOM     21  C   UNL     1       1.296   3.710  20.287  0.00  0.00    +0.000 C 
BRANCH  21  22
ATOM     22  C   UNL     1       2.190   2.521  19.944  0.00  0.00    +0.000 C 
BRANCH  22  23
ATOM     23  C   UNL     1       2.484   2.487  18.442  0.00  0.00    +0.000 C 
BRANCH  23  24
ATOM     24  C   UNL     1       3.913   2.930  18.132  0.00  0.00    +0.000 C 
BRANCH  24  25
ATOM     25  C   UNL     1       3.979   3.699  16.814  0.00  0.00    +0.000 C 
BRANCH  25  26
ATOM     26  C   UNL     1       5.419   3.984  16.395  0.00  0.00    +0.000 C 
BRANCH  26  27
ATOM     27  O   UNL     1       5.935   4.981  17.271  0.00  0.00    +0.000 OA
BRANCH  27  28
ATOM     28  N   UNL     1       7.207   4.647  17.792  0.00  0.00    +0.000 N 
ATOM     29  O   UNL     1       8.051   4.228  16.993  0.00  0.00    +0.000 OA
ATOM     30  O   UNL     1       7.291   4.828  19.002  0.00  0.00    +0.000 OA
ENDBRANCH  27  28
ENDBRANCH  26  27
ENDBRANCH  25  26
ENDBRANCH  24  25
ENDBRANCH  23  24
ENDBRANCH  22  23
ENDBRANCH  21  22
ENDBRANCH  20  21
ENDBRANCH   8  20
TORSDOF 11
ENDMDL
MODEL 6
REMARK VINA RESULT:      -6.9      3.406      5.504
REMARK  Name = 
REMARK  11 active torsions:
REMARK  status: ('A' for Active; 'I' for Inactive)
REMARK    1  A    between atoms: C_4  and  C_5
REMARK    2  A    between atoms: C_14  and  O_15
REMARK    3  A    between atoms: O_15  and  C_16
REMARK    4  A    between atoms: C_16  and  C_17
REMARK    5  A    between atoms: C_17  and  C_18
REMARK    6  A    between atoms: C_18  and  C_19
REMARK    7  A    between atoms: C_19  and  C_20
REMARK    8  A    between atoms: C_20  and  C_21
REMARK    9  A    between atoms: C_21  and  O_22
REMARK   10  A    between atoms: O_22  and  N_23
REMARK   11  A    between atoms: C_27  and  O_28
REMARK                            x       y       z     vdW  Elec       q    Type
REMARK                         _______ _______ _______ _____ _____    ______ ____
ROOT
ATOM      1  O   UNL     1       1.915   3.695  21.348  0.00  0.00    +0.000 OA
ATOM      2  C   UNL     1       2.132   4.611  20.568  0.00  0.00    +0.000 A 
ATOM      3  C   UNL     1       1.633   5.954  20.894  0.00  0.00    +0.000 A 
ATOM      4  C   UNL     1       1.876   6.967  20.055  0.00  0.00    +0.000 A 
ATOM      5  O   UNL     1       2.566   6.857  18.861  0.00  0.00    +0.000 OA
ATOM      6  C   UNL     1       3.072   5.623  18.519  0.00  0.00    +0.000 A 
ATOM      7  C   UNL     1       3.803   5.553  17.326  0.00  0.00    +0.000 A 
ATOM      8  C   UNL     1       4.335   4.338  16.891  0.00  0.00    +0.000 A 
ATOM      9  C   UNL     1       4.147   3.193  17.671  0.00  0.00    +0.000 A 
ATOM     10  C   UNL     1       3.425   3.265  18.868  0.00  0.00    +0.000 A 
ATOM     11  C   UNL     1       2.886   4.479  19.301  0.00  0.00    +0.000 A 
ENDROOT
BRANCH   4  12
ATOM     12  C   UNL     1       1.412   8.323  20.375  0.00  0.00    +0.000 A 
ATOM     13  C   UNL     1       1.098   8.673  21.695  0.00  0.00    +0.000 A 
ATOM     14  C   UNL     1       0.632   9.959  21.992  0.00  0.00    +0.000 A 
ATOM     15  C   UNL     1       0.478  10.899  20.976  0.00  0.00    +0.000 A 
ATOM     16  C   UNL     1       0.792  10.561  19.660  0.00  0.00    +0.000 A 
ATOM     17  C   UNL     1       1.253   9.275  19.360  0.00  0.00    +0.000 A 
ENDBRANCH   4  12
BRANCH  10  18
ATOM     18  O   UNL     1       3.256   2.122  19.597  0.00  0.00    +0.000 OA
ATOM     19  H   UNL     1       3.735   2.172  20.439  0.00  0.00    +0.000 HD
ENDBRANCH  10  18
BRANCH   8  20
ATOM     20  O   UNL     1       5.047   4.382  15.719  0.00  0.00    +0.000 OA
BRANCH  20  21
ATOM     21  C   UNL     1       6.420   4.001  15.822  0.00  0.00    +0.000 C 
BRANCH  21  22
ATOM     22  C   UNL     1       7.106   4.823  16.912  0.00  0.00    +0.000 C 
BRANCH  22  23
ATOM     23  C   UNL     1       7.388   6.243  16.415  0.00  0.00    +0.000 C 
BRANCH  23  24
ATOM     24  C   UNL     1       6.988   7.297  17.448  0.00  0.00    +0.000 C 
BRANCH  24  25
ATOM     25  C   UNL     1       8.218   7.975  18.048  0.00  0.00    +0.000 C 
BRANCH  25  26
ATOM     26  C   UNL     1       8.135   9.496  17.943  0.00  0.00    +0.000 C 
BRANCH  26  27
ATOM     27  O   UNL     1       8.849  10.045  19.047  0.00  0.00    +0.000 OA
BRANCH  27  28
ATOM     28  N   UNL     1       9.748  11.068  18.662  0.00  0.00    +0.000 N 
ATOM     29  O   UNL     1       9.377  11.836  17.769  0.00  0.00    +0.000 OA
ATOM     30  O   UNL     1      10.799  11.043  19.293  0.00  0.00    +0.000 OA
ENDBRANCH  27  28
ENDBRANCH  26  27
ENDBRANCH  25  26
ENDBRANCH  24  25
ENDBRANCH  23  24
ENDBRANCH  22  23
ENDBRANCH  21  22
ENDBRANCH  20  21
ENDBRANCH   8  20
TORSDOF 11
ENDMDL
MODEL 7
REMARK VINA RESULT:      -6.8      4.234      9.628
REMARK  Name = 
REMARK  11 active torsions:
REMARK  status: ('A' for Active; 'I' for Inactive)
REMARK    1  A    between atoms: C_4  and  C_5
REMARK    2  A    between atoms: C_14  and  O_15
REMARK    3  A    between atoms: O_15  and  C_16
REMARK    4  A    between atoms: C_16  and  C_17
REMARK    5  A    between atoms: C_17  and  C_18
REMARK    6  A    between atoms: C_18  and  C_19
REMARK    7  A    between atoms: C_19  and  C_20
REMARK    8  A    between atoms: C_20  and  C_21
REMARK    9  A    between atoms: C_21  and  O_22
REMARK   10  A    between atoms: O_22  and  N_23
REMARK   11  A    between atoms: C_27  and  O_28
REMARK                            x       y       z     vdW  Elec       q    Type
REMARK                         _______ _______ _______ _____ _____    ______ ____
ROOT
ATOM      1  O   UNL     1       2.068   9.313  17.282  0.00  0.00    +0.000 OA
ATOM      2  C   UNL     1       1.889   8.778  18.366  0.00  0.00    +0.000 A 
ATOM      3  C   UNL     1       2.330   7.389  18.554  0.00  0.00    +0.000 A 
ATOM      4  C   UNL     1       2.153   6.797  19.740  0.00  0.00    +0.000 A 
ATOM      5  O   UNL     1       1.559   7.391  20.839  0.00  0.00    +0.000 OA
ATOM      6  C   UNL     1       1.146   8.699  20.722  0.00  0.00    +0.000 A 
ATOM      7  C   UNL     1       0.589   9.286  21.865  0.00  0.00    +0.000 A 
ATOM      8  C   UNL     1       0.124  10.602  21.832  0.00  0.00    +0.000 A 
ATOM      9  C   UNL     1       0.241  11.336  20.648  0.00  0.00    +0.000 A 
ATOM     10  C   UNL     1       0.806  10.753  19.508  0.00  0.00    +0.000 A 
ATOM     11  C   UNL     1       1.265   9.434  19.539  0.00  0.00    +0.000 A 
ENDROOT
BRANCH   4  12
ATOM     12  C   UNL     1       2.612   5.419  19.957  0.00  0.00    +0.000 A 
ATOM     13  C   UNL     1       3.694   4.908  19.228  0.00  0.00    +0.000 A 
ATOM     14  C   UNL     1       4.112   3.587  19.420  0.00  0.00    +0.000 A 
ATOM     15  C   UNL     1       3.455   2.771  20.339  0.00  0.00    +0.000 A 
ATOM     16  C   UNL     1       2.381   3.273  21.073  0.00  0.00    +0.000 A 
ATOM     17  C   UNL     1       1.958   4.592  20.878  0.00  0.00    +0.000 A 
ENDBRANCH   4  12
BRANCH  10  18
ATOM     18  O   UNL     1       0.894  11.501  18.368  0.00  0.00    +0.000 OA
ATOM     19  H   UNL     1       0.138  11.337  17.785  0.00  0.00    +0.000 HD
ENDBRANCH  10  18
BRANCH   8  20
ATOM     20  O   UNL     1      -0.389  11.085  23.008  0.00  0.00    +0.000 OA
BRANCH  20  21
ATOM     21  C   UNL     1      -1.127  12.304  22.899  0.00  0.00    +0.000 C 
BRANCH  21  22
ATOM     22  C   UNL     1      -2.619  12.025  23.070  0.00  0.00    +0.000 C 
BRANCH  22  23
ATOM     23  C   UNL     1      -3.305  13.192  23.784  0.00  0.00    +0.000 C 
BRANCH  23  24
ATOM     24  C   UNL     1      -4.047  14.100  22.804  0.00  0.00    +0.000 C 
BRANCH  24  25
ATOM     25  C   UNL     1      -4.545  13.314  21.592  0.00  0.00    +0.000 C 
BRANCH  25  26
ATOM     26  C   UNL     1      -5.998  12.878  21.756  0.00  0.00    +0.000 C 
BRANCH  26  27
ATOM     27  O   UNL     1      -6.108  11.546  21.263  0.00  0.00    +0.000 OA
BRANCH  27  28
ATOM     28  N   UNL     1      -7.284  11.339  20.504  0.00  0.00    +0.000 N 
ATOM     29  O   UNL     1      -7.908  10.293  20.707  0.00  0.00    +0.000 OA
ATOM     30  O   UNL     1      -7.520  12.260  19.729  0.00  0.00    +0.000 OA
ENDBRANCH  27  28
ENDBRANCH  26  27
ENDBRANCH  25  26
ENDBRANCH  24  25
ENDBRANCH  23  24
ENDBRANCH  22  23
ENDBRANCH  21  22
ENDBRANCH  20  21
ENDBRANCH   8  20
TORSDOF 11
ENDMDL
MODEL 8
REMARK VINA RESULT:      -6.8      4.208      9.698
REMARK  Name = 
REMARK  11 active torsions:
REMARK  status: ('A' for Active; 'I' for Inactive)
REMARK    1  A    between atoms: C_4  and  C_5
REMARK    2  A    between atoms: C_14  and  O_15
REMARK    3  A    between atoms: O_15  and  C_16
REMARK    4  A    between atoms: C_16  and  C_17
REMARK    5  A    between atoms: C_17  and  C_18
REMARK    6  A    between atoms: C_18  and  C_19
REMARK    7  A    between atoms: C_19  and  C_20
REMARK    8  A    between atoms: C_20  and  C_21
REMARK    9  A    between atoms: C_21  and  O_22
REMARK   10  A    between atoms: O_22  and  N_23
REMARK   11  A    between atoms: C_27  and  O_28
REMARK                            x       y       z     vdW  Elec       q    Type
REMARK                         _______ _______ _______ _____ _____    ______ ____
ROOT
ATOM      1  O   UNL     1       2.169   9.266  17.310  0.00  0.00    +0.000 OA
ATOM      2  C   UNL     1       1.965   8.739  18.394  0.00  0.00    +0.000 A 
ATOM      3  C   UNL     1       2.373   7.341  18.591  0.00  0.00    +0.000 A 
ATOM      4  C   UNL     1       2.168   6.757  19.777  0.00  0.00    +0.000 A 
ATOM      5  O   UNL     1       1.574   7.368  20.867  0.00  0.00    +0.000 OA
ATOM      6  C   UNL     1       1.192   8.684  20.740  0.00  0.00    +0.000 A 
ATOM      7  C   UNL     1       0.635   9.288  21.876  0.00  0.00    +0.000 A 
ATOM      8  C   UNL     1       0.200  10.614  21.832  0.00  0.00    +0.000 A 
ATOM      9  C   UNL     1       0.346  11.341  20.647  0.00  0.00    +0.000 A 
ATOM     10  C   UNL     1       0.913  10.741  19.516  0.00  0.00    +0.000 A 
ATOM     11  C   UNL     1       1.342   9.413  19.557  0.00  0.00    +0.000 A 
ENDROOT
BRANCH   4  12
ATOM     12  C   UNL     1       2.594   5.370  20.005  0.00  0.00    +0.000 A 
ATOM     13  C   UNL     1       3.688   4.840  19.309  0.00  0.00    +0.000 A 
ATOM     14  C   UNL     1       4.075   3.511  19.510  0.00  0.00    +0.000 A 
ATOM     15  C   UNL     1       3.374   2.706  20.406  0.00  0.00    +0.000 A 
ATOM     16  C   UNL     1       2.287   3.226  21.107  0.00  0.00    +0.000 A 
ATOM     17  C   UNL     1       1.896   4.553  20.903  0.00  0.00    +0.000 A 
ENDBRANCH   4  12
BRANCH  10  18
ATOM     18  O   UNL     1       1.031  11.483  18.375  0.00  0.00    +0.000 OA
ATOM     19  H   UNL     1       0.859  10.942  17.589  0.00  0.00    +0.000 HD
ENDBRANCH  10  18
BRANCH   8  20
ATOM     20  O   UNL     1      -0.317  11.113  23.000  0.00  0.00    +0.000 OA
BRANCH  20  21
ATOM     21  C   UNL     1      -1.645  11.632  22.910  0.00  0.00    +0.000 C 
BRANCH  21  22
ATOM     22  C   UNL     1      -1.618  13.153  23.047  0.00  0.00    +0.000 C 
BRANCH  22  23
ATOM     23  C   UNL     1      -2.942  13.664  23.620  0.00  0.00    +0.000 C 
BRANCH  23  24
ATOM     24  C   UNL     1      -3.753  12.541  24.267  0.00  0.00    +0.000 C 
BRANCH  24  25
ATOM     25  C   UNL     1      -5.244  12.701  23.980  0.00  0.00    +0.000 C 
BRANCH  25  26
ATOM     26  C   UNL     1      -5.493  13.423  22.658  0.00  0.00    +0.000 C 
BRANCH  26  27
ATOM     27  O   UNL     1      -6.780  13.032  22.187  0.00  0.00    +0.000 OA
BRANCH  27  28
ATOM     28  N   UNL     1      -6.715  12.054  21.167  0.00  0.00    +0.000 N 
ATOM     29  O   UNL     1      -6.287  12.415  20.067  0.00  0.00    +0.000 OA
ATOM     30  O   UNL     1      -7.107  10.952  21.537  0.00  0.00    +0.000 OA
ENDBRANCH  27  28
ENDBRANCH  26  27
ENDBRANCH  25  26
ENDBRANCH  24  25
ENDBRANCH  23  24
ENDBRANCH  22  23
ENDBRANCH  21  22
ENDBRANCH  20  21
ENDBRANCH   8  20
TORSDOF 11
ENDMDL
MODEL 9
REMARK VINA RESULT:      -6.7      4.466      9.722
REMARK  Name = 
REMARK  11 active torsions:
REMARK  status: ('A' for Active; 'I' for Inactive)
REMARK    1  A    between atoms: C_4  and  C_5
REMARK    2  A    between atoms: C_14  and  O_15
REMARK    3  A    between atoms: O_15  and  C_16
REMARK    4  A    between atoms: C_16  and  C_17
REMARK    5  A    between atoms: C_17  and  C_18
REMARK    6  A    between atoms: C_18  and  C_19
REMARK    7  A    between atoms: C_19  and  C_20
REMARK    8  A    between atoms: C_20  and  C_21
REMARK    9  A    between atoms: C_21  and  O_22
REMARK   10  A    between atoms: O_22  and  N_23
REMARK   11  A    between atoms: C_27  and  O_28
REMARK                            x       y       z     vdW  Elec       q    Type
REMARK                         _______ _______ _______ _____ _____    ______ ____
ROOT
ATOM      1  O   UNL     1       2.270   9.074  17.281  0.00  0.00    +0.000 OA
ATOM      2  C   UNL     1       2.033   8.577  18.372  0.00  0.00    +0.000 A 
ATOM      3  C   UNL     1       2.395   7.172  18.606  0.00  0.00    +0.000 A 
ATOM      4  C   UNL     1       2.153   6.621  19.799  0.00  0.00    +0.000 A 
ATOM      5  O   UNL     1       1.559   7.272  20.866  0.00  0.00    +0.000 OA
ATOM      6  C   UNL     1       1.219   8.596  20.705  0.00  0.00    +0.000 A 
ATOM      7  C   UNL     1       0.660   9.239  21.817  0.00  0.00    +0.000 A 
ATOM      8  C   UNL     1       0.265  10.576  21.738  0.00  0.00    +0.000 A 
ATOM      9  C   UNL     1       0.453  11.274  20.541  0.00  0.00    +0.000 A 
ATOM     10  C   UNL     1       1.021  10.633  19.433  0.00  0.00    +0.000 A 
ATOM     11  C   UNL     1       1.410   9.294  19.509  0.00  0.00    +0.000 A 
ENDROOT
BRANCH   4  12
ATOM     12  C   UNL     1       2.534   5.227  20.064  0.00  0.00    +0.000 A 
ATOM     13  C   UNL     1       2.155   4.603  21.260  0.00  0.00    +0.000 A 
ATOM     14  C   UNL     1       2.541   3.283  21.519  0.00  0.00    +0.000 A 
ATOM     15  C   UNL     1       3.304   2.581  20.588  0.00  0.00    +0.000 A 
ATOM     16  C   UNL     1       3.681   3.193  19.393  0.00  0.00    +0.000 A 
ATOM     17  C   UNL     1       3.301   4.514  19.135  0.00  0.00    +0.000 A 
ENDBRANCH   4  12
BRANCH  10  18
ATOM     18  O   UNL     1       1.181  11.346  18.279  0.00  0.00    +0.000 OA
ATOM     19  H   UNL     1       1.750  12.118  18.422  0.00  0.00    +0.000 HD
ENDBRANCH  10  18
BRANCH   8  20
ATOM     20  O   UNL     1      -0.256  11.115  22.886  0.00  0.00    +0.000 OA
BRANCH  20  21
ATOM     21  C   UNL     1      -1.239  12.135  22.693  0.00  0.00    +0.000 C 
BRANCH  21  22
ATOM     22  C   UNL     1      -2.561  11.708  23.329  0.00  0.00    +0.000 C 
BRANCH  22  23
ATOM     23  C   UNL     1      -3.618  12.802  23.154  0.00  0.00    +0.000 C 
BRANCH  23  24
ATOM     24  C   UNL     1      -3.861  13.127  21.680  0.00  0.00    +0.000 C 
BRANCH  24  25
ATOM     25  C   UNL     1      -5.322  13.493  21.430  0.00  0.00    +0.000 C 
BRANCH  25  26
ATOM     26  C   UNL     1      -6.134  12.293  20.949  0.00  0.00    +0.000 C 
BRANCH  26  27
ATOM     27  O   UNL     1      -7.416  12.363  21.566  0.00  0.00    +0.000 OA
BRANCH  27  28
ATOM     28  N   UNL     1      -7.735  11.195  22.298  0.00  0.00    +0.000 N 
ATOM     29  O   UNL     1      -7.896  10.153  21.655  0.00  0.00    +0.000 OA
ATOM     30  O   UNL     1      -7.806  11.393  23.506  0.00  0.00    +0.000 OA
ENDBRANCH  27  28
ENDBRANCH  26  27
ENDBRANCH  25  26
ENDBRANCH  24  25
ENDBRANCH  23  24
ENDBRANCH  22  23
ENDBRANCH  21  22
ENDBRANCH  20  21
ENDBRANCH   8  20
TORSDOF 11
ENDMDL
