MODEL 1
REMARK VINA RESULT:      -7.6      0.000      0.000
REMARK  Name = 
REMARK  4 active torsions:
REMARK  status: ('A' for Active; 'I' for Inactive)
REMARK    1  A    between atoms: C_1  and  N_2
REMARK    2  A    between atoms: N_2  and  C_3
REMARK    3  A    between atoms: N_2  and  C_4
REMARK    4  A    between atoms: C_12  and  C_13
REMARK                            x       y       z     vdW  Elec       q    Type
REMARK                         _______ _______ _______ _____ _____    ______ ____
ROOT
ATOM      1  C   UNL     1       5.362   5.717  17.303  0.00  0.00    +0.000 C 
ATOM      2  C   UNL     1       4.376   6.767  16.711  0.00  0.00    +0.000 C 
ATOM      3  C   UNL     1       3.402   7.329  17.722  0.00  0.00    +0.000 A 
ATOM      4  C   UNL     1       2.719   8.518  17.415  0.00  0.00    +0.000 A 
ATOM      5  C   UNL     1       1.824   9.077  18.328  0.00  0.00    +0.000 A 
ATOM      6  C   UNL     1       1.603   8.461  19.559  0.00  0.00    +0.000 A 
ATOM      7  C   UNL     1       2.266   7.274  19.875  0.00  0.00    +0.000 A 
ATOM      8  C   UNL     1       3.154   6.680  18.955  0.00  0.00    +0.000 A 
ATOM      9  C   UNL     1       3.817   5.351  19.300  0.00  0.00    +0.000 C 
ATOM     10  C   UNL     1       4.494   4.697  18.067  0.00  0.00    +0.000 C 
ENDROOT
BRANCH   9  11
ATOM     11  C   UNL     1       2.807   4.374  19.899  0.00  0.00    +0.000 A 
ATOM     12  C   UNL     1       2.975   3.926  21.228  0.00  0.00    +0.000 A 
ATOM     13  C   UNL     1       2.082   3.014  21.793  0.00  0.00    +0.000 A 
ATOM     14  C   UNL     1       1.011   2.531  21.048  0.00  0.00    +0.000 A 
ATOM     15  C   UNL     1       0.825   2.958  19.732  0.00  0.00    +0.000 A 
ATOM     16  C   UNL     1       1.711   3.874  19.149  0.00  0.00    +0.000 A 
ATOM     17 CL   UNL     1       1.405   4.349  17.481  0.00  0.00    +0.000 Cl
ENDBRANCH   9  11
BRANCH   1  19
ATOM     18  C   UNL     1       7.146   7.405  17.477  0.00  0.00    +0.000 C 
ATOM     19  N   UNL     1       6.431   6.312  18.167  0.00  0.00    +0.000 NA
ATOM     20  C   UNL     1       7.437   5.291  18.540  0.00  0.00    +0.000 C 
ENDBRANCH   1  19
TORSDOF 2
ENDMDL
MODEL 2
REMARK VINA RESULT:      -7.2      1.991      4.928
REMARK  Name = 
REMARK  4 active torsions:
REMARK  status: ('A' for Active; 'I' for Inactive)
REMARK    1  A    between atoms: C_1  and  N_2
REMARK    2  A    between atoms: N_2  and  C_3
REMARK    3  A    between atoms: N_2  and  C_4
REMARK    4  A    between atoms: C_12  and  C_13
REMARK                            x       y       z     vdW  Elec       q    Type
REMARK                         _______ _______ _______ _____ _____    ______ ____
ROOT
ATOM      1  C   UNL     1       2.911   3.026  19.720  0.00  0.00    +0.000 C 
ATOM      2  C   UNL     1       2.252   4.034  20.707  0.00  0.00    +0.000 C 
ATOM      3  C   UNL     1       2.267   5.465  20.221  0.00  0.00    +0.000 A 
ATOM      4  C   UNL     1       1.405   6.395  20.827  0.00  0.00    +0.000 A 
ATOM      5  C   UNL     1       1.379   7.722  20.396  0.00  0.00    +0.000 A 
ATOM      6  C   UNL     1       2.206   8.136  19.352  0.00  0.00    +0.000 A 
ATOM      7  C   UNL     1       3.074   7.227  18.746  0.00  0.00    +0.000 A 
ATOM      8  C   UNL     1       3.135   5.889  19.186  0.00  0.00    +0.000 A 
ATOM      9  C   UNL     1       4.138   4.933  18.549  0.00  0.00    +0.000 C 
ATOM     10  C   UNL     1       4.288   3.618  19.359  0.00  0.00    +0.000 C 
ENDROOT
BRANCH   9  11
ATOM     11  C   UNL     1       5.506   5.594  18.398  0.00  0.00    +0.000 A 
ATOM     12  C   UNL     1       6.465   5.450  19.424  0.00  0.00    +0.000 A 
ATOM     13  C   UNL     1       7.716   6.063  19.324  0.00  0.00    +0.000 A 
ATOM     14  C   UNL     1       8.031   6.831  18.207  0.00  0.00    +0.000 A 
ATOM     15  C   UNL     1       7.098   6.989  17.181  0.00  0.00    +0.000 A 
ATOM     16  C   UNL     1       5.839   6.379  17.264  0.00  0.00    +0.000 A 
ATOM     17 CL   UNL     1       4.722   6.640  15.928  0.00  0.00    +0.000 Cl
ENDBRANCH   9  11
BRANCH   1  19
ATOM     18  C   UNL     1       0.739   2.237  18.869  0.00  0.00    +0.000 C 
ATOM     19  N   UNL     1       2.082   2.738  18.506  0.00  0.00    +0.000 NA
ATOM     20  C   UNL     1       2.726   1.709  17.659  0.00  0.00    +0.000 C 
ENDBRANCH   1  19
TORSDOF 2
ENDMDL
MODEL 3
REMARK VINA RESULT:      -7.1      1.486      1.788
REMARK  Name = 
REMARK  4 active torsions:
REMARK  status: ('A' for Active; 'I' for Inactive)
REMARK    1  A    between atoms: C_1  and  N_2
REMARK    2  A    between atoms: N_2  and  C_3
REMARK    3  A    between atoms: N_2  and  C_4
REMARK    4  A    between atoms: C_12  and  C_13
REMARK                            x       y       z     vdW  Elec       q    Type
REMARK                         _______ _______ _______ _____ _____    ______ ____
ROOT
ATOM      1  C   UNL     1       5.510   5.778  16.719  0.00  0.00    +0.000 C 
ATOM      2  C   UNL     1       4.596   7.012  16.463  0.00  0.00    +0.000 C 
ATOM      3  C   UNL     1       3.617   7.290  17.581  0.00  0.00    +0.000 A 
ATOM      4  C   UNL     1       3.002   8.552  17.644  0.00  0.00    +0.000 A 
ATOM      5  C   UNL     1       2.104   8.852  18.668  0.00  0.00    +0.000 A 
ATOM      6  C   UNL     1       1.813   7.901  19.646  0.00  0.00    +0.000 A 
ATOM      7  C   UNL     1       2.408   6.640  19.592  0.00  0.00    +0.000 A 
ATOM      8  C   UNL     1       3.296   6.308  18.549  0.00  0.00    +0.000 A 
ATOM      9  C   UNL     1       3.883   4.902  18.479  0.00  0.00    +0.000 C 
ATOM     10  C   UNL     1       4.570   4.623  17.116  0.00  0.00    +0.000 C 
ENDROOT
BRANCH   9  11
ATOM     11  C   UNL     1       2.808   3.846  18.730  0.00  0.00    +0.000 A 
ATOM     12  C   UNL     1       1.517   4.025  18.189  0.00  0.00    +0.000 A 
ATOM     13  C   UNL     1       0.508   3.089  18.423  0.00  0.00    +0.000 A 
ATOM     14  C   UNL     1       0.766   1.963  19.200  0.00  0.00    +0.000 A 
ATOM     15  C   UNL     1       2.034   1.766  19.747  0.00  0.00    +0.000 A 
ATOM     16  C   UNL     1       3.059   2.695  19.520  0.00  0.00    +0.000 A 
ATOM     17 CL   UNL     1       4.625   2.370  20.257  0.00  0.00    +0.000 Cl
ENDBRANCH   9  11
BRANCH   1  19
ATOM     18  C   UNL     1       7.383   7.214  17.421  0.00  0.00    +0.000 C 
ATOM     19  N   UNL     1       6.577   6.018  17.743  0.00  0.00    +0.000 NA
ATOM     20  C   UNL     1       7.504   4.866  17.819  0.00  0.00    +0.000 C 
ENDBRANCH   1  19
TORSDOF 2
ENDMDL
MODEL 4
REMARK VINA RESULT:      -7.0      2.254      5.149
REMARK  Name = 
REMARK  4 active torsions:
REMARK  status: ('A' for Active; 'I' for Inactive)
REMARK    1  A    between atoms: C_1  and  N_2
REMARK    2  A    between atoms: N_2  and  C_3
REMARK    3  A    between atoms: N_2  and  C_4
REMARK    4  A    between atoms: C_12  and  C_13
REMARK                            x       y       z     vdW  Elec       q    Type
REMARK                         _______ _______ _______ _____ _____    ______ ____
ROOT
ATOM      1  C   UNL     1       2.797   3.504  19.959  0.00  0.00    +0.000 C 
ATOM      2  C   UNL     1       2.657   4.918  20.596  0.00  0.00    +0.000 C 
ATOM      3  C   UNL     1       2.644   6.044  19.587  0.00  0.00    +0.000 A 
ATOM      4  C   UNL     1       2.168   7.305  19.986  0.00  0.00    +0.000 A 
ATOM      5  C   UNL     1       2.126   8.365  19.080  0.00  0.00    +0.000 A 
ATOM      6  C   UNL     1       2.550   8.181  17.765  0.00  0.00    +0.000 A 
ATOM      7  C   UNL     1       3.035   6.937  17.356  0.00  0.00    +0.000 A 
ATOM      8  C   UNL     1       3.111   5.861  18.263  0.00  0.00    +0.000 A 
ATOM      9  C   UNL     1       3.703   4.532  17.807  0.00  0.00    +0.000 C 
ATOM     10  C   UNL     1       4.000   3.584  18.999  0.00  0.00    +0.000 C 
ENDROOT
BRANCH   9  11
ATOM     11  C   UNL     1       4.982   4.749  17.002  0.00  0.00    +0.000 A 
ATOM     12  C   UNL     1       4.987   4.478  15.616  0.00  0.00    +0.000 A 
ATOM     13  C   UNL     1       6.149   4.644  14.860  0.00  0.00    +0.000 A 
ATOM     14  C   UNL     1       7.323   5.078  15.467  0.00  0.00    +0.000 A 
ATOM     15  C   UNL     1       7.342   5.351  16.836  0.00  0.00    +0.000 A 
ATOM     16  C   UNL     1       6.185   5.191  17.610  0.00  0.00    +0.000 A 
ATOM     17 CL   UNL     1       6.305   5.550  19.330  0.00  0.00    +0.000 Cl
ENDBRANCH   9  11
BRANCH   1  19
ATOM     18  C   UNL     1       0.381   3.082  20.170  0.00  0.00    +0.000 C 
ATOM     19  N   UNL     1       1.555   3.023  19.275  0.00  0.00    +0.000 NA
ATOM     20  C   UNL     1       1.706   1.618  18.833  0.00  0.00    +0.000 C 
ENDBRANCH   1  19
TORSDOF 2
ENDMDL
MODEL 5
REMARK VINA RESULT:      -7.0      1.981      4.994
REMARK  Name = 
REMARK  4 active torsions:
REMARK  status: ('A' for Active; 'I' for Inactive)
REMARK    1  A    between atoms: C_1  and  N_2
REMARK    2  A    between atoms: N_2  and  C_3
REMARK    3  A    between atoms: N_2  and  C_4
REMARK    4  A    between atoms: C_12  and  C_13
REMARK                            x       y       z     vdW  Elec       q    Type
REMARK                         _______ _______ _______ _____ _____    ______ ____
ROOT
ATOM      1  C   UNL     1       2.374   3.565  18.923  0.00  0.00    +0.000 C 
ATOM      2  C   UNL     1       3.042   3.456  17.520  0.00  0.00    +0.000 C 
ATOM      3  C   UNL     1       3.989   4.591  17.204  0.00  0.00    +0.000 A 
ATOM      4  C   UNL     1       4.911   4.431  16.156  0.00  0.00    +0.000 A 
ATOM      5  C   UNL     1       5.812   5.450  15.844  0.00  0.00    +0.000 A 
ATOM      6  C   UNL     1       5.810   6.636  16.576  0.00  0.00    +0.000 A 
ATOM      7  C   UNL     1       4.894   6.814  17.614  0.00  0.00    +0.000 A 
ATOM      8  C   UNL     1       3.957   5.808  17.927  0.00  0.00    +0.000 A 
ATOM      9  C   UNL     1       2.927   6.053  19.024  0.00  0.00    +0.000 C 
ATOM     10  C   UNL     1       1.797   4.991  19.013  0.00  0.00    +0.000 C 
ENDROOT
BRANCH   9  11
ATOM     11  C   UNL     1       2.314   7.447  18.899  0.00  0.00    +0.000 A 
ATOM     12  C   UNL     1       2.467   8.169  17.696  0.00  0.00    +0.000 A 
ATOM     13  C   UNL     1       1.939   9.454  17.562  0.00  0.00    +0.000 A 
ATOM     14  C   UNL     1       1.254  10.042  18.621  0.00  0.00    +0.000 A 
ATOM     15  C   UNL     1       1.091   9.348  19.821  0.00  0.00    +0.000 A 
ATOM     16  C   UNL     1       1.614   8.057  19.972  0.00  0.00    +0.000 A 
ATOM     17 CL   UNL     1       1.370   7.260  21.524  0.00  0.00    +0.000 Cl
ENDBRANCH   9  11
BRANCH   1  19
ATOM     18  C   UNL     1       4.210   2.137  19.731  0.00  0.00    +0.000 C 
ATOM     19  N   UNL     1       3.299   3.254  20.059  0.00  0.00    +0.000 NA
ATOM     20  C   UNL     1       2.539   2.866  21.268  0.00  0.00    +0.000 C 
ENDBRANCH   1  19
TORSDOF 2
ENDMDL
MODEL 6
REMARK VINA RESULT:      -6.8      1.962      4.439
REMARK  Name = 
REMARK  4 active torsions:
REMARK  status: ('A' for Active; 'I' for Inactive)
REMARK    1  A    between atoms: C_1  and  N_2
REMARK    2  A    between atoms: N_2  and  C_3
REMARK    3  A    between atoms: N_2  and  C_4
REMARK    4  A    between atoms: C_12  and  C_13
REMARK                            x       y       z     vdW  Elec       q    Type
REMARK                         _______ _______ _______ _____ _____    ______ ____
ROOT
ATOM      1  C   UNL     1       5.742   4.997  17.717  0.00  0.00    +0.000 C 
ATOM      2  C   UNL     1       5.187   3.734  18.440  0.00  0.00    +0.000 C 
ATOM      3  C   UNL     1       3.683   3.595  18.357  0.00  0.00    +0.000 A 
ATOM      4  C   UNL     1       3.103   2.347  18.642  0.00  0.00    +0.000 A 
ATOM      5  C   UNL     1       1.721   2.174  18.562  0.00  0.00    +0.000 A 
ATOM      6  C   UNL     1       0.901   3.240  18.191  0.00  0.00    +0.000 A 
ATOM      7  C   UNL     1       1.462   4.488  17.914  0.00  0.00    +0.000 A 
ATOM      8  C   UNL     1       2.853   4.690  18.016  0.00  0.00    +0.000 A 
ATOM      9  C   UNL     1       3.432   6.078  17.770  0.00  0.00    +0.000 C 
ATOM     10  C   UNL     1       4.909   6.187  18.232  0.00  0.00    +0.000 C 
ENDROOT
BRANCH   9  11
ATOM     11  C   UNL     1       2.602   7.151  18.472  0.00  0.00    +0.000 A 
ATOM     12  C   UNL     1       2.223   8.312  17.765  0.00  0.00    +0.000 A 
ATOM     13  C   UNL     1       1.486   9.320  18.389  0.00  0.00    +0.000 A 
ATOM     14  C   UNL     1       1.116   9.192  19.724  0.00  0.00    +0.000 A 
ATOM     15  C   UNL     1       1.481   8.054  20.444  0.00  0.00    +0.000 A 
ATOM     16  C   UNL     1       2.219   7.032  19.834  0.00  0.00    +0.000 A 
ATOM     17 CL   UNL     1       2.644   5.636  20.821  0.00  0.00    +0.000 Cl
ENDBRANCH   9  11
BRANCH   1  19
ATOM     18  C   UNL     1       5.951   3.508  15.767  0.00  0.00    +0.000 C 
ATOM     19  N   UNL     1       5.724   4.896  16.223  0.00  0.00    +0.000 NA
ATOM     20  C   UNL     1       6.783   5.738  15.624  0.00  0.00    +0.000 C 
ENDBRANCH   1  19
TORSDOF 2
ENDMDL
MODEL 7
REMARK VINA RESULT:      -6.8      1.993      4.274
REMARK  Name = 
REMARK  4 active torsions:
REMARK  status: ('A' for Active; 'I' for Inactive)
REMARK    1  A    between atoms: C_1  and  N_2
REMARK    2  A    between atoms: N_2  and  C_3
REMARK    3  A    between atoms: N_2  and  C_4
REMARK    4  A    between atoms: C_12  and  C_13
REMARK                            x       y       z     vdW  Elec       q    Type
REMARK                         _______ _______ _______ _____ _____    ______ ____
ROOT
ATOM      1  C   UNL     1       5.382   4.958  17.715  0.00  0.00    +0.000 C 
ATOM      2  C   UNL     1       5.058   3.607  18.417  0.00  0.00    +0.000 C 
ATOM      3  C   UNL     1       3.580   3.359  18.612  0.00  0.00    +0.000 A 
ATOM      4  C   UNL     1       3.144   2.053  18.893  0.00  0.00    +0.000 A 
ATOM      5  C   UNL     1       1.786   1.781  19.064  0.00  0.00    +0.000 A 
ATOM      6  C   UNL     1       0.846   2.804  18.951  0.00  0.00    +0.000 A 
ATOM      7  C   UNL     1       1.264   4.109  18.682  0.00  0.00    +0.000 A 
ATOM      8  C   UNL     1       2.633   4.409  18.533  0.00  0.00    +0.000 A 
ATOM      9  C   UNL     1       3.066   5.853  18.302  0.00  0.00    +0.000 C 
ATOM     10  C   UNL     1       4.596   6.040  18.481  0.00  0.00    +0.000 C 
ENDROOT
BRANCH   9  11
ATOM     11  C   UNL     1       2.327   6.804  19.240  0.00  0.00    +0.000 A 
ATOM     12  C   UNL     1       1.907   6.345  20.507  0.00  0.00    +0.000 A 
ATOM     13  C   UNL     1       1.207   7.185  21.376  0.00  0.00    +0.000 A 
ATOM     14  C   UNL     1       0.911   8.491  20.998  0.00  0.00    +0.000 A 
ATOM     15  C   UNL     1       1.315   8.967  19.750  0.00  0.00    +0.000 A 
ATOM     16  C   UNL     1       2.019   8.138  18.867  0.00  0.00    +0.000 A 
ATOM     17 CL   UNL     1       2.480   8.819  17.309  0.00  0.00    +0.000 Cl
ENDBRANCH   9  11
BRANCH   1  19
ATOM     18  C   UNL     1       5.911   3.993  15.512  0.00  0.00    +0.000 C 
ATOM     19  N   UNL     1       5.077   4.966  16.249  0.00  0.00    +0.000 NA
ATOM     20  C   UNL     1       5.331   6.302  15.663  0.00  0.00    +0.000 C 
ENDBRANCH   1  19
TORSDOF 2
ENDMDL
MODEL 8
REMARK VINA RESULT:      -6.7      2.410      3.756
REMARK  Name = 
REMARK  4 active torsions:
REMARK  status: ('A' for Active; 'I' for Inactive)
REMARK    1  A    between atoms: C_1  and  N_2
REMARK    2  A    between atoms: N_2  and  C_3
REMARK    3  A    between atoms: N_2  and  C_4
REMARK    4  A    between atoms: C_12  and  C_13
REMARK                            x       y       z     vdW  Elec       q    Type
REMARK                         _______ _______ _______ _____ _____    ______ ____
ROOT
ATOM      1  C   UNL     1       5.055   5.273  15.261  0.00  0.00    +0.000 C 
ATOM      2  C   UNL     1       5.784   6.549  15.773  0.00  0.00    +0.000 C 
ATOM      3  C   UNL     1       6.502   6.356  17.089  0.00  0.00    +0.000 A 
ATOM      4  C   UNL     1       7.477   7.293  17.472  0.00  0.00    +0.000 A 
ATOM      5  C   UNL     1       8.173   7.141  18.672  0.00  0.00    +0.000 A 
ATOM      6  C   UNL     1       7.911   6.051  19.501  0.00  0.00    +0.000 A 
ATOM      7  C   UNL     1       6.939   5.117  19.139  0.00  0.00    +0.000 A 
ATOM      8  C   UNL     1       6.206   5.267  17.945  0.00  0.00    +0.000 A 
ATOM      9  C   UNL     1       5.107   4.267  17.605  0.00  0.00    +0.000 C 
ATOM     10  C   UNL     1       4.207   4.760  16.441  0.00  0.00    +0.000 C 
ENDROOT
BRANCH   9  11
ATOM     11  C   UNL     1       4.239   3.971  18.826  0.00  0.00    +0.000 A 
ATOM     12  C   UNL     1       4.286   2.691  19.419  0.00  0.00    +0.000 A 
ATOM     13  C   UNL     1       3.485   2.384  20.521  0.00  0.00    +0.000 A 
ATOM     14  C   UNL     1       2.623   3.342  21.047  0.00  0.00    +0.000 A 
ATOM     15  C   UNL     1       2.558   4.613  20.476  0.00  0.00    +0.000 A 
ATOM     16  C   UNL     1       3.356   4.939  19.371  0.00  0.00    +0.000 A 
ATOM     17 CL   UNL     1       3.201   6.564  18.710  0.00  0.00    +0.000 Cl
ENDBRANCH   9  11
BRANCH   1  19
ATOM     18  C   UNL     1       7.299   4.784  14.373  0.00  0.00    +0.000 C 
ATOM     19  N   UNL     1       5.979   4.222  14.727  0.00  0.00    +0.000 NA
ATOM     20  C   UNL     1       5.421   3.599  13.506  0.00  0.00    +0.000 C 
ENDBRANCH   1  19
TORSDOF 2
ENDMDL
MODEL 9
REMARK VINA RESULT:      -6.6      1.903      4.914
REMARK  Name = 
REMARK  4 active torsions:
REMARK  status: ('A' for Active; 'I' for Inactive)
REMARK    1  A    between atoms: C_1  and  N_2
REMARK    2  A    between atoms: N_2  and  C_3
REMARK    3  A    between atoms: N_2  and  C_4
REMARK    4  A    between atoms: C_12  and  C_13
REMARK                            x       y       z     vdW  Elec       q    Type
REMARK                         _______ _______ _______ _____ _____    ______ ____
ROOT
ATOM      1  C   UNL     1       2.793   3.632  20.167  0.00  0.00    +0.000 C 
ATOM      2  C   UNL     1       2.339   4.953  20.855  0.00  0.00    +0.000 C 
ATOM      3  C   UNL     1       2.360   6.157  19.941  0.00  0.00    +0.000 A 
ATOM      4  C   UNL     1       1.646   7.307  20.320  0.00  0.00    +0.000 A 
ATOM      5  C   UNL     1       1.629   8.433  19.497  0.00  0.00    +0.000 A 
ATOM      6  C   UNL     1       2.316   8.425  18.283  0.00  0.00    +0.000 A 
ATOM      7  C   UNL     1       3.038   7.294  17.897  0.00  0.00    +0.000 A 
ATOM      8  C   UNL     1       3.090   6.157  18.728  0.00  0.00    +0.000 A 
ATOM      9  C   UNL     1       3.937   4.959  18.312  0.00  0.00    +0.000 C 
ATOM     10  C   UNL     1       4.133   3.949  19.473  0.00  0.00    +0.000 C 
ENDROOT
BRANCH   9  11
ATOM     11  C   UNL     1       5.303   5.406  17.795  0.00  0.00    +0.000 A 
ATOM     12  C   UNL     1       6.182   6.096  18.657  0.00  0.00    +0.000 A 
ATOM     13  C   UNL     1       7.426   6.538  18.204  0.00  0.00    +0.000 A 
ATOM     14  C   UNL     1       7.815   6.306  16.888  0.00  0.00    +0.000 A 
ATOM     15  C   UNL     1       6.961   5.628  16.017  0.00  0.00    +0.000 A 
ATOM     16  C   UNL     1       5.710   5.175  16.455  0.00  0.00    +0.000 A 
ATOM     17 CL   UNL     1       4.695   4.337  15.284  0.00  0.00    +0.000 Cl
ENDBRANCH   9  11
BRANCH   1  19
ATOM     18  C   UNL     1       0.464   2.893  19.863  0.00  0.00    +0.000 C 
ATOM     19  N   UNL     1       1.782   3.067  19.218  0.00  0.00    +0.000 NA
ATOM     20  C   UNL     1       2.210   1.740  18.719  0.00  0.00    +0.000 C 
ENDBRANCH   1  19
TORSDOF 2
ENDMDL
