MODEL 1
REMARK VINA RESULT:      -7.3      0.000      0.000
REMARK  Name = 
REMARK  3 active torsions:
REMARK  status: ('A' for Active; 'I' for Inactive)
REMARK    1  A    between atoms: C_1  and  C_2
REMARK    2  A    between atoms: N_4  and  C_5
REMARK    3  A    between atoms: C_9  and  N_10
REMARK                            x       y       z     vdW  Elec       q    Type
REMARK                         _______ _______ _______ _____ _____    ______ ____
ROOT
ATOM      1  C   UNL     1       6.088   4.258  16.538  0.00  0.00    +0.000 A 
ATOM      2  C   UNL     1       7.295   4.632  17.122  0.00  0.00    +0.000 A 
ATOM      3  C   UNL     1       7.318   5.138  18.417  0.00  0.00    +0.000 A 
ATOM      4  C   UNL     1       6.138   5.247  19.150  0.00  0.00    +0.000 A 
ATOM      5  C   UNL     1       4.908   4.853  18.610  0.00  0.00    +0.000 A 
ATOM      6  C   UNL     1       4.896   4.403  17.274  0.00  0.00    +0.000 A 
ENDROOT
BRANCH   5   7
ATOM      7  N   UNL     1       3.721   4.869  19.402  0.00  0.00    +0.000 N 
ATOM      8  C   UNL     1       2.836   6.009  19.456  0.00  0.00    +0.000 C 
ATOM      9  C   UNL     1       1.840   5.668  20.547  0.00  0.00    +0.000 C 
ATOM     10  C   UNL     1       1.752   4.158  20.487  0.00  0.00    +0.000 C 
ATOM     11  C   UNL     1       3.120   3.746  20.007  0.00  0.00    +0.000 C 
ATOM     12  O   UNL     1       3.527   2.597  20.101  0.00  0.00    +0.000 OA
ENDBRANCH   5   7
BRANCH   1  16
ATOM     13  C   UNL     1       6.178   3.573  12.823  0.00  0.00    +0.000 C 
ATOM     14  C   UNL     1       6.518   4.332  14.079  0.00  0.00    +0.000 C 
ATOM     15  O   UNL     1       7.180   5.362  14.018  0.00  0.00    +0.000 OA
ATOM     16  N   UNL     1       6.008   3.736  15.223  0.00  0.00    +0.000 N 
ATOM     17  H   UNL     1       5.631   2.801  15.125  0.00  0.00    +0.000 HD
ENDBRANCH   1  16
TORSDOF 2
ENDMDL
MODEL 2
REMARK VINA RESULT:      -7.1      1.143      1.509
REMARK  Name = 
REMARK  3 active torsions:
REMARK  status: ('A' for Active; 'I' for Inactive)
REMARK    1  A    between atoms: C_1  and  C_2
REMARK    2  A    between atoms: N_4  and  C_5
REMARK    3  A    between atoms: C_9  and  N_10
REMARK                            x       y       z     vdW  Elec       q    Type
REMARK                         _______ _______ _______ _____ _____    ______ ____
ROOT
ATOM      1  C   UNL     1       6.051   4.259  16.486  0.00  0.00    +0.000 A 
ATOM      2  C   UNL     1       7.218   4.689  17.114  0.00  0.00    +0.000 A 
ATOM      3  C   UNL     1       7.173   5.178  18.414  0.00  0.00    +0.000 A 
ATOM      4  C   UNL     1       5.967   5.213  19.111  0.00  0.00    +0.000 A 
ATOM      5  C   UNL     1       4.778   4.761  18.528  0.00  0.00    +0.000 A 
ATOM      6  C   UNL     1       4.831   4.330  17.187  0.00  0.00    +0.000 A 
ENDROOT
BRANCH   5   7
ATOM      7  N   UNL     1       3.568   4.703  19.282  0.00  0.00    +0.000 N 
ATOM      8  C   UNL     1       3.180   3.539  20.045  0.00  0.00    +0.000 C 
ATOM      9  C   UNL     1       1.769   3.839  20.507  0.00  0.00    +0.000 C 
ATOM     10  C   UNL     1       1.751   5.346  20.640  0.00  0.00    +0.000 C 
ATOM     11  C   UNL     1       2.742   5.801  19.600  0.00  0.00    +0.000 C 
ATOM     12  O   UNL     1       2.798   6.959  19.212  0.00  0.00    +0.000 OA
ENDBRANCH   5   7
BRANCH   1  16
ATOM     13  C   UNL     1       6.311   3.625  12.770  0.00  0.00    +0.000 C 
ATOM     14  C   UNL     1       6.575   4.378  14.047  0.00  0.00    +0.000 C 
ATOM     15  O   UNL     1       7.206   5.429  14.026  0.00  0.00    +0.000 OA
ATOM     16  N   UNL     1       6.040   3.752  15.163  0.00  0.00    +0.000 N 
ATOM     17  H   UNL     1       5.698   2.807  15.040  0.00  0.00    +0.000 HD
ENDBRANCH   1  16
TORSDOF 2
ENDMDL
MODEL 3
REMARK VINA RESULT:      -7.1      2.462      3.454
REMARK  Name = 
REMARK  3 active torsions:
REMARK  status: ('A' for Active; 'I' for Inactive)
REMARK    1  A    between atoms: C_1  and  C_2
REMARK    2  A    between atoms: N_4  and  C_5
REMARK    3  A    between atoms: C_9  and  N_10
REMARK                            x       y       z     vdW  Elec       q    Type
REMARK                         _______ _______ _______ _____ _____    ______ ____
ROOT
ATOM      1  C   UNL     1       5.878   6.240  16.887  0.00  0.00    +0.000 A 
ATOM      2  C   UNL     1       5.978   5.429  15.760  0.00  0.00    +0.000 A 
ATOM      3  C   UNL     1       5.206   4.278  15.656  0.00  0.00    +0.000 A 
ATOM      4  C   UNL     1       4.304   3.943  16.664  0.00  0.00    +0.000 A 
ATOM      5  C   UNL     1       4.151   4.748  17.798  0.00  0.00    +0.000 A 
ATOM      6  C   UNL     1       4.989   5.876  17.917  0.00  0.00    +0.000 A 
ENDROOT
BRANCH   5   7
ATOM      7  N   UNL     1       3.152   4.455  18.775  0.00  0.00    +0.000 N 
ATOM      8  C   UNL     1       3.356   4.674  20.188  0.00  0.00    +0.000 C 
ATOM      9  C   UNL     1       2.143   4.053  20.850  0.00  0.00    +0.000 C 
ATOM     10  C   UNL     1       1.050   4.221  19.817  0.00  0.00    +0.000 C 
ATOM     11  C   UNL     1       1.796   4.178  18.508  0.00  0.00    +0.000 C 
ATOM     12  O   UNL     1       1.230   4.001  17.439  0.00  0.00    +0.000 OA
ENDBRANCH   5   7
BRANCH   1  16
ATOM     13  C   UNL     1       8.224   9.013  17.930  0.00  0.00    +0.000 C 
ATOM     14  C   UNL     1       7.685   7.607  17.939  0.00  0.00    +0.000 C 
ATOM     15  O   UNL     1       8.169   6.764  18.687  0.00  0.00    +0.000 OA
ATOM     16  N   UNL     1       6.641   7.424  17.044  0.00  0.00    +0.000 N 
ATOM     17  H   UNL     1       6.472   8.167  16.377  0.00  0.00    +0.000 HD
ENDBRANCH   1  16
TORSDOF 2
ENDMDL
MODEL 4
REMARK VINA RESULT:      -7.1      2.192      3.214
REMARK  Name = 
REMARK  3 active torsions:
REMARK  status: ('A' for Active; 'I' for Inactive)
REMARK    1  A    between atoms: C_1  and  C_2
REMARK    2  A    between atoms: N_4  and  C_5
REMARK    3  A    between atoms: C_9  and  N_10
REMARK                            x       y       z     vdW  Elec       q    Type
REMARK                         _______ _______ _______ _____ _____    ______ ____
ROOT
ATOM      1  C   UNL     1       5.781   6.075  16.973  0.00  0.00    +0.000 A 
ATOM      2  C   UNL     1       5.815   5.249  15.852  0.00  0.00    +0.000 A 
ATOM      3  C   UNL     1       5.055   4.087  15.817  0.00  0.00    +0.000 A 
ATOM      4  C   UNL     1       4.228   3.754  16.889  0.00  0.00    +0.000 A 
ATOM      5  C   UNL     1       4.141   4.573  18.020  0.00  0.00    +0.000 A 
ATOM      6  C   UNL     1       4.969   5.713  18.066  0.00  0.00    +0.000 A 
ENDROOT
BRANCH   5   7
ATOM      7  N   UNL     1       3.216   4.281  19.067  0.00  0.00    +0.000 N 
ATOM      8  C   UNL     1       1.901   4.875  19.133  0.00  0.00    +0.000 C 
ATOM      9  C   UNL     1       1.357   4.447  20.481  0.00  0.00    +0.000 C 
ATOM     10  C   UNL     1       2.014   3.105  20.720  0.00  0.00    +0.000 C 
ATOM     11  C   UNL     1       3.330   3.227  19.996  0.00  0.00    +0.000 C 
ATOM     12  O   UNL     1       4.257   2.453  20.191  0.00  0.00    +0.000 OA
ENDBRANCH   5   7
BRANCH   1  16
ATOM     13  C   UNL     1       8.137   8.903  17.829  0.00  0.00    +0.000 C 
ATOM     14  C   UNL     1       7.616   7.492  17.902  0.00  0.00    +0.000 C 
ATOM     15  O   UNL     1       8.143   6.677  18.651  0.00  0.00    +0.000 OA
ATOM     16  N   UNL     1       6.535   7.271  17.061  0.00  0.00    +0.000 N 
ATOM     17  H   UNL     1       6.327   7.993  16.382  0.00  0.00    +0.000 HD
ENDBRANCH   1  16
TORSDOF 2
ENDMDL
MODEL 5
REMARK VINA RESULT:      -7.1      1.509      1.699
REMARK  Name = 
REMARK  3 active torsions:
REMARK  status: ('A' for Active; 'I' for Inactive)
REMARK    1  A    between atoms: C_1  and  C_2
REMARK    2  A    between atoms: N_4  and  C_5
REMARK    3  A    between atoms: C_9  and  N_10
REMARK                            x       y       z     vdW  Elec       q    Type
REMARK                         _______ _______ _______ _____ _____    ______ ____
ROOT
ATOM      1  C   UNL     1       5.749   3.933  16.384  0.00  0.00    +0.000 A 
ATOM      2  C   UNL     1       6.725   4.609  17.112  0.00  0.00    +0.000 A 
ATOM      3  C   UNL     1       6.482   4.983  18.428  0.00  0.00    +0.000 A 
ATOM      4  C   UNL     1       5.272   4.659  19.040  0.00  0.00    +0.000 A 
ATOM      5  C   UNL     1       4.277   3.953  18.354  0.00  0.00    +0.000 A 
ATOM      6  C   UNL     1       4.516   3.639  17.000  0.00  0.00    +0.000 A 
ENDROOT
BRANCH   5   7
ATOM      7  N   UNL     1       3.086   3.534  19.017  0.00  0.00    +0.000 N 
ATOM      8  C   UNL     1       3.073   3.091  20.391  0.00  0.00    +0.000 C 
ATOM      9  C   UNL     1       1.669   2.565  20.610  0.00  0.00    +0.000 C 
ATOM     10  C   UNL     1       0.825   3.405  19.676  0.00  0.00    +0.000 C 
ATOM     11  C   UNL     1       1.771   3.729  18.548  0.00  0.00    +0.000 C 
ATOM     12  O   UNL     1       1.380   4.154  17.470  0.00  0.00    +0.000 OA
ENDBRANCH   5   7
BRANCH   1  16
ATOM     13  C   UNL     1       6.466   3.618  12.688  0.00  0.00    +0.000 C 
ATOM     14  C   UNL     1       6.488   4.305  14.028  0.00  0.00    +0.000 C 
ATOM     15  O   UNL     1       6.954   5.433  14.136  0.00  0.00    +0.000 OA
ATOM     16  N   UNL     1       5.945   3.528  15.041  0.00  0.00    +0.000 N 
ATOM     17  H   UNL     1       5.761   2.556  14.826  0.00  0.00    +0.000 HD
ENDBRANCH   1  16
TORSDOF 2
ENDMDL
MODEL 6
REMARK VINA RESULT:      -7.0      2.155      6.230
REMARK  Name = 
REMARK  3 active torsions:
REMARK  status: ('A' for Active; 'I' for Inactive)
REMARK    1  A    between atoms: C_1  and  C_2
REMARK    2  A    between atoms: N_4  and  C_5
REMARK    3  A    between atoms: C_9  and  N_10
REMARK                            x       y       z     vdW  Elec       q    Type
REMARK                         _______ _______ _______ _____ _____    ______ ____
ROOT
ATOM      1  C   UNL     1       4.120   4.434  17.464  0.00  0.00    +0.000 A 
ATOM      2  C   UNL     1       4.104   5.797  17.752  0.00  0.00    +0.000 A 
ATOM      3  C   UNL     1       4.749   6.696  16.910  0.00  0.00    +0.000 A 
ATOM      4  C   UNL     1       5.389   6.246  15.757  0.00  0.00    +0.000 A 
ATOM      5  C   UNL     1       5.400   4.889  15.415  0.00  0.00    +0.000 A 
ATOM      6  C   UNL     1       4.798   3.984  16.314  0.00  0.00    +0.000 A 
ENDROOT
BRANCH   5   7
ATOM      7  N   UNL     1       5.966   4.448  14.182  0.00  0.00    +0.000 N 
ATOM      8  C   UNL     1       5.210   3.708  13.198  0.00  0.00    +0.000 C 
ATOM      9  C   UNL     1       6.236   3.285  12.167  0.00  0.00    +0.000 C 
ATOM     10  C   UNL     1       7.266   4.393  12.215  0.00  0.00    +0.000 C 
ATOM     11  C   UNL     1       7.198   4.872  13.643  0.00  0.00    +0.000 C 
ATOM     12  O   UNL     1       8.072   5.566  14.142  0.00  0.00    +0.000 OA
ENDBRANCH   5   7
BRANCH   1  16
ATOM     13  C   UNL     1       1.744   2.176  19.343  0.00  0.00    +0.000 C 
ATOM     14  C   UNL     1       2.127   3.166  18.275  0.00  0.00    +0.000 C 
ATOM     15  O   UNL     1       1.278   3.609  17.510  0.00  0.00    +0.000 OA
ATOM     16  N   UNL     1       3.479   3.475  18.287  0.00  0.00    +0.000 N 
ATOM     17  H   UNL     1       4.078   2.899  18.866  0.00  0.00    +0.000 HD
ENDBRANCH   1  16
TORSDOF 2
ENDMDL
MODEL 7
REMARK VINA RESULT:      -6.9      2.476      3.536
REMARK  Name = 
REMARK  3 active torsions:
REMARK  status: ('A' for Active; 'I' for Inactive)
REMARK    1  A    between atoms: C_1  and  C_2
REMARK    2  A    between atoms: N_4  and  C_5
REMARK    3  A    between atoms: C_9  and  N_10
REMARK                            x       y       z     vdW  Elec       q    Type
REMARK                         _______ _______ _______ _____ _____    ______ ____
ROOT
ATOM      1  C   UNL     1       5.834   6.212  16.932  0.00  0.00    +0.000 A 
ATOM      2  C   UNL     1       5.987   5.313  15.879  0.00  0.00    +0.000 A 
ATOM      3  C   UNL     1       5.190   4.176  15.810  0.00  0.00    +0.000 A 
ATOM      4  C   UNL     1       4.211   3.943  16.774  0.00  0.00    +0.000 A 
ATOM      5  C   UNL     1       4.004   4.838  17.830  0.00  0.00    +0.000 A 
ATOM      6  C   UNL     1       4.865   5.951  17.920  0.00  0.00    +0.000 A 
ENDROOT
BRANCH   5   7
ATOM      7  N   UNL     1       2.933   4.648  18.753  0.00  0.00    +0.000 N 
ATOM      8  C   UNL     1       2.438   3.340  19.115  0.00  0.00    +0.000 C 
ATOM      9  C   UNL     1       1.200   3.616  19.943  0.00  0.00    +0.000 C 
ATOM     10  C   UNL     1       1.505   4.942  20.606  0.00  0.00    +0.000 C 
ATOM     11  C   UNL     1       2.401   5.633  19.611  0.00  0.00    +0.000 C 
ATOM     12  O   UNL     1       2.629   6.833  19.660  0.00  0.00    +0.000 OA
ENDBRANCH   5   7
BRANCH   1  16
ATOM     13  C   UNL     1       8.237   8.970  17.881  0.00  0.00    +0.000 C 
ATOM     14  C   UNL     1       7.673   7.574  17.932  0.00  0.00    +0.000 C 
ATOM     15  O   UNL     1       8.148   6.743  18.698  0.00  0.00    +0.000 OA
ATOM     16  N   UNL     1       6.619   7.386  17.050  0.00  0.00    +0.000 N 
ATOM     17  H   UNL     1       6.457   8.114  16.365  0.00  0.00    +0.000 HD
ENDBRANCH   1  16
TORSDOF 2
ENDMDL
MODEL 8
REMARK VINA RESULT:      -6.9      2.308      6.254
REMARK  Name = 
REMARK  3 active torsions:
REMARK  status: ('A' for Active; 'I' for Inactive)
REMARK    1  A    between atoms: C_1  and  C_2
REMARK    2  A    between atoms: N_4  and  C_5
REMARK    3  A    between atoms: C_9  and  N_10
REMARK                            x       y       z     vdW  Elec       q    Type
REMARK                         _______ _______ _______ _____ _____    ______ ____
ROOT
ATOM      1  C   UNL     1       5.332   6.330  17.222  0.00  0.00    +0.000 A 
ATOM      2  C   UNL     1       6.221   5.882  18.196  0.00  0.00    +0.000 A 
ATOM      3  C   UNL     1       7.207   4.957  17.870  0.00  0.00    +0.000 A 
ATOM      4  C   UNL     1       7.334   4.495  16.562  0.00  0.00    +0.000 A 
ATOM      5  C   UNL     1       6.480   4.944  15.547  0.00  0.00    +0.000 A 
ATOM      6  C   UNL     1       5.446   5.831  15.909  0.00  0.00    +0.000 A 
ENDROOT
BRANCH   5   7
ATOM      7  N   UNL     1       6.681   4.547  14.191  0.00  0.00    +0.000 N 
ATOM      8  C   UNL     1       5.738   3.723  13.473  0.00  0.00    +0.000 C 
ATOM      9  C   UNL     1       6.435   3.393  12.168  0.00  0.00    +0.000 C 
ATOM     10  C   UNL     1       7.314   4.600  11.921  0.00  0.00    +0.000 C 
ATOM     11  C   UNL     1       7.640   5.086  13.310  0.00  0.00    +0.000 C 
ATOM     12  O   UNL     1       8.551   5.870  13.530  0.00  0.00    +0.000 OA
ENDBRANCH   5   7
BRANCH   1  16
ATOM     13  C   UNL     1       2.151   8.191  18.055  0.00  0.00    +0.000 C 
ATOM     14  C   UNL     1       3.034   6.975  17.956  0.00  0.00    +0.000 C 
ATOM     15  O   UNL     1       2.601   5.870  18.265  0.00  0.00    +0.000 OA
ATOM     16  N   UNL     1       4.310   7.270  17.499  0.00  0.00    +0.000 N 
ATOM     17  H   UNL     1       4.566   8.249  17.452  0.00  0.00    +0.000 HD
ENDBRANCH   1  16
TORSDOF 2
ENDMDL
MODEL 9
REMARK VINA RESULT:      -6.8      1.668      1.799
REMARK  Name = 
REMARK  3 active torsions:
REMARK  status: ('A' for Active; 'I' for Inactive)
REMARK    1  A    between atoms: C_1  and  C_2
REMARK    2  A    between atoms: N_4  and  C_5
REMARK    3  A    between atoms: C_9  and  N_10
REMARK                            x       y       z     vdW  Elec       q    Type
REMARK                         _______ _______ _______ _____ _____    ______ ____
ROOT
ATOM      1  C   UNL     1       4.915   5.039  15.833  0.00  0.00    +0.000 A 
ATOM      2  C   UNL     1       5.199   6.380  16.081  0.00  0.00    +0.000 A 
ATOM      3  C   UNL     1       4.731   6.991  17.238  0.00  0.00    +0.000 A 
ATOM      4  C   UNL     1       4.000   6.261  18.174  0.00  0.00    +0.000 A 
ATOM      5  C   UNL     1       3.719   4.904  17.977  0.00  0.00    +0.000 A 
ATOM      6  C   UNL     1       4.146   4.318  16.768  0.00  0.00    +0.000 A 
ENDROOT
BRANCH   5   7
ATOM      7  N   UNL     1       3.062   4.138  18.985  0.00  0.00    +0.000 N 
ATOM      8  C   UNL     1       1.625   4.107  19.128  0.00  0.00    +0.000 C 
ATOM      9  C   UNL     1       1.386   3.348  20.417  0.00  0.00    +0.000 C 
ATOM     10  C   UNL     1       2.558   2.394  20.490  0.00  0.00    +0.000 C 
ATOM     11  C   UNL     1       3.660   3.139  19.780  0.00  0.00    +0.000 C 
ATOM     12  O   UNL     1       4.835   2.815  19.877  0.00  0.00    +0.000 OA
ENDBRANCH   5   7
BRANCH   1  16
ATOM     13  C   UNL     1       6.740   3.748  12.787  0.00  0.00    +0.000 C 
ATOM     14  C   UNL     1       6.605   4.532  14.066  0.00  0.00    +0.000 C 
ATOM     15  O   UNL     1       7.534   5.222  14.468  0.00  0.00    +0.000 OA
ATOM     16  N   UNL     1       5.368   4.367  14.671  0.00  0.00    +0.000 N 
ATOM     17  H   UNL     1       4.773   3.632  14.308  0.00  0.00    +0.000 HD
ENDBRANCH   1  16
TORSDOF 2
ENDMDL
