MODEL 1
REMARK VINA RESULT:      -8.6      0.000      0.000
REMARK  Name = 
REMARK  6 active torsions:
REMARK  status: ('A' for Active; 'I' for Inactive)
REMARK    1  A    between atoms: C_7  and  N_8
REMARK    2  A    between atoms: N_11  and  C_12
REMARK    3  A    between atoms: C_12  and  C_13
REMARK    4  A    between atoms: C_13  and  C_14
REMARK    5  A    between atoms: C_14  and  O_15
REMARK    6  A    between atoms: O_15  and  C_16
REMARK                            x       y       z     vdW  Elec       q    Type
REMARK                         _______ _______ _______ _____ _____    ______ ____
ROOT
ATOM      1  N   UNL     1       4.651   5.035  18.439  0.00  0.00    +0.000 N 
ATOM      2  C   UNL     1       5.849   5.372  19.219  0.00  0.00    +0.000 C 
ATOM      3  C   UNL     1       7.120   5.041  18.406  0.00  0.00    +0.000 C 
ATOM      4  N   UNL     1       7.179   5.660  17.060  0.00  0.00    +0.000 NA
ATOM      5  C   UNL     1       5.952   5.253  16.332  0.00  0.00    +0.000 C 
ATOM      6  C   UNL     1       4.622   5.571  17.064  0.00  0.00    +0.000 C 
ENDROOT
BRANCH   1  13
ATOM      7 CL   UNL     1       3.532   2.104  17.675  0.00  0.00    +0.000 Cl
ATOM      8  C   UNL     1       2.857   3.312  18.723  0.00  0.00    +0.000 A 
ATOM      9  C   UNL     1       1.636   2.954  19.320  0.00  0.00    +0.000 A 
ATOM     10  C   UNL     1       1.030   3.785  20.256  0.00  0.00    +0.000 A 
ATOM     11  C   UNL     1       1.641   4.981  20.596  0.00  0.00    +0.000 A 
ATOM     12  C   UNL     1       2.845   5.347  19.985  0.00  0.00    +0.000 A 
ATOM     13  C   UNL     1       3.496   4.538  19.029  0.00  0.00    +0.000 A 
ENDBRANCH   1  13
BRANCH   4  14
ATOM     14  C   UNL     1       7.301   7.129  17.106  0.00  0.00    +0.000 C 
BRANCH  14  15
ATOM     15  C   UNL     1       8.170   7.649  18.254  0.00  0.00    +0.000 C 
BRANCH  15  16
ATOM     16  C   UNL     1       8.311   9.165  18.205  0.00  0.00    +0.000 C 
BRANCH  16  17
ATOM     17  O   UNL     1       9.350   9.561  19.098  0.00  0.00    +0.000 OA
BRANCH  17  18
ATOM     18  C   UNL     1       9.658  10.899  19.080  0.00  0.00    +0.000 A 
ATOM     19  C   UNL     1       9.417  11.800  20.134  0.00  0.00    +0.000 A 
ATOM     20  C   UNL     1       9.784  13.144  20.030  0.00  0.00    +0.000 A 
ATOM     21  C   UNL     1      10.401  13.566  18.868  0.00  0.00    +0.000 A 
ATOM     22  C   UNL     1      10.632  12.678  17.810  0.00  0.00    +0.000 A 
ATOM     23  C   UNL     1      10.260  11.346  17.899  0.00  0.00    +0.000 A 
ATOM     24  C   UNL     1      11.264  13.386  16.655  0.00  0.00    +0.000 C 
ATOM     25  C   UNL     1      11.803  14.647  17.344  0.00  0.00    +0.000 C 
ATOM     26  C   UNL     1      10.861  14.943  18.519  0.00  0.00    +0.000 C 
ENDBRANCH  17  18
ENDBRANCH  16  17
ENDBRANCH  15  16
ENDBRANCH  14  15
ENDBRANCH   4  14
TORSDOF 6
ENDMDL
MODEL 2
REMARK VINA RESULT:      -8.5      1.022      1.768
REMARK  Name = 
REMARK  6 active torsions:
REMARK  status: ('A' for Active; 'I' for Inactive)
REMARK    1  A    between atoms: C_7  and  N_8
REMARK    2  A    between atoms: N_11  and  C_12
REMARK    3  A    between atoms: C_12  and  C_13
REMARK    4  A    between atoms: C_13  and  C_14
REMARK    5  A    between atoms: C_14  and  O_15
REMARK    6  A    between atoms: O_15  and  C_16
REMARK                            x       y       z     vdW  Elec       q    Type
REMARK                         _______ _______ _______ _____ _____    ______ ____
ROOT
ATOM      1  N   UNL     1       4.286   4.583  18.658  0.00  0.00    +0.000 N 
ATOM      2  C   UNL     1       5.689   4.762  19.052  0.00  0.00    +0.000 C 
ATOM      3  C   UNL     1       6.599   4.707  17.805  0.00  0.00    +0.000 C 
ATOM      4  N   UNL     1       6.233   5.652  16.723  0.00  0.00    +0.000 NA
ATOM      5  C   UNL     1       4.817   5.391  16.368  0.00  0.00    +0.000 C 
ATOM      6  C   UNL     1       3.823   5.452  17.557  0.00  0.00    +0.000 C 
ENDROOT
BRANCH   1  13
ATOM      7 CL   UNL     1       3.796   1.415  18.266  0.00  0.00    +0.000 Cl
ATOM      8  C   UNL     1       3.005   2.539  19.327  0.00  0.00    +0.000 A 
ATOM      9  C   UNL     1       1.997   1.977  20.130  0.00  0.00    +0.000 A 
ATOM     10  C   UNL     1       1.345   2.739  21.094  0.00  0.00    +0.000 A 
ATOM     11  C   UNL     1       1.698   4.069  21.256  0.00  0.00    +0.000 A 
ATOM     12  C   UNL     1       2.686   4.633  20.444  0.00  0.00    +0.000 A 
ATOM     13  C   UNL     1       3.373   3.900  19.451  0.00  0.00    +0.000 A 
ENDBRANCH   1  13
BRANCH   4  14
ATOM     14  C   UNL     1       6.430   7.064  17.100  0.00  0.00    +0.000 C 
BRANCH  14  15
ATOM     15  C   UNL     1       7.797   7.362  17.720  0.00  0.00    +0.000 C 
BRANCH  15  16
ATOM     16  C   UNL     1       8.094   8.856  17.727  0.00  0.00    +0.000 C 
BRANCH  16  17
ATOM     17  O   UNL     1       8.740   9.194  18.952  0.00  0.00    +0.000 OA
BRANCH  17  18
ATOM     18  C   UNL     1       9.376  10.410  18.963  0.00  0.00    +0.000 A 
ATOM     19  C   UNL     1      10.041  10.987  17.865  0.00  0.00    +0.000 A 
ATOM     20  C   UNL     1      10.644  12.243  17.968  0.00  0.00    +0.000 A 
ATOM     21  C   UNL     1      10.563  12.911  19.175  0.00  0.00    +0.000 A 
ATOM     22  C   UNL     1       9.914  12.337  20.275  0.00  0.00    +0.000 A 
ATOM     23  C   UNL     1       9.324  11.086  20.187  0.00  0.00    +0.000 A 
ATOM     24  C   UNL     1      10.007  13.233  21.469  0.00  0.00    +0.000 C 
ATOM     25  C   UNL     1      10.350  14.573  20.803  0.00  0.00    +0.000 C 
ATOM     26  C   UNL     1      11.141  14.241  19.530  0.00  0.00    +0.000 C 
ENDBRANCH  17  18
ENDBRANCH  16  17
ENDBRANCH  15  16
ENDBRANCH  14  15
ENDBRANCH   4  14
TORSDOF 6
ENDMDL
MODEL 3
REMARK VINA RESULT:      -8.3      1.394      2.238
REMARK  Name = 
REMARK  6 active torsions:
REMARK  status: ('A' for Active; 'I' for Inactive)
REMARK    1  A    between atoms: C_7  and  N_8
REMARK    2  A    between atoms: N_11  and  C_12
REMARK    3  A    between atoms: C_12  and  C_13
REMARK    4  A    between atoms: C_13  and  C_14
REMARK    5  A    between atoms: C_14  and  O_15
REMARK    6  A    between atoms: O_15  and  C_16
REMARK                            x       y       z     vdW  Elec       q    Type
REMARK                         _______ _______ _______ _____ _____    ______ ____
ROOT
ATOM      1  N   UNL     1       4.250   5.126  18.104  0.00  0.00    +0.000 N 
ATOM      2  C   UNL     1       5.527   5.164  18.827  0.00  0.00    +0.000 C 
ATOM      3  C   UNL     1       6.701   5.229  17.824  0.00  0.00    +0.000 C 
ATOM      4  N   UNL     1       6.621   6.336  16.841  0.00  0.00    +0.000 NA
ATOM      5  C   UNL     1       5.319   6.212  16.141  0.00  0.00    +0.000 C 
ATOM      6  C   UNL     1       4.078   6.166  17.069  0.00  0.00    +0.000 C 
ENDROOT
BRANCH   1  13
ATOM      7 CL   UNL     1       2.107   6.440  20.132  0.00  0.00    +0.000 Cl
ATOM      8  C   UNL     1       2.200   4.822  19.509  0.00  0.00    +0.000 A 
ATOM      9  C   UNL     1       1.189   3.959  19.966  0.00  0.00    +0.000 A 
ATOM     10  C   UNL     1       1.084   2.662  19.477  0.00  0.00    +0.000 A 
ATOM     11  C   UNL     1       1.993   2.221  18.529  0.00  0.00    +0.000 A 
ATOM     12  C   UNL     1       3.011   3.072  18.090  0.00  0.00    +0.000 A 
ATOM     13  C   UNL     1       3.160   4.395  18.559  0.00  0.00    +0.000 A 
ENDBRANCH   1  13
BRANCH   4  14
ATOM     14  C   UNL     1       6.761   7.667  17.460  0.00  0.00    +0.000 C 
BRANCH  14  15
ATOM     15  C   UNL     1       8.138   7.930  18.074  0.00  0.00    +0.000 C 
BRANCH  15  16
ATOM     16  C   UNL     1       8.469   9.417  18.090  0.00  0.00    +0.000 C 
BRANCH  16  17
ATOM     17  O   UNL     1       9.085   9.740  19.334  0.00  0.00    +0.000 OA
BRANCH  17  18
ATOM     18  C   UNL     1       9.763  10.934  19.359  0.00  0.00    +0.000 A 
ATOM     19  C   UNL     1      10.666  11.374  18.374  0.00  0.00    +0.000 A 
ATOM     20  C   UNL     1      11.294  12.617  18.477  0.00  0.00    +0.000 A 
ATOM     21  C   UNL     1      10.999  13.411  19.569  0.00  0.00    +0.000 A 
ATOM     22  C   UNL     1      10.112  12.974  20.560  0.00  0.00    +0.000 A 
ATOM     23  C   UNL     1       9.493  11.737  20.472  0.00  0.00    +0.000 A 
ATOM     24  C   UNL     1      10.000  13.988  21.653  0.00  0.00    +0.000 C 
ATOM     25  C   UNL     1      10.537  15.241  20.946  0.00  0.00    +0.000 C 
ATOM     26  C   UNL     1      11.555  14.755  19.906  0.00  0.00    +0.000 C 
ENDBRANCH  17  18
ENDBRANCH  16  17
ENDBRANCH  15  16
ENDBRANCH  14  15
ENDBRANCH   4  14
TORSDOF 6
ENDMDL
MODEL 4
REMARK VINA RESULT:      -8.3      1.041      1.299
REMARK  Name = 
REMARK  6 active torsions:
REMARK  status: ('A' for Active; 'I' for Inactive)
REMARK    1  A    between atoms: C_7  and  N_8
REMARK    2  A    between atoms: N_11  and  C_12
REMARK    3  A    between atoms: C_12  and  C_13
REMARK    4  A    between atoms: C_13  and  C_14
REMARK    5  A    between atoms: C_14  and  O_15
REMARK    6  A    between atoms: O_15  and  C_16
REMARK                            x       y       z     vdW  Elec       q    Type
REMARK                         _______ _______ _______ _____ _____    ______ ____
ROOT
ATOM      1  N   UNL     1       4.380   4.867  18.596  0.00  0.00    +0.000 N 
ATOM      2  C   UNL     1       5.717   4.301  18.819  0.00  0.00    +0.000 C 
ATOM      3  C   UNL     1       6.598   4.517  17.569  0.00  0.00    +0.000 C 
ATOM      4  N   UNL     1       6.694   5.923  17.108  0.00  0.00    +0.000 NA
ATOM      5  C   UNL     1       5.311   6.411  16.884  0.00  0.00    +0.000 C 
ATOM      6  C   UNL     1       4.358   6.257  18.098  0.00  0.00    +0.000 C 
ENDROOT
BRANCH   1  13
ATOM      7 CL   UNL     1       3.474   1.908  17.674  0.00  0.00    +0.000 Cl
ATOM      8  C   UNL     1       2.680   3.035  18.730  0.00  0.00    +0.000 A 
ATOM      9  C   UNL     1       1.456   2.584  19.254  0.00  0.00    +0.000 A 
ATOM     10  C   UNL     1       0.757   3.343  20.187  0.00  0.00    +0.000 A 
ATOM     11  C   UNL     1       1.280   4.559  20.598  0.00  0.00    +0.000 A 
ATOM     12  C   UNL     1       2.487   5.016  20.061  0.00  0.00    +0.000 A 
ATOM     13  C   UNL     1       3.230   4.283  19.110  0.00  0.00    +0.000 A 
ENDBRANCH   1  13
BRANCH   4  14
ATOM     14  C   UNL     1       7.411   6.793  18.059  0.00  0.00    +0.000 C 
BRANCH  14  15
ATOM     15  C   UNL     1       7.750   8.179  17.506  0.00  0.00    +0.000 C 
BRANCH  15  16
ATOM     16  C   UNL     1       8.580   8.987  18.494  0.00  0.00    +0.000 C 
BRANCH  16  17
ATOM     17  O   UNL     1       8.924  10.236  17.898  0.00  0.00    +0.000 OA
BRANCH  17  18
ATOM     18  C   UNL     1       9.338  11.209  18.773  0.00  0.00    +0.000 A 
ATOM     19  C   UNL     1       9.619  11.006  20.137  0.00  0.00    +0.000 A 
ATOM     20  C   UNL     1      10.055  12.057  20.946  0.00  0.00    +0.000 A 
ATOM     21  C   UNL     1      10.213  13.304  20.371  0.00  0.00    +0.000 A 
ATOM     22  C   UNL     1       9.923  13.516  19.018  0.00  0.00    +0.000 A 
ATOM     23  C   UNL     1       9.478  12.482  18.210  0.00  0.00    +0.000 A 
ATOM     24  C   UNL     1      10.127  14.952  18.653  0.00  0.00    +0.000 C 
ATOM     25  C   UNL     1      11.019  15.424  19.810  0.00  0.00    +0.000 C 
ATOM     26  C   UNL     1      10.643  14.573  21.030  0.00  0.00    +0.000 C 
ENDBRANCH  17  18
ENDBRANCH  16  17
ENDBRANCH  15  16
ENDBRANCH  14  15
ENDBRANCH   4  14
TORSDOF 6
ENDMDL
MODEL 5
REMARK VINA RESULT:      -8.1      0.981      1.266
REMARK  Name = 
REMARK  6 active torsions:
REMARK  status: ('A' for Active; 'I' for Inactive)
REMARK    1  A    between atoms: C_7  and  N_8
REMARK    2  A    between atoms: N_11  and  C_12
REMARK    3  A    between atoms: C_12  and  C_13
REMARK    4  A    between atoms: C_13  and  C_14
REMARK    5  A    between atoms: C_14  and  O_15
REMARK    6  A    between atoms: O_15  and  C_16
REMARK                            x       y       z     vdW  Elec       q    Type
REMARK                         _______ _______ _______ _____ _____    ______ ____
ROOT
ATOM      1  N   UNL     1       4.867   4.929  18.643  0.00  0.00    +0.000 N 
ATOM      2  C   UNL     1       6.133   5.349  19.259  0.00  0.00    +0.000 C 
ATOM      3  C   UNL     1       7.322   4.894  18.385  0.00  0.00    +0.000 C 
ATOM      4  N   UNL     1       7.259   5.329  16.969  0.00  0.00    +0.000 NA
ATOM      5  C   UNL     1       5.969   4.847  16.416  0.00  0.00    +0.000 C 
ATOM      6  C   UNL     1       4.713   5.279  17.216  0.00  0.00    +0.000 C 
ENDROOT
BRANCH   1  13
ATOM      7 CL   UNL     1       4.471   1.836  19.485  0.00  0.00    +0.000 Cl
ATOM      8  C   UNL     1       3.437   3.204  19.758  0.00  0.00    +0.000 A 
ATOM      9  C   UNL     1       2.247   2.910  20.447  0.00  0.00    +0.000 A 
ATOM     10  C   UNL     1       1.369   3.923  20.818  0.00  0.00    +0.000 A 
ATOM     11  C   UNL     1       1.677   5.236  20.499  0.00  0.00    +0.000 A 
ATOM     12  C   UNL     1       2.851   5.526  19.796  0.00  0.00    +0.000 A 
ATOM     13  C   UNL     1       3.770   4.531  19.396  0.00  0.00    +0.000 A 
ENDBRANCH   1  13
BRANCH   4  14
ATOM     14  C   UNL     1       7.389   6.789  16.808  0.00  0.00    +0.000 C 
BRANCH  14  15
ATOM     15  C   UNL     1       7.846   7.519  18.072  0.00  0.00    +0.000 C 
BRANCH  15  16
ATOM     16  C   UNL     1       8.078   9.001  17.808  0.00  0.00    +0.000 C 
BRANCH  16  17
ATOM     17  O   UNL     1       8.993   9.507  18.778  0.00  0.00    +0.000 OA
BRANCH  17  18
ATOM     18  C   UNL     1       9.414  10.797  18.570  0.00  0.00    +0.000 A 
ATOM     19  C   UNL     1       8.749  11.748  17.774  0.00  0.00    +0.000 A 
ATOM     20  C   UNL     1       9.246  13.046  17.638  0.00  0.00    +0.000 A 
ATOM     21  C   UNL     1      10.405  13.378  18.314  0.00  0.00    +0.000 A 
ATOM     22  C   UNL     1      11.079  12.432  19.097  0.00  0.00    +0.000 A 
ATOM     23  C   UNL     1      10.600  11.138  19.228  0.00  0.00    +0.000 A 
ATOM     24  C   UNL     1      12.323  13.021  19.681  0.00  0.00    +0.000 C 
ATOM     25  C   UNL     1      12.031  14.522  19.542  0.00  0.00    +0.000 C 
ATOM     26  C   UNL     1      11.133  14.681  18.308  0.00  0.00    +0.000 C 
ENDBRANCH  17  18
ENDBRANCH  16  17
ENDBRANCH  15  16
ENDBRANCH  14  15
ENDBRANCH   4  14
TORSDOF 6
ENDMDL
MODEL 6
REMARK VINA RESULT:      -8.1      1.387      1.631
REMARK  Name = 
REMARK  6 active torsions:
REMARK  status: ('A' for Active; 'I' for Inactive)
REMARK    1  A    between atoms: C_7  and  N_8
REMARK    2  A    between atoms: N_11  and  C_12
REMARK    3  A    between atoms: C_12  and  C_13
REMARK    4  A    between atoms: C_13  and  C_14
REMARK    5  A    between atoms: C_14  and  O_15
REMARK    6  A    between atoms: O_15  and  C_16
REMARK                            x       y       z     vdW  Elec       q    Type
REMARK                         _______ _______ _______ _____ _____    ______ ____
ROOT
ATOM      1  N   UNL     1       4.731   4.842  18.609  0.00  0.00    +0.000 N 
ATOM      2  C   UNL     1       6.141   5.044  18.969  0.00  0.00    +0.000 C 
ATOM      3  C   UNL     1       7.031   4.916  17.713  0.00  0.00    +0.000 C 
ATOM      4  N   UNL     1       6.646   5.797  16.584  0.00  0.00    +0.000 NA
ATOM      5  C   UNL     1       5.225   5.516  16.268  0.00  0.00    +0.000 C 
ATOM      6  C   UNL     1       4.250   5.645  17.467  0.00  0.00    +0.000 C 
ENDROOT
BRANCH   1  13
ATOM      7 CL   UNL     1       2.338   6.490  20.018  0.00  0.00    +0.000 Cl
ATOM      8  C   UNL     1       2.796   4.825  20.197  0.00  0.00    +0.000 A 
ATOM      9  C   UNL     1       2.003   4.093  21.097  0.00  0.00    +0.000 A 
ATOM     10  C   UNL     1       2.195   2.726  21.268  0.00  0.00    +0.000 A 
ATOM     11  C   UNL     1       3.185   2.086  20.540  0.00  0.00    +0.000 A 
ATOM     12  C   UNL     1       3.988   2.819  19.661  0.00  0.00    +0.000 A 
ATOM     13  C   UNL     1       3.832   4.207  19.456  0.00  0.00    +0.000 A 
ENDBRANCH   1  13
BRANCH   4  14
ATOM     14  C   UNL     1       6.848   7.228  16.875  0.00  0.00    +0.000 C 
BRANCH  14  15
ATOM     15  C   UNL     1       7.941   7.509  17.909  0.00  0.00    +0.000 C 
BRANCH  15  16
ATOM     16  C   UNL     1       8.246   8.997  18.010  0.00  0.00    +0.000 C 
BRANCH  16  17
ATOM     17  O   UNL     1       8.747   9.280  19.315  0.00  0.00    +0.000 OA
BRANCH  17  18
ATOM     18  C   UNL     1       9.422  10.470  19.438  0.00  0.00    +0.000 A 
ATOM     19  C   UNL     1       9.576  11.194  20.635  0.00  0.00    +0.000 A 
ATOM     20  C   UNL     1      10.299  12.388  20.665  0.00  0.00    +0.000 A 
ATOM     21  C   UNL     1      10.869  12.838  19.489  0.00  0.00    +0.000 A 
ATOM     22  C   UNL     1      10.709  12.129  18.292  0.00  0.00    +0.000 A 
ATOM     23  C   UNL     1       9.982  10.950  18.250  0.00  0.00    +0.000 A 
ATOM     24  C   UNL     1      11.376  12.845  17.161  0.00  0.00    +0.000 C 
ATOM     25  C   UNL     1      12.332  13.772  17.925  0.00  0.00    +0.000 C 
ATOM     26  C   UNL     1      11.661  14.085  19.269  0.00  0.00    +0.000 C 
ENDBRANCH  17  18
ENDBRANCH  16  17
ENDBRANCH  15  16
ENDBRANCH  14  15
ENDBRANCH   4  14
TORSDOF 6
ENDMDL
MODEL 7
REMARK VINA RESULT:      -8.0      1.527      2.285
REMARK  Name = 
REMARK  6 active torsions:
REMARK  status: ('A' for Active; 'I' for Inactive)
REMARK    1  A    between atoms: C_7  and  N_8
REMARK    2  A    between atoms: N_11  and  C_12
REMARK    3  A    between atoms: C_12  and  C_13
REMARK    4  A    between atoms: C_13  and  C_14
REMARK    5  A    between atoms: C_14  and  O_15
REMARK    6  A    between atoms: O_15  and  C_16
REMARK                            x       y       z     vdW  Elec       q    Type
REMARK                         _______ _______ _______ _____ _____    ______ ____
ROOT
ATOM      1  N   UNL     1       4.715   4.569  18.217  0.00  0.00    +0.000 N 
ATOM      2  C   UNL     1       5.436   5.329  19.247  0.00  0.00    +0.000 C 
ATOM      3  C   UNL     1       6.960   5.180  19.044  0.00  0.00    +0.000 C 
ATOM      4  N   UNL     1       7.447   5.539  17.690  0.00  0.00    +0.000 NA
ATOM      5  C   UNL     1       6.691   4.715  16.715  0.00  0.00    +0.000 C 
ATOM      6  C   UNL     1       5.148   4.821  16.827  0.00  0.00    +0.000 C 
ENDROOT
BRANCH   1  13
ATOM      7 CL   UNL     1       4.599   2.066  20.254  0.00  0.00    +0.000 Cl
ATOM      8  C   UNL     1       3.344   2.763  19.278  0.00  0.00    +0.000 A 
ATOM      9  C   UNL     1       2.093   2.133  19.395  0.00  0.00    +0.000 A 
ATOM     10  C   UNL     1       0.974   2.643  18.744  0.00  0.00    +0.000 A 
ATOM     11  C   UNL     1       1.104   3.785  17.970  0.00  0.00    +0.000 A 
ATOM     12  C   UNL     1       2.353   4.400  17.838  0.00  0.00    +0.000 A 
ATOM     13  C   UNL     1       3.516   3.918  18.476  0.00  0.00    +0.000 A 
ENDBRANCH   1  13
BRANCH   4  14
ATOM     14  C   UNL     1       7.305   6.975  17.388  0.00  0.00    +0.000 C 
BRANCH  14  15
ATOM     15  C   UNL     1       8.202   7.884  18.232  0.00  0.00    +0.000 C 
BRANCH  15  16
ATOM     16  C   UNL     1       8.041   9.347  17.841  0.00  0.00    +0.000 C 
BRANCH  16  17
ATOM     17  O   UNL     1       9.302  10.001  17.965  0.00  0.00    +0.000 OA
BRANCH  17  18
ATOM     18  C   UNL     1       9.265  11.236  18.562  0.00  0.00    +0.000 A 
ATOM     19  C   UNL     1       9.145  12.462  17.883  0.00  0.00    +0.000 A 
ATOM     20  C   UNL     1       9.097  13.670  18.581  0.00  0.00    +0.000 A 
ATOM     21  C   UNL     1       9.160  13.632  19.962  0.00  0.00    +0.000 A 
ATOM     22  C   UNL     1       9.292  12.416  20.643  0.00  0.00    +0.000 A 
ATOM     23  C   UNL     1       9.354  11.213  19.958  0.00  0.00    +0.000 A 
ATOM     24  C   UNL     1       9.387  12.646  22.118  0.00  0.00    +0.000 C 
ATOM     25  C   UNL     1       8.812  14.065  22.231  0.00  0.00    +0.000 C 
ATOM     26  C   UNL     1       9.148  14.780  20.915  0.00  0.00    +0.000 C 
ENDBRANCH  17  18
ENDBRANCH  16  17
ENDBRANCH  15  16
ENDBRANCH  14  15
ENDBRANCH   4  14
TORSDOF 6
ENDMDL
MODEL 8
REMARK VINA RESULT:      -7.9      1.384      1.830
REMARK  Name = 
REMARK  6 active torsions:
REMARK  status: ('A' for Active; 'I' for Inactive)
REMARK    1  A    between atoms: C_7  and  N_8
REMARK    2  A    between atoms: N_11  and  C_12
REMARK    3  A    between atoms: C_12  and  C_13
REMARK    4  A    between atoms: C_13  and  C_14
REMARK    5  A    between atoms: C_14  and  O_15
REMARK    6  A    between atoms: O_15  and  C_16
REMARK                            x       y       z     vdW  Elec       q    Type
REMARK                         _______ _______ _______ _____ _____    ______ ____
ROOT
ATOM      1  N   UNL     1       4.863   5.044  18.256  0.00  0.00    +0.000 N 
ATOM      2  C   UNL     1       6.057   4.724  19.050  0.00  0.00    +0.000 C 
ATOM      3  C   UNL     1       7.307   4.714  18.143  0.00  0.00    +0.000 C 
ATOM      4  N   UNL     1       7.518   5.953  17.357  0.00  0.00    +0.000 NA
ATOM      5  C   UNL     1       6.283   6.192  16.569  0.00  0.00    +0.000 C 
ATOM      6  C   UNL     1       4.977   6.244  17.402  0.00  0.00    +0.000 C 
ENDROOT
BRANCH   1  13
ATOM      7 CL   UNL     1       2.566   6.722  19.785  0.00  0.00    +0.000 Cl
ATOM      8  C   UNL     1       2.565   5.070  19.248  0.00  0.00    +0.000 A 
ATOM      9  C   UNL     1       1.384   4.363  19.531  0.00  0.00    +0.000 A 
ATOM     10  C   UNL     1       1.206   3.061  19.076  0.00  0.00    +0.000 A 
ATOM     11  C   UNL     1       2.213   2.459  18.337  0.00  0.00    +0.000 A 
ATOM     12  C   UNL     1       3.396   3.156  18.074  0.00  0.00    +0.000 A 
ATOM     13  C   UNL     1       3.623   4.477  18.517  0.00  0.00    +0.000 A 
ENDBRANCH   1  13
BRANCH   4  14
ATOM     14  C   UNL     1       7.841   7.121  18.197  0.00  0.00    +0.000 C 
BRANCH  14  15
ATOM     15  C   UNL     1       7.461   8.466  17.572  0.00  0.00    +0.000 C 
BRANCH  15  16
ATOM     16  C   UNL     1       8.547   9.510  17.790  0.00  0.00    +0.000 C 
BRANCH  16  17
ATOM     17  O   UNL     1       8.968   9.463  19.152  0.00  0.00    +0.000 OA
BRANCH  17  18
ATOM     18  C   UNL     1       9.343  10.669  19.691  0.00  0.00    +0.000 A 
ATOM     19  C   UNL     1       9.216  11.027  21.046  0.00  0.00    +0.000 A 
ATOM     20  C   UNL     1       9.646  12.274  21.504  0.00  0.00    +0.000 A 
ATOM     21  C   UNL     1      10.211  13.147  20.594  0.00  0.00    +0.000 A 
ATOM     22  C   UNL     1      10.329  12.802  19.242  0.00  0.00    +0.000 A 
ATOM     23  C   UNL     1       9.894  11.572  18.775  0.00  0.00    +0.000 A 
ATOM     24  C   UNL     1      10.925  13.930  18.460  0.00  0.00    +0.000 C 
ATOM     25  C   UNL     1      11.571  14.755  19.582  0.00  0.00    +0.000 C 
ATOM     26  C   UNL     1      10.720  14.529  20.839  0.00  0.00    +0.000 C 
ENDBRANCH  17  18
ENDBRANCH  16  17
ENDBRANCH  15  16
ENDBRANCH  14  15
ENDBRANCH   4  14
TORSDOF 6
ENDMDL
MODEL 9
REMARK VINA RESULT:      -7.9      0.982      1.018
REMARK  Name = 
REMARK  6 active torsions:
REMARK  status: ('A' for Active; 'I' for Inactive)
REMARK    1  A    between atoms: C_7  and  N_8
REMARK    2  A    between atoms: N_11  and  C_12
REMARK    3  A    between atoms: C_12  and  C_13
REMARK    4  A    between atoms: C_13  and  C_14
REMARK    5  A    between atoms: C_14  and  O_15
REMARK    6  A    between atoms: O_15  and  C_16
REMARK                            x       y       z     vdW  Elec       q    Type
REMARK                         _______ _______ _______ _____ _____    ______ ____
ROOT
ATOM      1  N   UNL     1       4.399   4.802  18.501  0.00  0.00    +0.000 N 
ATOM      2  C   UNL     1       5.704   4.377  19.025  0.00  0.00    +0.000 C 
ATOM      3  C   UNL     1       6.780   4.496  17.924  0.00  0.00    +0.000 C 
ATOM      4  N   UNL     1       6.879   5.834  17.291  0.00  0.00    +0.000 NA
ATOM      5  C   UNL     1       5.534   6.177  16.768  0.00  0.00    +0.000 C 
ATOM      6  C   UNL     1       4.390   6.109  17.813  0.00  0.00    +0.000 C 
ENDROOT
BRANCH   1  13
ATOM      7 CL   UNL     1       3.026   2.513  16.683  0.00  0.00    +0.000 Cl
ATOM      8  C   UNL     1       2.465   3.251  18.151  0.00  0.00    +0.000 A 
ATOM      9  C   UNL     1       1.222   2.779  18.607  0.00  0.00    +0.000 A 
ATOM     10  C   UNL     1       0.696   3.212  19.819  0.00  0.00    +0.000 A 
ATOM     11  C   UNL     1       1.410   4.124  20.579  0.00  0.00    +0.000 A 
ATOM     12  C   UNL     1       2.636   4.610  20.116  0.00  0.00    +0.000 A 
ATOM     13  C   UNL     1       3.210   4.201  18.892  0.00  0.00    +0.000 A 
ENDBRANCH   1  13
BRANCH   4  14
ATOM     14  C   UNL     1       7.367   6.874  18.215  0.00  0.00    +0.000 C 
BRANCH  14  15
ATOM     15  C   UNL     1       8.037   8.063  17.522  0.00  0.00    +0.000 C 
BRANCH  15  16
ATOM     16  C   UNL     1       8.502   9.106  18.529  0.00  0.00    +0.000 C 
BRANCH  16  17
ATOM     17  O   UNL     1       8.449  10.394  17.918  0.00  0.00    +0.000 OA
BRANCH  17  18
ATOM     18  C   UNL     1       9.403  11.285  18.345  0.00  0.00    +0.000 A 
ATOM     19  C   UNL     1      10.149  11.167  19.532  0.00  0.00    +0.000 A 
ATOM     20  C   UNL     1      11.114  12.116  19.873  0.00  0.00    +0.000 A 
ATOM     21  C   UNL     1      11.326  13.173  19.008  0.00  0.00    +0.000 A 
ATOM     22  C   UNL     1      10.579  13.304  17.831  0.00  0.00    +0.000 A 
ATOM     23  C   UNL     1       9.610  12.373  17.491  0.00  0.00    +0.000 A 
ATOM     24  C   UNL     1      10.962  14.549  17.097  0.00  0.00    +0.000 C 
ATOM     25  C   UNL     1      12.329  14.851  17.728  0.00  0.00    +0.000 C 
ATOM     26  C   UNL     1      12.279  14.313  19.164  0.00  0.00    +0.000 C 
ENDBRANCH  17  18
ENDBRANCH  16  17
ENDBRANCH  15  16
ENDBRANCH  14  15
ENDBRANCH   4  14
TORSDOF 6
ENDMDL
