MODEL 1
REMARK VINA RESULT:      -7.4      0.000      0.000
REMARK  Name = 
REMARK  6 active torsions:
REMARK  status: ('A' for Active; 'I' for Inactive)
REMARK    1  A    between atoms: C_1  and  C_2
REMARK    2  A    between atoms: N_9  and  C_10
REMARK    3  A    between atoms: C_10  and  C_11
REMARK    4  A    between atoms: C_11  and  C_12
REMARK    5  A    between atoms: C_12  and  C_13
REMARK    6  A    between atoms: C_13  and  N_14
REMARK                            x       y       z     vdW  Elec       q    Type
REMARK                         _______ _______ _______ _____ _____    ______ ____
ROOT
ATOM      1  C   UNL     1       4.663   3.266  11.477  0.00  0.00    +0.000 C 
ATOM      2  C   UNL     1       5.451   3.738  12.662  0.00  0.00    +0.000 A 
ATOM      3  C   UNL     1       6.751   4.242  12.522  0.00  0.00    +0.000 A 
ATOM      4  C   UNL     1       7.470   4.683  13.639  0.00  0.00    +0.000 A 
ATOM      5  C   UNL     1       6.886   4.616  14.903  0.00  0.00    +0.000 A 
ATOM      6  N   UNL     1       7.596   5.024  16.028  0.00  0.00    +0.000 N 
ATOM      7  C   UNL     1       7.123   4.914  17.306  0.00  0.00    +0.000 A 
ATOM      8  O   UNL     1       7.845   5.262  18.240  0.00  0.00    +0.000 OA
ATOM      9  N   UNL     1       5.847   4.396  17.460  0.00  0.00    +0.000 N 
ATOM     10  C   UNL     1       5.008   4.076  16.395  0.00  0.00    +0.000 A 
ATOM     11  O   UNL     1       3.830   3.752  16.520  0.00  0.00    +0.000 OA
ATOM     12  C   UNL     1       5.595   4.131  15.047  0.00  0.00    +0.000 A 
ATOM     13  C   UNL     1       4.872   3.694  13.935  0.00  0.00    +0.000 A 
ATOM     14  H   UNL     1       8.533   5.400  15.938  0.00  0.00    +0.000 HD
ENDROOT
BRANCH   9  15
ATOM     15  C   UNL     1       5.299   4.247  18.805  0.00  0.00    +0.000 C 
BRANCH  15  16
ATOM     16  C   UNL     1       4.834   5.577  19.422  0.00  0.00    +0.000 C 
BRANCH  16  17
ATOM     17  C   UNL     1       3.454   6.048  18.955  0.00  0.00    +0.000 C 
BRANCH  17  18
ATOM     18  C   UNL     1       2.394   5.898  20.043  0.00  0.00    +0.000 C 
BRANCH  18  19
ATOM     19  N   UNL     1       1.923   4.536  20.174  0.00  0.00    +0.000 N 
ATOM     20  C   UNL     1       1.319   3.792  19.202  0.00  0.00    +0.000 A 
ATOM     21  C   UNL     1       0.993   2.607  19.821  0.00  0.00    +0.000 A 
ATOM     22  N   UNL     1       1.389   2.616  21.134  0.00  0.00    +0.000 NA
ATOM     23  C   UNL     1       1.939   3.796  21.321  0.00  0.00    +0.000 A 
ENDBRANCH  18  19
ENDBRANCH  17  18
ENDBRANCH  16  17
ENDBRANCH  15  16
ENDBRANCH   9  15
TORSDOF 5
ENDMDL
MODEL 2
REMARK VINA RESULT:      -7.3      3.968      7.138
REMARK  Name = 
REMARK  6 active torsions:
REMARK  status: ('A' for Active; 'I' for Inactive)
REMARK    1  A    between atoms: C_1  and  C_2
REMARK    2  A    between atoms: N_9  and  C_10
REMARK    3  A    between atoms: C_10  and  C_11
REMARK    4  A    between atoms: C_11  and  C_12
REMARK    5  A    between atoms: C_12  and  C_13
REMARK    6  A    between atoms: C_13  and  N_14
REMARK                            x       y       z     vdW  Elec       q    Type
REMARK                         _______ _______ _______ _____ _____    ______ ____
ROOT
ATOM      1  C   UNL     1       1.156   2.886  20.509  0.00  0.00    +0.000 C 
ATOM      2  C   UNL     1       2.174   3.050  19.420  0.00  0.00    +0.000 A 
ATOM      3  C   UNL     1       2.041   2.392  18.189  0.00  0.00    +0.000 A 
ATOM      4  C   UNL     1       2.998   2.561  17.183  0.00  0.00    +0.000 A 
ATOM      5  C   UNL     1       4.095   3.391  17.409  0.00  0.00    +0.000 A 
ATOM      6  N   UNL     1       5.071   3.550  16.430  0.00  0.00    +0.000 N 
ATOM      7  C   UNL     1       6.213   4.281  16.606  0.00  0.00    +0.000 A 
ATOM      8  O   UNL     1       7.038   4.325  15.694  0.00  0.00    +0.000 OA
ATOM      9  N   UNL     1       6.367   4.918  17.827  0.00  0.00    +0.000 N 
ATOM     10  C   UNL     1       5.393   4.926  18.824  0.00  0.00    +0.000 A 
ATOM     11  O   UNL     1       5.462   5.602  19.847  0.00  0.00    +0.000 OA
ATOM     12  C   UNL     1       4.225   4.056  18.619  0.00  0.00    +0.000 A 
ATOM     13  C   UNL     1       3.270   3.894  19.625  0.00  0.00    +0.000 A 
ATOM     14  H   UNL     1       4.981   3.087  15.532  0.00  0.00    +0.000 HD
ENDROOT
BRANCH   9  15
ATOM     15  C   UNL     1       7.574   5.702  18.071  0.00  0.00    +0.000 C 
BRANCH  15  16
ATOM     16  C   UNL     1       7.454   7.163  17.604  0.00  0.00    +0.000 C 
BRANCH  16  17
ATOM     17  C   UNL     1       8.305   8.158  18.399  0.00  0.00    +0.000 C 
BRANCH  17  18
ATOM     18  C   UNL     1       8.275   9.557  17.790  0.00  0.00    +0.000 C 
BRANCH  18  19
ATOM     19  N   UNL     1       9.135  10.486  18.493  0.00  0.00    +0.000 N 
ATOM     20  C   UNL     1       9.852  11.504  17.935  0.00  0.00    +0.000 A 
ATOM     21  C   UNL     1      10.560  12.048  18.982  0.00  0.00    +0.000 A 
ATOM     22  N   UNL     1      10.284  11.391  20.153  0.00  0.00    +0.000 NA
ATOM     23  C   UNL     1       9.428  10.447  19.826  0.00  0.00    +0.000 A 
ENDBRANCH  18  19
ENDBRANCH  17  18
ENDBRANCH  16  17
ENDBRANCH  15  16
ENDBRANCH   9  15
TORSDOF 5
ENDMDL
MODEL 3
REMARK VINA RESULT:      -7.3      1.075      1.159
REMARK  Name = 
REMARK  6 active torsions:
REMARK  status: ('A' for Active; 'I' for Inactive)
REMARK    1  A    between atoms: C_1  and  C_2
REMARK    2  A    between atoms: N_9  and  C_10
REMARK    3  A    between atoms: C_10  and  C_11
REMARK    4  A    between atoms: C_11  and  C_12
REMARK    5  A    between atoms: C_12  and  C_13
REMARK    6  A    between atoms: C_13  and  N_14
REMARK                            x       y       z     vdW  Elec       q    Type
REMARK                         _______ _______ _______ _____ _____    ______ ____
ROOT
ATOM      1  C   UNL     1       5.320   2.713  11.557  0.00  0.00    +0.000 C 
ATOM      2  C   UNL     1       5.927   3.564  12.633  0.00  0.00    +0.000 A 
ATOM      3  C   UNL     1       7.103   4.294  12.411  0.00  0.00    +0.000 A 
ATOM      4  C   UNL     1       7.652   5.088  13.424  0.00  0.00    +0.000 A 
ATOM      5  C   UNL     1       7.024   5.149  14.667  0.00  0.00    +0.000 A 
ATOM      6  N   UNL     1       7.570   5.911  15.695  0.00  0.00    +0.000 N 
ATOM      7  C   UNL     1       7.059   5.957  16.962  0.00  0.00    +0.000 A 
ATOM      8  O   UNL     1       7.640   6.627  17.815  0.00  0.00    +0.000 OA
ATOM      9  N   UNL     1       5.908   5.221  17.201  0.00  0.00    +0.000 N 
ATOM     10  C   UNL     1       5.213   4.529  16.211  0.00  0.00    +0.000 A 
ATOM     11  O   UNL     1       4.122   3.994  16.383  0.00  0.00    +0.000 OA
ATOM     12  C   UNL     1       5.853   4.440  14.889  0.00  0.00    +0.000 A 
ATOM     13  C   UNL     1       5.298   3.650  13.879  0.00  0.00    +0.000 A 
ATOM     14  H   UNL     1       8.415   6.451  15.544  0.00  0.00    +0.000 HD
ENDROOT
BRANCH   9  15
ATOM     15  C   UNL     1       5.327   5.227  18.539  0.00  0.00    +0.000 C 
BRANCH  15  16
ATOM     16  C   UNL     1       4.215   6.275  18.714  0.00  0.00    +0.000 C 
BRANCH  16  17
ATOM     17  C   UNL     1       3.042   5.821  19.588  0.00  0.00    +0.000 C 
BRANCH  17  18
ATOM     18  C   UNL     1       3.261   4.426  20.168  0.00  0.00    +0.000 C 
BRANCH  18  19
ATOM     19  N   UNL     1       2.306   3.461  19.667  0.00  0.00    +0.000 N 
ATOM     20  C   UNL     1       2.596   2.326  18.966  0.00  0.00    +0.000 A 
ATOM     21  C   UNL     1       1.370   1.786  18.652  0.00  0.00    +0.000 A 
ATOM     22  N   UNL     1       0.353   2.559  19.150  0.00  0.00    +0.000 NA
ATOM     23  C   UNL     1       0.948   3.568  19.749  0.00  0.00    +0.000 A 
ENDBRANCH  18  19
ENDBRANCH  17  18
ENDBRANCH  16  17
ENDBRANCH  15  16
ENDBRANCH   9  15
TORSDOF 5
ENDMDL
MODEL 4
REMARK VINA RESULT:      -7.2      4.071      7.120
REMARK  Name = 
REMARK  6 active torsions:
REMARK  status: ('A' for Active; 'I' for Inactive)
REMARK    1  A    between atoms: C_1  and  C_2
REMARK    2  A    between atoms: N_9  and  C_10
REMARK    3  A    between atoms: C_10  and  C_11
REMARK    4  A    between atoms: C_11  and  C_12
REMARK    5  A    between atoms: C_12  and  C_13
REMARK    6  A    between atoms: C_13  and  N_14
REMARK                            x       y       z     vdW  Elec       q    Type
REMARK                         _______ _______ _______ _____ _____    ______ ____
ROOT
ATOM      1  C   UNL     1       0.702   3.673  20.212  0.00  0.00    +0.000 C 
ATOM      2  C   UNL     1       1.892   3.567  19.305  0.00  0.00    +0.000 A 
ATOM      3  C   UNL     1       2.340   2.327  18.828  0.00  0.00    +0.000 A 
ATOM      4  C   UNL     1       3.449   2.248  17.978  0.00  0.00    +0.000 A 
ATOM      5  C   UNL     1       4.116   3.414  17.608  0.00  0.00    +0.000 A 
ATOM      6  N   UNL     1       5.238   3.353  16.786  0.00  0.00    +0.000 N 
ATOM      7  C   UNL     1       5.992   4.441  16.445  0.00  0.00    +0.000 A 
ATOM      8  O   UNL     1       6.993   4.278  15.749  0.00  0.00    +0.000 OA
ATOM      9  N   UNL     1       5.573   5.671  16.931  0.00  0.00    +0.000 N 
ATOM     10  C   UNL     1       4.396   5.857  17.654  0.00  0.00    +0.000 A 
ATOM     11  O   UNL     1       3.947   6.957  17.965  0.00  0.00    +0.000 OA
ATOM     12  C   UNL     1       3.671   4.645  18.066  0.00  0.00    +0.000 A 
ATOM     13  C   UNL     1       2.561   4.730  18.910  0.00  0.00    +0.000 A 
ATOM     14  H   UNL     1       5.565   2.463  16.426  0.00  0.00    +0.000 HD
ENDROOT
BRANCH   9  15
ATOM     15  C   UNL     1       6.349   6.863  16.606  0.00  0.00    +0.000 C 
BRANCH  15  16
ATOM     16  C   UNL     1       7.381   7.229  17.686  0.00  0.00    +0.000 C 
BRANCH  16  17
ATOM     17  C   UNL     1       7.719   8.720  17.766  0.00  0.00    +0.000 C 
BRANCH  17  18
ATOM     18  C   UNL     1       8.857   9.003  18.743  0.00  0.00    +0.000 C 
BRANCH  18  19
ATOM     19  N   UNL     1       9.088  10.419  18.932  0.00  0.00    +0.000 N 
ATOM     20  C   UNL     1       9.290  11.054  20.123  0.00  0.00    +0.000 A 
ATOM     21  C   UNL     1       9.386  12.388  19.797  0.00  0.00    +0.000 A 
ATOM     22  N   UNL     1       9.255  12.571  18.444  0.00  0.00    +0.000 NA
ATOM     23  C   UNL     1       9.066  11.367  17.949  0.00  0.00    +0.000 A 
ENDBRANCH  18  19
ENDBRANCH  17  18
ENDBRANCH  16  17
ENDBRANCH  15  16
ENDBRANCH   9  15
TORSDOF 5
ENDMDL
MODEL 5
REMARK VINA RESULT:      -7.1      2.162      3.699
REMARK  Name = 
REMARK  6 active torsions:
REMARK  status: ('A' for Active; 'I' for Inactive)
REMARK    1  A    between atoms: C_1  and  C_2
REMARK    2  A    between atoms: N_9  and  C_10
REMARK    3  A    between atoms: C_10  and  C_11
REMARK    4  A    between atoms: C_11  and  C_12
REMARK    5  A    between atoms: C_12  and  C_13
REMARK    6  A    between atoms: C_13  and  N_14
REMARK                            x       y       z     vdW  Elec       q    Type
REMARK                         _______ _______ _______ _____ _____    ______ ____
ROOT
ATOM      1  C   UNL     1       6.133   4.769  13.854  0.00  0.00    +0.000 C 
ATOM      2  C   UNL     1       5.972   4.394  15.297  0.00  0.00    +0.000 A 
ATOM      3  C   UNL     1       7.030   4.525  16.208  0.00  0.00    +0.000 A 
ATOM      4  C   UNL     1       6.860   4.176  17.553  0.00  0.00    +0.000 A 
ATOM      5  C   UNL     1       5.628   3.690  17.987  0.00  0.00    +0.000 A 
ATOM      6  N   UNL     1       5.449   3.311  19.314  0.00  0.00    +0.000 N 
ATOM      7  C   UNL     1       4.299   2.751  19.797  0.00  0.00    +0.000 A 
ATOM      8  O   UNL     1       4.254   2.409  20.978  0.00  0.00    +0.000 OA
ATOM      9  N   UNL     1       3.254   2.595  18.900  0.00  0.00    +0.000 N 
ATOM     10  C   UNL     1       3.287   3.055  17.585  0.00  0.00    +0.000 A 
ATOM     11  O   UNL     1       2.319   3.048  16.830  0.00  0.00    +0.000 OA
ATOM     12  C   UNL     1       4.574   3.570  17.094  0.00  0.00    +0.000 A 
ATOM     13  C   UNL     1       4.737   3.922  15.752  0.00  0.00    +0.000 A 
ATOM     14  H   UNL     1       6.203   3.411  19.985  0.00  0.00    +0.000 HD
ENDROOT
BRANCH   9  15
ATOM     15  C   UNL     1       2.008   1.992  19.362  0.00  0.00    +0.000 C 
BRANCH  15  16
ATOM     16  C   UNL     1       1.377   2.735  20.551  0.00  0.00    +0.000 C 
BRANCH  16  17
ATOM     17  C   UNL     1       0.914   4.161  20.239  0.00  0.00    +0.000 C 
BRANCH  17  18
ATOM     18  C   UNL     1       1.848   5.214  20.829  0.00  0.00    +0.000 C 
BRANCH  18  19
ATOM     19  N   UNL     1       1.999   6.367  19.969  0.00  0.00    +0.000 N 
ATOM     20  C   UNL     1       2.496   6.367  18.697  0.00  0.00    +0.000 A 
ATOM     21  C   UNL     1       2.509   7.693  18.327  0.00  0.00    +0.000 A 
ATOM     22  N   UNL     1       2.029   8.487  19.337  0.00  0.00    +0.000 NA
ATOM     23  C   UNL     1       1.738   7.661  20.318  0.00  0.00    +0.000 A 
ENDBRANCH  18  19
ENDBRANCH  17  18
ENDBRANCH  16  17
ENDBRANCH  15  16
ENDBRANCH   9  15
TORSDOF 5
ENDMDL
MODEL 6
REMARK VINA RESULT:      -7.0      1.361      1.549
REMARK  Name = 
REMARK  6 active torsions:
REMARK  status: ('A' for Active; 'I' for Inactive)
REMARK    1  A    between atoms: C_1  and  C_2
REMARK    2  A    between atoms: N_9  and  C_10
REMARK    3  A    between atoms: C_10  and  C_11
REMARK    4  A    between atoms: C_11  and  C_12
REMARK    5  A    between atoms: C_12  and  C_13
REMARK    6  A    between atoms: C_13  and  N_14
REMARK                            x       y       z     vdW  Elec       q    Type
REMARK                         _______ _______ _______ _____ _____    ______ ____
ROOT
ATOM      1  C   UNL     1       5.221   2.435  11.394  0.00  0.00    +0.000 C 
ATOM      2  C   UNL     1       5.871   3.347  12.391  0.00  0.00    +0.000 A 
ATOM      3  C   UNL     1       7.069   4.015  12.099  0.00  0.00    +0.000 A 
ATOM      4  C   UNL     1       7.658   4.867  13.040  0.00  0.00    +0.000 A 
ATOM      5  C   UNL     1       7.049   5.049  14.280  0.00  0.00    +0.000 A 
ATOM      6  N   UNL     1       7.635   5.871  15.238  0.00  0.00    +0.000 N 
ATOM      7  C   UNL     1       7.142   6.036  16.503  0.00  0.00    +0.000 A 
ATOM      8  O   UNL     1       7.757   6.750  17.293  0.00  0.00    +0.000 OA
ATOM      9  N   UNL     1       5.970   5.362  16.811  0.00  0.00    +0.000 N 
ATOM     10  C   UNL     1       5.239   4.618  15.888  0.00  0.00    +0.000 A 
ATOM     11  O   UNL     1       4.132   4.137  16.114  0.00  0.00    +0.000 OA
ATOM     12  C   UNL     1       5.857   4.402  14.571  0.00  0.00    +0.000 A 
ATOM     13  C   UNL     1       5.262   3.554  13.633  0.00  0.00    +0.000 A 
ATOM     14  H   UNL     1       8.495   6.367  15.035  0.00  0.00    +0.000 HD
ENDROOT
BRANCH   9  15
ATOM     15  C   UNL     1       5.408   5.495  18.152  0.00  0.00    +0.000 C 
BRANCH  15  16
ATOM     16  C   UNL     1       5.803   4.345  19.093  0.00  0.00    +0.000 C 
BRANCH  16  17
ATOM     17  C   UNL     1       4.696   3.896  20.051  0.00  0.00    +0.000 C 
BRANCH  17  18
ATOM     18  C   UNL     1       4.158   2.511  19.703  0.00  0.00    +0.000 C 
BRANCH  18  19
ATOM     19  N   UNL     1       2.722   2.502  19.522  0.00  0.00    +0.000 N 
ATOM     20  C   UNL     1       2.055   2.221  18.365  0.00  0.00    +0.000 A 
ATOM     21  C   UNL     1       0.727   2.414  18.672  0.00  0.00    +0.000 A 
ATOM     22  N   UNL     1       0.578   2.796  19.980  0.00  0.00    +0.000 NA
ATOM     23  C   UNL     1       1.799   2.849  20.466  0.00  0.00    +0.000 A 
ENDBRANCH  18  19
ENDBRANCH  17  18
ENDBRANCH  16  17
ENDBRANCH  15  16
ENDBRANCH   9  15
TORSDOF 5
ENDMDL
MODEL 7
REMARK VINA RESULT:      -6.9      0.924      1.231
REMARK  Name = 
REMARK  6 active torsions:
REMARK  status: ('A' for Active; 'I' for Inactive)
REMARK    1  A    between atoms: C_1  and  C_2
REMARK    2  A    between atoms: N_9  and  C_10
REMARK    3  A    between atoms: C_10  and  C_11
REMARK    4  A    between atoms: C_11  and  C_12
REMARK    5  A    between atoms: C_12  and  C_13
REMARK    6  A    between atoms: C_13  and  N_14
REMARK                            x       y       z     vdW  Elec       q    Type
REMARK                         _______ _______ _______ _____ _____    ______ ____
ROOT
ATOM      1  C   UNL     1       5.650   2.490  11.333  0.00  0.00    +0.000 C 
ATOM      2  C   UNL     1       6.140   3.388  12.430  0.00  0.00    +0.000 A 
ATOM      3  C   UNL     1       7.300   4.160  12.279  0.00  0.00    +0.000 A 
ATOM      4  C   UNL     1       7.740   4.996  13.311  0.00  0.00    +0.000 A 
ATOM      5  C   UNL     1       7.018   5.058  14.501  0.00  0.00    +0.000 A 
ATOM      6  N   UNL     1       7.455   5.863  15.549  0.00  0.00    +0.000 N 
ATOM      7  C   UNL     1       6.848   5.915  16.773  0.00  0.00    +0.000 A 
ATOM      8  O   UNL     1       7.337   6.625  17.650  0.00  0.00    +0.000 OA
ATOM      9  N   UNL     1       5.712   5.139  16.942  0.00  0.00    +0.000 N 
ATOM     10  C   UNL     1       5.122   4.398  15.921  0.00  0.00    +0.000 A 
ATOM     11  O   UNL     1       4.042   3.823  16.024  0.00  0.00    +0.000 OA
ATOM     12  C   UNL     1       5.862   4.307  14.652  0.00  0.00    +0.000 A 
ATOM     13  C   UNL     1       5.416   3.475  13.623  0.00  0.00    +0.000 A 
ATOM     14  H   UNL     1       8.287   6.434  15.448  0.00  0.00    +0.000 HD
ENDROOT
BRANCH   9  15
ATOM     15  C   UNL     1       5.032   5.149  18.234  0.00  0.00    +0.000 C 
BRANCH  15  16
ATOM     16  C   UNL     1       4.138   6.384  18.439  0.00  0.00    +0.000 C 
BRANCH  16  17
ATOM     17  C   UNL     1       2.635   6.096  18.400  0.00  0.00    +0.000 C 
BRANCH  17  18
ATOM     18  C   UNL     1       2.334   4.601  18.330  0.00  0.00    +0.000 C 
BRANCH  18  19
ATOM     19  N   UNL     1       2.052   4.031  19.630  0.00  0.00    +0.000 N 
ATOM     20  C   UNL     1       2.494   4.501  20.833  0.00  0.00    +0.000 A 
ATOM     21  C   UNL     1       2.030   3.592  21.756  0.00  0.00    +0.000 A 
ATOM     22  N   UNL     1       1.317   2.594  21.143  0.00  0.00    +0.000 NA
ATOM     23  C   UNL     1       1.355   2.880  19.860  0.00  0.00    +0.000 A 
ENDBRANCH  18  19
ENDBRANCH  17  18
ENDBRANCH  16  17
ENDBRANCH  15  16
ENDBRANCH   9  15
TORSDOF 5
ENDMDL
MODEL 8
REMARK VINA RESULT:      -6.9      1.882      2.844
REMARK  Name = 
REMARK  6 active torsions:
REMARK  status: ('A' for Active; 'I' for Inactive)
REMARK    1  A    between atoms: C_1  and  C_2
REMARK    2  A    between atoms: N_9  and  C_10
REMARK    3  A    between atoms: C_10  and  C_11
REMARK    4  A    between atoms: C_11  and  C_12
REMARK    5  A    between atoms: C_12  and  C_13
REMARK    6  A    between atoms: C_13  and  N_14
REMARK                            x       y       z     vdW  Elec       q    Type
REMARK                         _______ _______ _______ _____ _____    ______ ____
ROOT
ATOM      1  C   UNL     1       4.615   3.229  11.414  0.00  0.00    +0.000 C 
ATOM      2  C   UNL     1       5.417   3.705  12.588  0.00  0.00    +0.000 A 
ATOM      3  C   UNL     1       6.716   4.210  12.430  0.00  0.00    +0.000 A 
ATOM      4  C   UNL     1       7.448   4.655  13.536  0.00  0.00    +0.000 A 
ATOM      5  C   UNL     1       6.880   4.593  14.807  0.00  0.00    +0.000 A 
ATOM      6  N   UNL     1       7.603   5.006  15.922  0.00  0.00    +0.000 N 
ATOM      7  C   UNL     1       7.147   4.901  17.206  0.00  0.00    +0.000 A 
ATOM      8  O   UNL     1       7.880   5.253  18.129  0.00  0.00    +0.000 OA
ATOM      9  N   UNL     1       5.873   4.383  17.378  0.00  0.00    +0.000 N 
ATOM     10  C   UNL     1       5.020   4.058  16.324  0.00  0.00    +0.000 A 
ATOM     11  O   UNL     1       3.845   3.734  16.466  0.00  0.00    +0.000 OA
ATOM     12  C   UNL     1       5.591   4.108  14.969  0.00  0.00    +0.000 A 
ATOM     13  C   UNL     1       4.854   3.666  13.868  0.00  0.00    +0.000 A 
ATOM     14  H   UNL     1       8.539   5.382  15.819  0.00  0.00    +0.000 HD
ENDROOT
BRANCH   9  15
ATOM     15  C   UNL     1       5.342   4.238  18.730  0.00  0.00    +0.000 C 
BRANCH  15  16
ATOM     16  C   UNL     1       4.841   5.563  19.330  0.00  0.00    +0.000 C 
BRANCH  16  17
ATOM     17  C   UNL     1       3.321   5.657  19.488  0.00  0.00    +0.000 C 
BRANCH  17  18
ATOM     18  C   UNL     1       2.660   6.357  18.304  0.00  0.00    +0.000 C 
BRANCH  18  19
ATOM     19  N   UNL     1       2.194   7.687  18.634  0.00  0.00    +0.000 N 
ATOM     20  C   UNL     1       1.656   8.082  19.825  0.00  0.00    +0.000 A 
ATOM     21  C   UNL     1       1.303   9.398  19.630  0.00  0.00    +0.000 A 
ATOM     22  N   UNL     1       1.619   9.805  18.360  0.00  0.00    +0.000 NA
ATOM     23  C   UNL     1       2.146   8.749  17.779  0.00  0.00    +0.000 A 
ENDBRANCH  18  19
ENDBRANCH  17  18
ENDBRANCH  16  17
ENDBRANCH  15  16
ENDBRANCH   9  15
TORSDOF 5
ENDMDL
MODEL 9
REMARK VINA RESULT:      -6.7      4.331      7.176
REMARK  Name = 
REMARK  6 active torsions:
REMARK  status: ('A' for Active; 'I' for Inactive)
REMARK    1  A    between atoms: C_1  and  C_2
REMARK    2  A    between atoms: N_9  and  C_10
REMARK    3  A    between atoms: C_10  and  C_11
REMARK    4  A    between atoms: C_11  and  C_12
REMARK    5  A    between atoms: C_12  and  C_13
REMARK    6  A    between atoms: C_13  and  N_14
REMARK                            x       y       z     vdW  Elec       q    Type
REMARK                         _______ _______ _______ _____ _____    ______ ____
ROOT
ATOM      1  C   UNL     1       1.863   2.391  19.990  0.00  0.00    +0.000 C 
ATOM      2  C   UNL     1       2.738   2.975  18.920  0.00  0.00    +0.000 A 
ATOM      3  C   UNL     1       2.483   2.746  17.561  0.00  0.00    +0.000 A 
ATOM      4  C   UNL     1       3.306   3.303  16.576  0.00  0.00    +0.000 A 
ATOM      5  C   UNL     1       4.393   4.091  16.953  0.00  0.00    +0.000 A 
ATOM      6  N   UNL     1       5.239   4.630  15.989  0.00  0.00    +0.000 N 
ATOM      7  C   UNL     1       6.368   5.344  16.281  0.00  0.00    +0.000 A 
ATOM      8  O   UNL     1       7.076   5.742  15.358  0.00  0.00    +0.000 OA
ATOM      9  N   UNL     1       6.644   5.558  17.623  0.00  0.00    +0.000 N 
ATOM     10  C   UNL     1       5.796   5.170  18.659  0.00  0.00    +0.000 A 
ATOM     11  O   UNL     1       5.963   5.479  19.836  0.00  0.00    +0.000 OA
ATOM     12  C   UNL     1       4.643   4.332  18.296  0.00  0.00    +0.000 A 
ATOM     13  C   UNL     1       3.821   3.782  19.282  0.00  0.00    +0.000 A 
ATOM     14  H   UNL     1       5.058   4.480  15.003  0.00  0.00    +0.000 HD
ENDROOT
BRANCH   9  15
ATOM     15  C   UNL     1       7.843   6.304  17.990  0.00  0.00    +0.000 C 
BRANCH  15  16
ATOM     16  C   UNL     1       7.728   7.813  17.713  0.00  0.00    +0.000 C 
BRANCH  16  17
ATOM     17  C   UNL     1       8.545   8.699  18.658  0.00  0.00    +0.000 C 
BRANCH  17  18
ATOM     18  C   UNL     1       8.757  10.102  18.095  0.00  0.00    +0.000 C 
BRANCH  18  19
ATOM     19  N   UNL     1       9.370  10.997  19.053  0.00  0.00    +0.000 N 
ATOM     20  C   UNL     1       9.409  10.828  20.407  0.00  0.00    +0.000 A 
ATOM     21  C   UNL     1      10.025  11.963  20.883  0.00  0.00    +0.000 A 
ATOM     22  N   UNL     1      10.361  12.805  19.854  0.00  0.00    +0.000 NA
ATOM     23  C   UNL     1       9.946  12.200  18.763  0.00  0.00    +0.000 A 
ENDBRANCH  18  19
ENDBRANCH  17  18
ENDBRANCH  16  17
ENDBRANCH  15  16
ENDBRANCH   9  15
TORSDOF 5
ENDMDL
