MODEL 1
REMARK VINA RESULT:      -8.6      0.000      0.000
REMARK  Name = 
REMARK  2 active torsions:
REMARK  status: ('A' for Active; 'I' for Inactive)
REMARK    1  A    between atoms: C_5  and  N_6
REMARK    2  A    between atoms: C_9  and  C_10
REMARK                            x       y       z     vdW  Elec       q    Type
REMARK                         _______ _______ _______ _____ _____    ______ ____
ROOT
ATOM      1  N   UNL     1       1.605   8.833  19.328  0.00  0.00    +0.000 N 
ATOM      2  N   UNL     1       1.582   9.362  18.085  0.00  0.00    +0.000 NA
ATOM      3  N   UNL     1       2.294   8.534  17.340  0.00  0.00    +0.000 NA
ATOM      4  C   UNL     1       2.768   7.552  18.171  0.00  0.00    +0.000 A 
ATOM      5  N   UNL     1       2.384   7.732  19.446  0.00  0.00    +0.000 NA
ENDROOT
BRANCH   4   6
ATOM      6  C   UNL     1       3.489   6.373  17.700  0.00  0.00    +0.000 A 
ATOM      7  C   UNL     1       4.768   6.570  17.162  0.00  0.00    +0.000 A 
ATOM      8  C   UNL     1       5.512   5.469  16.804  0.00  0.00    +0.000 A 
ATOM      9  N   UNL     1       5.077   4.205  16.944  0.00  0.00    +0.000 NA
ATOM     10  C   UNL     1       3.844   4.001  17.437  0.00  0.00    +0.000 A 
ATOM     11  C   UNL     1       3.416   2.687  17.571  0.00  0.00    +0.000 A 
ATOM     12  C   UNL     1       2.148   2.365  18.054  0.00  0.00    +0.000 A 
ATOM     13  C   UNL     1       1.271   3.379  18.404  0.00  0.00    +0.000 A 
ATOM     14  C   UNL     1       1.680   4.708  18.284  0.00  0.00    +0.000 A 
ATOM     15  C   UNL     1       2.978   5.051  17.821  0.00  0.00    +0.000 A 
ENDBRANCH   4   6
BRANCH   1  20
ATOM     16  F   UNL     1      -1.365  10.875  23.525  0.00  0.00    +0.000 F 
ATOM     17  C   UNL     1      -0.669  10.360  22.502  0.00  0.00    +0.000 A 
ATOM     18  C   UNL     1       0.140   9.249  22.714  0.00  0.00    +0.000 A 
ATOM     19  C   UNL     1       0.877   8.716  21.656  0.00  0.00    +0.000 A 
ATOM     20  C   UNL     1       0.806   9.317  20.389  0.00  0.00    +0.000 A 
ATOM     21  C   UNL     1      -0.021  10.434  20.185  0.00  0.00    +0.000 A 
ATOM     22  C   UNL     1      -0.762  10.951  21.247  0.00  0.00    +0.000 A 
ENDBRANCH   1  20
TORSDOF 2
ENDMDL
MODEL 2
REMARK VINA RESULT:      -8.5      0.821      2.659
REMARK  Name = 
REMARK  2 active torsions:
REMARK  status: ('A' for Active; 'I' for Inactive)
REMARK    1  A    between atoms: C_5  and  N_6
REMARK    2  A    between atoms: C_9  and  C_10
REMARK                            x       y       z     vdW  Elec       q    Type
REMARK                         _______ _______ _______ _____ _____    ______ ____
ROOT
ATOM      1  N   UNL     1       1.601   8.746  19.558  0.00  0.00    +0.000 N 
ATOM      2  N   UNL     1       1.757   9.282  18.327  0.00  0.00    +0.000 NA
ATOM      3  N   UNL     1       2.321   8.330  17.603  0.00  0.00    +0.000 NA
ATOM      4  C   UNL     1       2.533   7.262  18.436  0.00  0.00    +0.000 A 
ATOM      5  N   UNL     1       2.125   7.504  19.692  0.00  0.00    +0.000 NA
ENDROOT
BRANCH   4   6
ATOM      6  C   UNL     1       3.016   5.962  17.976  0.00  0.00    +0.000 A 
ATOM      7  C   UNL     1       2.107   4.896  17.985  0.00  0.00    +0.000 A 
ATOM      8  C   UNL     1       2.502   3.686  17.463  0.00  0.00    +0.000 A 
ATOM      9  N   UNL     1       3.721   3.469  16.939  0.00  0.00    +0.000 NA
ATOM     10  C   UNL     1       4.611   4.475  16.943  0.00  0.00    +0.000 A 
ATOM     11  C   UNL     1       5.863   4.227  16.398  0.00  0.00    +0.000 A 
ATOM     12  C   UNL     1       6.865   5.197  16.370  0.00  0.00    +0.000 A 
ATOM     13  C   UNL     1       6.622   6.449  16.911  0.00  0.00    +0.000 A 
ATOM     14  C   UNL     1       5.370   6.725  17.459  0.00  0.00    +0.000 A 
ATOM     15  C   UNL     1       4.329   5.757  17.470  0.00  0.00    +0.000 A 
ENDBRANCH   4   6
BRANCH   1  20
ATOM     16  F   UNL     1      -1.448  11.058  23.553  0.00  0.00    +0.000 F 
ATOM     17  C   UNL     1      -0.687  10.520  22.591  0.00  0.00    +0.000 A 
ATOM     18  C   UNL     1      -0.753  11.030  21.299  0.00  0.00    +0.000 A 
ATOM     19  C   UNL     1       0.028  10.466  20.290  0.00  0.00    +0.000 A 
ATOM     20  C   UNL     1       0.862   9.376  20.586  0.00  0.00    +0.000 A 
ATOM     21  C   UNL     1       0.927   8.874  21.897  0.00  0.00    +0.000 A 
ATOM     22  C   UNL     1       0.150   9.453  22.900  0.00  0.00    +0.000 A 
ENDBRANCH   1  20
TORSDOF 2
ENDMDL
MODEL 3
REMARK VINA RESULT:      -8.5      0.401      1.107
REMARK  Name = 
REMARK  2 active torsions:
REMARK  status: ('A' for Active; 'I' for Inactive)
REMARK    1  A    between atoms: C_5  and  N_6
REMARK    2  A    between atoms: C_9  and  C_10
REMARK                            x       y       z     vdW  Elec       q    Type
REMARK                         _______ _______ _______ _____ _____    ______ ____
ROOT
ATOM      1  N   UNL     1       1.743   8.694  19.373  0.00  0.00    +0.000 N 
ATOM      2  N   UNL     1       1.814   9.252  18.145  0.00  0.00    +0.000 NA
ATOM      3  N   UNL     1       2.428   8.358  17.389  0.00  0.00    +0.000 NA
ATOM      4  C   UNL     1       2.754   7.302  18.201  0.00  0.00    +0.000 A 
ATOM      5  N   UNL     1       2.371   7.497  19.473  0.00  0.00    +0.000 NA
ENDROOT
BRANCH   4   6
ATOM      6  C   UNL     1       3.326   6.051  17.709  0.00  0.00    +0.000 A 
ATOM      7  C   UNL     1       4.512   6.131  16.966  0.00  0.00    +0.000 A 
ATOM      8  C   UNL     1       5.128   4.965  16.576  0.00  0.00    +0.000 A 
ATOM      9  N   UNL     1       4.653   3.742  16.873  0.00  0.00    +0.000 NA
ATOM     10  C   UNL     1       3.506   3.649  17.565  0.00  0.00    +0.000 A 
ATOM     11  C   UNL     1       3.035   2.377  17.858  0.00  0.00    +0.000 A 
ATOM     12  C   UNL     1       1.844   2.169  18.556  0.00  0.00    +0.000 A 
ATOM     13  C   UNL     1       1.091   3.257  18.963  0.00  0.00    +0.000 A 
ATOM     14  C   UNL     1       1.546   4.546  18.687  0.00  0.00    +0.000 A 
ATOM     15  C   UNL     1       2.771   4.776  18.003  0.00  0.00    +0.000 A 
ENDBRANCH   4   6
BRANCH   1  20
ATOM     16  F   UNL     1      -1.344  10.707  23.497  0.00  0.00    +0.000 F 
ATOM     17  C   UNL     1      -0.575  10.243  22.504  0.00  0.00    +0.000 A 
ATOM     18  C   UNL     1      -0.730  10.756  21.220  0.00  0.00    +0.000 A 
ATOM     19  C   UNL     1       0.059  10.268  20.179  0.00  0.00    +0.000 A 
ATOM     20  C   UNL     1       0.992   9.250  20.433  0.00  0.00    +0.000 A 
ATOM     21  C   UNL     1       1.146   8.745  21.735  0.00  0.00    +0.000 A 
ATOM     22  C   UNL     1       0.360   9.249  22.771  0.00  0.00    +0.000 A 
ENDBRANCH   1  20
TORSDOF 2
ENDMDL
MODEL 4
REMARK VINA RESULT:      -8.4      0.825      2.475
REMARK  Name = 
REMARK  2 active torsions:
REMARK  status: ('A' for Active; 'I' for Inactive)
REMARK    1  A    between atoms: C_5  and  N_6
REMARK    2  A    between atoms: C_9  and  C_10
REMARK                            x       y       z     vdW  Elec       q    Type
REMARK                         _______ _______ _______ _____ _____    ______ ____
ROOT
ATOM      1  N   UNL     1       1.571   8.767  19.478  0.00  0.00    +0.000 N 
ATOM      2  N   UNL     1       1.737   9.298  18.246  0.00  0.00    +0.000 NA
ATOM      3  N   UNL     1       2.331   8.353  17.537  0.00  0.00    +0.000 NA
ATOM      4  C   UNL     1       2.550   7.294  18.380  0.00  0.00    +0.000 A 
ATOM      5  N   UNL     1       2.116   7.536  19.628  0.00  0.00    +0.000 NA
ENDROOT
BRANCH   4   6
ATOM      6  C   UNL     1       3.065   6.001  17.936  0.00  0.00    +0.000 A 
ATOM      7  C   UNL     1       2.173   4.920  17.923  0.00  0.00    +0.000 A 
ATOM      8  C   UNL     1       2.600   3.716  17.415  0.00  0.00    +0.000 A 
ATOM      9  N   UNL     1       3.836   3.517  16.924  0.00  0.00    +0.000 NA
ATOM     10  C   UNL     1       4.710   4.537  16.951  0.00  0.00    +0.000 A 
ATOM     11  C   UNL     1       5.980   4.308  16.440  0.00  0.00    +0.000 A 
ATOM     12  C   UNL     1       6.968   5.293  16.436  0.00  0.00    +0.000 A 
ATOM     13  C   UNL     1       6.691   6.541  16.968  0.00  0.00    +0.000 A 
ATOM     14  C   UNL     1       5.420   6.799  17.482  0.00  0.00    +0.000 A 
ATOM     15  C   UNL     1       4.394   5.816  17.467  0.00  0.00    +0.000 A 
ENDBRANCH   4   6
BRANCH   1  20
ATOM     16  F   UNL     1      -1.261  11.336  23.475  0.00  0.00    +0.000 F 
ATOM     17  C   UNL     1      -0.600  10.695  22.502  0.00  0.00    +0.000 A 
ATOM     18  C   UNL     1       0.113   9.540  22.804  0.00  0.00    +0.000 A 
ATOM     19  C   UNL     1       0.814   8.875  21.797  0.00  0.00    +0.000 A 
ATOM     20  C   UNL     1       0.804   9.388  20.490  0.00  0.00    +0.000 A 
ATOM     21  C   UNL     1       0.073  10.550  20.195  0.00  0.00    +0.000 A 
ATOM     22  C   UNL     1      -0.633  11.201  21.207  0.00  0.00    +0.000 A 
ENDBRANCH   1  20
TORSDOF 2
ENDMDL
MODEL 5
REMARK VINA RESULT:      -8.2      1.276      1.329
REMARK  Name = 
REMARK  2 active torsions:
REMARK  status: ('A' for Active; 'I' for Inactive)
REMARK    1  A    between atoms: C_5  and  N_6
REMARK    2  A    between atoms: C_9  and  C_10
REMARK                            x       y       z     vdW  Elec       q    Type
REMARK                         _______ _______ _______ _____ _____    ______ ____
ROOT
ATOM      1  N   UNL     1       1.253   8.968  19.895  0.00  0.00    +0.000 N 
ATOM      2  N   UNL     1       1.355   9.332  18.598  0.00  0.00    +0.000 NA
ATOM      3  N   UNL     1       2.038   8.361  18.016  0.00  0.00    +0.000 NA
ATOM      4  C   UNL     1       2.371   7.461  18.995  0.00  0.00    +0.000 A 
ATOM      5  N   UNL     1       1.924   7.833  20.205  0.00  0.00    +0.000 NA
ENDROOT
BRANCH   4   6
ATOM      6  C   UNL     1       3.014   6.177  18.727  0.00  0.00    +0.000 A 
ATOM      7  C   UNL     1       4.123   6.177  17.871  0.00  0.00    +0.000 A 
ATOM      8  C   UNL     1       4.811   5.001  17.680  0.00  0.00    +0.000 A 
ATOM      9  N   UNL     1       4.477   3.843  18.275  0.00  0.00    +0.000 NA
ATOM     10  C   UNL     1       3.402   3.822  19.081  0.00  0.00    +0.000 A 
ATOM     11  C   UNL     1       3.075   2.615  19.684  0.00  0.00    +0.000 A 
ATOM     12  C   UNL     1       1.969   2.480  20.523  0.00  0.00    +0.000 A 
ATOM     13  C   UNL     1       1.153   3.574  20.762  0.00  0.00    +0.000 A 
ATOM     14  C   UNL     1       1.464   4.800  20.173  0.00  0.00    +0.000 A 
ATOM     15  C   UNL     1       2.604   4.961  19.339  0.00  0.00    +0.000 A 
ENDBRANCH   4   6
BRANCH   1  20
ATOM     16  F   UNL     1      -1.776  11.747  23.597  0.00  0.00    +0.000 F 
ATOM     17  C   UNL     1      -1.068  11.057  22.692  0.00  0.00    +0.000 A 
ATOM     18  C   UNL     1      -0.490   9.845  23.054  0.00  0.00    +0.000 A 
ATOM     19  C   UNL     1       0.259   9.129  22.120  0.00  0.00    +0.000 A 
ATOM     20  C   UNL     1       0.434   9.647  20.827  0.00  0.00    +0.000 A 
ATOM     21  C   UNL     1      -0.162  10.867  20.470  0.00  0.00    +0.000 A 
ATOM     22  C   UNL     1      -0.918  11.570  21.408  0.00  0.00    +0.000 A 
ENDBRANCH   1  20
TORSDOF 2
ENDMDL
MODEL 6
REMARK VINA RESULT:      -8.2      1.417      1.780
REMARK  Name = 
REMARK  2 active torsions:
REMARK  status: ('A' for Active; 'I' for Inactive)
REMARK    1  A    between atoms: C_5  and  N_6
REMARK    2  A    between atoms: C_9  and  C_10
REMARK                            x       y       z     vdW  Elec       q    Type
REMARK                         _______ _______ _______ _____ _____    ______ ____
ROOT
ATOM      1  N   UNL     1       1.252   9.042  19.969  0.00  0.00    +0.000 N 
ATOM      2  N   UNL     1       1.289   9.407  18.669  0.00  0.00    +0.000 NA
ATOM      3  N   UNL     1       1.951   8.441  18.054  0.00  0.00    +0.000 NA
ATOM      4  C   UNL     1       2.336   7.543  19.015  0.00  0.00    +0.000 A 
ATOM      5  N   UNL     1       1.945   7.911  20.246  0.00  0.00    +0.000 NA
ENDROOT
BRANCH   4   6
ATOM      6  C   UNL     1       2.975   6.264  18.716  0.00  0.00    +0.000 A 
ATOM      7  C   UNL     1       3.911   6.238  17.674  0.00  0.00    +0.000 A 
ATOM      8  C   UNL     1       4.604   5.074  17.435  0.00  0.00    +0.000 A 
ATOM      9  N   UNL     1       4.431   3.950  18.154  0.00  0.00    +0.000 NA
ATOM     10  C   UNL     1       3.521   3.953  19.142  0.00  0.00    +0.000 A 
ATOM     11  C   UNL     1       3.360   2.781  19.868  0.00  0.00    +0.000 A 
ATOM     12  C   UNL     1       2.429   2.671  20.902  0.00  0.00    +0.000 A 
ATOM     13  C   UNL     1       1.624   3.753  21.216  0.00  0.00    +0.000 A 
ATOM     14  C   UNL     1       1.771   4.944  20.505  0.00  0.00    +0.000 A 
ATOM     15  C   UNL     1       2.734   5.081  19.468  0.00  0.00    +0.000 A 
ENDBRANCH   4   6
BRANCH   1  20
ATOM     16  F   UNL     1      -1.965  11.538  23.713  0.00  0.00    +0.000 F 
ATOM     17  C   UNL     1      -1.162  10.952  22.815  0.00  0.00    +0.000 A 
ATOM     18  C   UNL     1      -1.042  11.501  21.543  0.00  0.00    +0.000 A 
ATOM     19  C   UNL     1      -0.217  10.888  20.599  0.00  0.00    +0.000 A 
ATOM     20  C   UNL     1       0.473   9.714  20.939  0.00  0.00    +0.000 A 
ATOM     21  C   UNL     1       0.351   9.173  22.230  0.00  0.00    +0.000 A 
ATOM     22  C   UNL     1      -0.468   9.800  23.169  0.00  0.00    +0.000 A 
ENDBRANCH   1  20
TORSDOF 2
ENDMDL
MODEL 7
REMARK VINA RESULT:      -8.1      4.908      8.290
REMARK  Name = 
REMARK  2 active torsions:
REMARK  status: ('A' for Active; 'I' for Inactive)
REMARK    1  A    between atoms: C_5  and  N_6
REMARK    2  A    between atoms: C_9  and  C_10
REMARK                            x       y       z     vdW  Elec       q    Type
REMARK                         _______ _______ _______ _____ _____    ______ ____
ROOT
ATOM      1  N   UNL     1       6.464   4.555  16.171  0.00  0.00    +0.000 N 
ATOM      2  N   UNL     1       7.423   4.579  17.122  0.00  0.00    +0.000 NA
ATOM      3  N   UNL     1       6.782   4.416  18.267  0.00  0.00    +0.000 NA
ATOM      4  C   UNL     1       5.445   4.347  17.973  0.00  0.00    +0.000 A 
ATOM      5  N   UNL     1       5.203   4.471  16.658  0.00  0.00    +0.000 NA
ENDROOT
BRANCH   4   6
ATOM      6  C   UNL     1       4.416   4.033  18.962  0.00  0.00    +0.000 A 
ATOM      7  C   UNL     1       4.423   2.745  19.514  0.00  0.00    +0.000 A 
ATOM      8  C   UNL     1       3.531   2.453  20.520  0.00  0.00    +0.000 A 
ATOM      9  N   UNL     1       2.648   3.341  21.008  0.00  0.00    +0.000 NA
ATOM     10  C   UNL     1       2.614   4.573  20.473  0.00  0.00    +0.000 A 
ATOM     11  C   UNL     1       1.693   5.473  20.991  0.00  0.00    +0.000 A 
ATOM     12  C   UNL     1       1.563   6.770  20.496  0.00  0.00    +0.000 A 
ATOM     13  C   UNL     1       2.363   7.184  19.443  0.00  0.00    +0.000 A 
ATOM     14  C   UNL     1       3.301   6.301  18.909  0.00  0.00    +0.000 A 
ATOM     15  C   UNL     1       3.466   4.986  19.421  0.00  0.00    +0.000 A 
ENDBRANCH   4   6
BRANCH   1  20
ATOM     16  F   UNL     1       7.440   4.554  10.726  0.00  0.00    +0.000 F 
ATOM     17  C   UNL     1       7.225   4.531  12.048  0.00  0.00    +0.000 A 
ATOM     18  C   UNL     1       6.266   3.669  12.570  0.00  0.00    +0.000 A 
ATOM     19  C   UNL     1       6.028   3.649  13.945  0.00  0.00    +0.000 A 
ATOM     20  C   UNL     1       6.749   4.511  14.787  0.00  0.00    +0.000 A 
ATOM     21  C   UNL     1       7.721   5.371  14.249  0.00  0.00    +0.000 A 
ATOM     22  C   UNL     1       7.959   5.375  12.875  0.00  0.00    +0.000 A 
ENDBRANCH   1  20
TORSDOF 2
ENDMDL
MODEL 8
REMARK VINA RESULT:      -8.0      2.184      2.632
REMARK  Name = 
REMARK  2 active torsions:
REMARK  status: ('A' for Active; 'I' for Inactive)
REMARK    1  A    between atoms: C_5  and  N_6
REMARK    2  A    between atoms: C_9  and  C_10
REMARK                            x       y       z     vdW  Elec       q    Type
REMARK                         _______ _______ _______ _____ _____    ______ ____
ROOT
ATOM      1  N   UNL     1       1.357   9.260  18.833  0.00  0.00    +0.000 N 
ATOM      2  N   UNL     1       1.449   8.664  20.042  0.00  0.00    +0.000 NA
ATOM      3  N   UNL     1       2.133   7.552  19.831  0.00  0.00    +0.000 NA
ATOM      4  C   UNL     1       2.392   7.488  18.486  0.00  0.00    +0.000 A 
ATOM      5  N   UNL     1       1.881   8.533  17.816  0.00  0.00    +0.000 NA
ENDROOT
BRANCH   4   6
ATOM      6  C   UNL     1       3.246   6.472  17.876  0.00  0.00    +0.000 A 
ATOM      7  C   UNL     1       4.474   6.893  17.347  0.00  0.00    +0.000 A 
ATOM      8  C   UNL     1       5.343   5.946  16.858  0.00  0.00    +0.000 A 
ATOM      9  N   UNL     1       5.079   4.628  16.861  0.00  0.00    +0.000 NA
ATOM     10  C   UNL     1       3.897   4.211  17.344  0.00  0.00    +0.000 A 
ATOM     11  C   UNL     1       3.647   2.846  17.336  0.00  0.00    +0.000 A 
ATOM     12  C   UNL     1       2.444   2.309  17.797  0.00  0.00    +0.000 A 
ATOM     13  C   UNL     1       1.454   3.154  18.270  0.00  0.00    +0.000 A 
ATOM     14  C   UNL     1       1.684   4.530  18.295  0.00  0.00    +0.000 A 
ATOM     15  C   UNL     1       2.914   5.090  17.855  0.00  0.00    +0.000 A 
ENDBRANCH   4   6
BRANCH   1  20
ATOM     16  F   UNL     1      -0.587  14.416  18.349  0.00  0.00    +0.000 F 
ATOM     17  C   UNL     1      -0.117  13.165  18.435  0.00  0.00    +0.000 A 
ATOM     18  C   UNL     1      -1.009  12.098  18.467  0.00  0.00    +0.000 A 
ATOM     19  C   UNL     1      -0.525  10.794  18.569  0.00  0.00    +0.000 A 
ATOM     20  C   UNL     1       0.859  10.571  18.653  0.00  0.00    +0.000 A 
ATOM     21  C   UNL     1       1.750  11.655  18.610  0.00  0.00    +0.000 A 
ATOM     22  C   UNL     1       1.257  12.955  18.497  0.00  0.00    +0.000 A 
ENDBRANCH   1  20
TORSDOF 2
ENDMDL
MODEL 9
REMARK VINA RESULT:      -7.9      1.762      1.978
REMARK  Name = 
REMARK  2 active torsions:
REMARK  status: ('A' for Active; 'I' for Inactive)
REMARK    1  A    between atoms: C_5  and  N_6
REMARK    2  A    between atoms: C_9  and  C_10
REMARK                            x       y       z     vdW  Elec       q    Type
REMARK                         _______ _______ _______ _____ _____    ______ ____
ROOT
ATOM      1  N   UNL     1       1.666   8.824  18.816  0.00  0.00    +0.000 N 
ATOM      2  N   UNL     1       2.124   8.878  17.545  0.00  0.00    +0.000 NA
ATOM      3  N   UNL     1       2.900   7.817  17.409  0.00  0.00    +0.000 NA
ATOM      4  C   UNL     1       2.926   7.178  18.622  0.00  0.00    +0.000 A 
ATOM      5  N   UNL     1       2.188   7.811  19.548  0.00  0.00    +0.000 NA
ENDROOT
BRANCH   4   6
ATOM      6  C   UNL     1       3.569   5.885  18.841  0.00  0.00    +0.000 A 
ATOM      7  C   UNL     1       4.892   5.740  18.403  0.00  0.00    +0.000 A 
ATOM      8  C   UNL     1       5.557   4.569  18.686  0.00  0.00    +0.000 A 
ATOM      9  N   UNL     1       5.005   3.550  19.366  0.00  0.00    +0.000 NA
ATOM     10  C   UNL     1       3.730   3.666  19.774  0.00  0.00    +0.000 A 
ATOM     11  C   UNL     1       3.181   2.601  20.473  0.00  0.00    +0.000 A 
ATOM     12  C   UNL     1       1.860   2.611  20.925  0.00  0.00    +0.000 A 
ATOM     13  C   UNL     1       1.056   3.708  20.662  0.00  0.00    +0.000 A 
ATOM     14  C   UNL     1       1.587   4.794  19.967  0.00  0.00    +0.000 A 
ATOM     15  C   UNL     1       2.937   4.811  19.525  0.00  0.00    +0.000 A 
ENDBRANCH   4   6
BRANCH   1  20
ATOM     16  F   UNL     1      -2.163  12.341  20.703  0.00  0.00    +0.000 F 
ATOM     17  C   UNL     1      -1.256  11.465  20.252  0.00  0.00    +0.000 A 
ATOM     18  C   UNL     1      -0.365  10.881  21.146  0.00  0.00    +0.000 A 
ATOM     19  C   UNL     1       0.591   9.977  20.681  0.00  0.00    +0.000 A 
ATOM     20  C   UNL     1       0.654   9.678  19.310  0.00  0.00    +0.000 A 
ATOM     21  C   UNL     1      -0.256  10.268  18.418  0.00  0.00    +0.000 A 
ATOM     22  C   UNL     1      -1.215  11.161  18.895  0.00  0.00    +0.000 A 
ENDBRANCH   1  20
TORSDOF 2
ENDMDL
