MODEL 1
REMARK VINA RESULT:      -8.3      0.000      0.000
REMARK  Name = 
REMARK  7 active torsions:
REMARK  status: ('A' for Active; 'I' for Inactive)
REMARK    1  A    between atoms: C_2  and  O_3
REMARK    2  A    between atoms: C_2  and  C_4
REMARK    3  A    between atoms: C_9  and  C_10
REMARK    4  A    between atoms: N_11  and  N_12
REMARK    5  A    between atoms: C_13  and  C_14
REMARK    6  A    between atoms: C_14  and  C_15
REMARK    7  A    between atoms: C_14  and  C_21
REMARK                            x       y       z     vdW  Elec       q    Type
REMARK                         _______ _______ _______ _____ _____    ______ ____
ROOT
ATOM      1  N   UNL     1       3.155   4.452  17.642  0.00  0.00    +0.000 N 
ATOM      2  C   UNL     1       4.390   4.265  17.087  0.00  0.00    +0.000 A 
ATOM      3  N   UNL     1       4.892   3.079  17.315  0.00  0.00    +0.000 NA
ATOM      4  N   UNL     1       3.968   2.449  18.099  0.00  0.00    +0.000 N 
ATOM      5  C   UNL     1       2.918   3.307  18.391  0.00  0.00    +0.000 A 
ATOM      6  S   UNL     1       1.738   2.932  19.496  0.00  0.00    +0.000 S 
ATOM      7  H   UNL     1       4.164   1.556  18.536  0.00  0.00    +0.000 HD
ENDROOT
BRANCH   1   9
ATOM      8  C   UNL     1       2.819   6.466  18.649  0.00  0.00    +0.000 C 
ATOM      9  N   UNL     1       2.497   5.649  17.695  0.00  0.00    +0.000 NA
BRANCH   8  15
ATOM     10  C   UNL     1       1.629   8.358  19.873  0.00  0.00    +0.000 A 
ATOM     11  C   UNL     1       1.179   9.692  19.835  0.00  0.00    +0.000 A 
ATOM     12  C   UNL     1       1.349  10.479  18.693  0.00  0.00    +0.000 A 
ATOM     13  C   UNL     1       1.967   9.941  17.568  0.00  0.00    +0.000 A 
ATOM     14  C   UNL     1       2.411   8.620  17.584  0.00  0.00    +0.000 A 
ATOM     15  C   UNL     1       2.264   7.829  18.736  0.00  0.00    +0.000 A 
BRANCH  10  17
ATOM     16  O   UNL     1       1.122   6.441  21.168  0.00  0.00    +0.000 OA
ATOM     17  C   UNL     1       1.372   7.637  21.149  0.00  0.00    +0.000 C 
BRANCH  17  18
ATOM     18  O   UNL     1       1.599   8.338  22.275  0.00  0.00    +0.000 OA
ATOM     19  H   UNL     1       2.183   9.114  22.191  0.00  0.00    +0.000 HD
ENDBRANCH  17  18
ENDBRANCH  10  17
ENDBRANCH   8  15
ENDBRANCH   1   9
BRANCH   2  20
ATOM     20  C   UNL     1       5.117   5.333  16.260  0.00  0.00    +0.000 C 
BRANCH  20  21
ATOM     21  C   UNL     1       6.169   6.014  17.150  0.00  0.00    +0.000 A 
ATOM     22  C   UNL     1       6.587   7.341  16.925  0.00  0.00    +0.000 A 
ATOM     23  C   UNL     1       7.598   7.918  17.696  0.00  0.00    +0.000 A 
ATOM     24  C   UNL     1       8.223   7.172  18.692  0.00  0.00    +0.000 A 
ATOM     25  C   UNL     1       7.819   5.861  18.934  0.00  0.00    +0.000 A 
ATOM     26  C   UNL     1       6.798   5.285  18.173  0.00  0.00    +0.000 A 
ENDBRANCH  20  21
BRANCH  20  27
ATOM     27  C   UNL     1       5.677   4.819  14.919  0.00  0.00    +0.000 A 
ATOM     28  C   UNL     1       4.932   4.024  14.032  0.00  0.00    +0.000 A 
ATOM     29  C   UNL     1       5.477   3.589  12.819  0.00  0.00    +0.000 A 
ATOM     30  C   UNL     1       6.778   3.937  12.468  0.00  0.00    +0.000 A 
ATOM     31  C   UNL     1       7.539   4.717  13.332  0.00  0.00    +0.000 A 
ATOM     32  C   UNL     1       6.991   5.161  14.540  0.00  0.00    +0.000 A 
ENDBRANCH  20  27
ENDBRANCH   2  20
TORSDOF 7
ENDMDL
MODEL 2
REMARK VINA RESULT:      -8.1      0.444      1.374
REMARK  Name = 
REMARK  7 active torsions:
REMARK  status: ('A' for Active; 'I' for Inactive)
REMARK    1  A    between atoms: C_2  and  O_3
REMARK    2  A    between atoms: C_2  and  C_4
REMARK    3  A    between atoms: C_9  and  C_10
REMARK    4  A    between atoms: N_11  and  N_12
REMARK    5  A    between atoms: C_13  and  C_14
REMARK    6  A    between atoms: C_14  and  C_15
REMARK    7  A    between atoms: C_14  and  C_21
REMARK                            x       y       z     vdW  Elec       q    Type
REMARK                         _______ _______ _______ _____ _____    ______ ____
ROOT
ATOM      1  N   UNL     1       3.273   4.230  17.530  0.00  0.00    +0.000 N 
ATOM      2  C   UNL     1       4.504   4.072  16.955  0.00  0.00    +0.000 A 
ATOM      3  N   UNL     1       5.025   2.888  17.151  0.00  0.00    +0.000 NA
ATOM      4  N   UNL     1       4.119   2.229  17.932  0.00  0.00    +0.000 N 
ATOM      5  C   UNL     1       3.061   3.065  18.256  0.00  0.00    +0.000 A 
ATOM      6  S   UNL     1       1.900   2.650  19.367  0.00  0.00    +0.000 S 
ATOM      7  H   UNL     1       4.332   1.329  18.347  0.00  0.00    +0.000 HD
ENDROOT
BRANCH   1   9
ATOM      8  C   UNL     1       2.946   6.231  18.564  0.00  0.00    +0.000 C 
ATOM      9  N   UNL     1       2.601   5.416  17.617  0.00  0.00    +0.000 NA
BRANCH   8  15
ATOM     10  C   UNL     1       1.633   8.041  19.786  0.00  0.00    +0.000 A 
ATOM     11  C   UNL     1       1.179   9.374  19.790  0.00  0.00    +0.000 A 
ATOM     12  C   UNL     1       1.447  10.230  18.718  0.00  0.00    +0.000 A 
ATOM     13  C   UNL     1       2.170   9.764  17.625  0.00  0.00    +0.000 A 
ATOM     14  C   UNL     1       2.621   8.446  17.601  0.00  0.00    +0.000 A 
ATOM     15  C   UNL     1       2.375   7.585  18.683  0.00  0.00    +0.000 A 
BRANCH  10  17
ATOM     16  O   UNL     1       0.262   7.492  21.637  0.00  0.00    +0.000 OA
ATOM     17  C   UNL     1       1.267   7.243  20.987  0.00  0.00    +0.000 C 
BRANCH  17  18
ATOM     18  O   UNL     1       2.006   6.140  21.209  0.00  0.00    +0.000 OA
ATOM     19  H   UNL     1       2.359   6.031  22.110  0.00  0.00    +0.000 HD
ENDBRANCH  17  18
ENDBRANCH  10  17
ENDBRANCH   8  15
ENDBRANCH   1   9
BRANCH   2  20
ATOM     20  C   UNL     1       5.206   5.167  16.143  0.00  0.00    +0.000 C 
BRANCH  20  21
ATOM     21  C   UNL     1       6.289   5.815  17.022  0.00  0.00    +0.000 A 
ATOM     22  C   UNL     1       6.948   5.097  18.040  0.00  0.00    +0.000 A 
ATOM     23  C   UNL     1       7.873   5.721  18.878  0.00  0.00    +0.000 A 
ATOM     24  C   UNL     1       8.143   7.079  18.726  0.00  0.00    +0.000 A 
ATOM     25  C   UNL     1       7.507   7.803  17.720  0.00  0.00    +0.000 A 
ATOM     26  C   UNL     1       6.589   7.178  16.871  0.00  0.00    +0.000 A 
ENDBRANCH  20  21
BRANCH  20  27
ATOM     27  C   UNL     1       5.721   4.701  14.768  0.00  0.00    +0.000 A 
ATOM     28  C   UNL     1       7.009   4.997  14.291  0.00  0.00    +0.000 A 
ATOM     29  C   UNL     1       7.441   4.543  13.040  0.00  0.00    +0.000 A 
ATOM     30  C   UNL     1       6.593   3.785  12.237  0.00  0.00    +0.000 A 
ATOM     31  C   UNL     1       5.310   3.484  12.683  0.00  0.00    +0.000 A 
ATOM     32  C   UNL     1       4.882   3.929  13.938  0.00  0.00    +0.000 A 
ENDBRANCH  20  27
ENDBRANCH   2  20
TORSDOF 7
ENDMDL
MODEL 3
REMARK VINA RESULT:      -7.8      0.756      1.181
REMARK  Name = 
REMARK  7 active torsions:
REMARK  status: ('A' for Active; 'I' for Inactive)
REMARK    1  A    between atoms: C_2  and  O_3
REMARK    2  A    between atoms: C_2  and  C_4
REMARK    3  A    between atoms: C_9  and  C_10
REMARK    4  A    between atoms: N_11  and  N_12
REMARK    5  A    between atoms: C_13  and  C_14
REMARK    6  A    between atoms: C_14  and  C_15
REMARK    7  A    between atoms: C_14  and  C_21
REMARK                            x       y       z     vdW  Elec       q    Type
REMARK                         _______ _______ _______ _____ _____    ______ ____
ROOT
ATOM      1  N   UNL     1       3.131   5.259  17.798  0.00  0.00    +0.000 N 
ATOM      2  C   UNL     1       4.331   4.847  17.287  0.00  0.00    +0.000 A 
ATOM      3  N   UNL     1       4.655   3.627  17.630  0.00  0.00    +0.000 NA
ATOM      4  N   UNL     1       3.642   3.210  18.447  0.00  0.00    +0.000 N 
ATOM      5  C   UNL     1       2.726   4.232  18.640  0.00  0.00    +0.000 A 
ATOM      6  S   UNL     1       1.494   4.132  19.749  0.00  0.00    +0.000 S 
ATOM      7  H   UNL     1       3.703   2.341  18.966  0.00  0.00    +0.000 HD
ENDROOT
BRANCH   1   9
ATOM      8  C   UNL     1       2.322   7.112  18.845  0.00  0.00    +0.000 C 
ATOM      9  N   UNL     1       2.654   6.538  17.731  0.00  0.00    +0.000 NA
BRANCH   8  15
ATOM     10  C   UNL     1       1.213   9.102  19.984  0.00  0.00    +0.000 A 
ATOM     11  C   UNL     1       0.914  10.478  19.934  0.00  0.00    +0.000 A 
ATOM     12  C   UNL     1       1.290  11.258  18.838  0.00  0.00    +0.000 A 
ATOM     13  C   UNL     1       1.967  10.674  17.772  0.00  0.00    +0.000 A 
ATOM     14  C   UNL     1       2.264   9.312  17.800  0.00  0.00    +0.000 A 
ATOM     15  C   UNL     1       1.909   8.525  18.908  0.00  0.00    +0.000 A 
BRANCH  10  17
ATOM     16  O   UNL     1      -0.446   8.217  21.423  0.00  0.00    +0.000 OA
ATOM     17  C   UNL     1       0.744   8.396  21.206  0.00  0.00    +0.000 C 
BRANCH  17  18
ATOM     18  O   UNL     1       1.702   7.824  21.958  0.00  0.00    +0.000 OA
ATOM     19  H   UNL     1       2.495   7.515  21.485  0.00  0.00    +0.000 HD
ENDBRANCH  17  18
ENDBRANCH  10  17
ENDBRANCH   8  15
ENDBRANCH   1   9
BRANCH   2  20
ATOM     20  C   UNL     1       5.212   5.720  16.384  0.00  0.00    +0.000 C 
BRANCH  20  21
ATOM     21  C   UNL     1       6.371   6.284  17.223  0.00  0.00    +0.000 A 
ATOM     22  C   UNL     1       6.977   5.535  18.252  0.00  0.00    +0.000 A 
ATOM     23  C   UNL     1       7.977   6.090  19.052  0.00  0.00    +0.000 A 
ATOM     24  C   UNL     1       8.376   7.409  18.852  0.00  0.00    +0.000 A 
ATOM     25  C   UNL     1       7.793   8.163  17.835  0.00  0.00    +0.000 A 
ATOM     26  C   UNL     1       6.800   7.606  17.023  0.00  0.00    +0.000 A 
ENDBRANCH  20  21
BRANCH  20  27
ATOM     27  C   UNL     1       5.666   5.027  15.085  0.00  0.00    +0.000 A 
ATOM     28  C   UNL     1       4.819   4.209  14.318  0.00  0.00    +0.000 A 
ATOM     29  C   UNL     1       5.269   3.608  13.137  0.00  0.00    +0.000 A 
ATOM     30  C   UNL     1       6.575   3.809  12.700  0.00  0.00    +0.000 A 
ATOM     31  C   UNL     1       7.436   4.608  13.446  0.00  0.00    +0.000 A 
ATOM     32  C   UNL     1       6.983   5.218  14.620  0.00  0.00    +0.000 A 
ENDBRANCH  20  27
ENDBRANCH   2  20
TORSDOF 7
ENDMDL
MODEL 4
REMARK VINA RESULT:      -7.7      1.488      2.187
REMARK  Name = 
REMARK  7 active torsions:
REMARK  status: ('A' for Active; 'I' for Inactive)
REMARK    1  A    between atoms: C_2  and  O_3
REMARK    2  A    between atoms: C_2  and  C_4
REMARK    3  A    between atoms: C_9  and  C_10
REMARK    4  A    between atoms: N_11  and  N_12
REMARK    5  A    between atoms: C_13  and  C_14
REMARK    6  A    between atoms: C_14  and  C_15
REMARK    7  A    between atoms: C_14  and  C_21
REMARK                            x       y       z     vdW  Elec       q    Type
REMARK                         _______ _______ _______ _____ _____    ______ ____
ROOT
ATOM      1  N   UNL     1       3.782   4.487  18.527  0.00  0.00    +0.000 N 
ATOM      2  C   UNL     1       4.615   4.250  17.469  0.00  0.00    +0.000 A 
ATOM      3  N   UNL     1       4.857   2.981  17.268  0.00  0.00    +0.000 NA
ATOM      4  N   UNL     1       4.188   2.331  18.265  0.00  0.00    +0.000 N 
ATOM      5  C   UNL     1       3.582   3.244  19.114  0.00  0.00    +0.000 A 
ATOM      6  S   UNL     1       2.873   2.799  20.548  0.00  0.00    +0.000 S 
ATOM      7  H   UNL     1       4.311   1.338  18.427  0.00  0.00    +0.000 HD
ENDROOT
BRANCH   1   9
ATOM      8  C   UNL     1       2.277   6.105  19.074  0.00  0.00    +0.000 C 
ATOM      9  N   UNL     1       3.515   5.722  19.048  0.00  0.00    +0.000 NA
BRANCH   8  15
ATOM     10  C   UNL     1       1.862   8.619  19.088  0.00  0.00    +0.000 A 
ATOM     11  C   UNL     1       1.396   9.735  19.808  0.00  0.00    +0.000 A 
ATOM     12  C   UNL     1       0.944   9.609  21.124  0.00  0.00    +0.000 A 
ATOM     13  C   UNL     1       0.957   8.363  21.743  0.00  0.00    +0.000 A 
ATOM     14  C   UNL     1       1.422   7.247  21.049  0.00  0.00    +0.000 A 
ATOM     15  C   UNL     1       1.857   7.362  19.719  0.00  0.00    +0.000 A 
BRANCH  10  17
ATOM     16  O   UNL     1       2.871   8.049  17.024  0.00  0.00    +0.000 OA
ATOM     17  C   UNL     1       2.320   8.903  17.702  0.00  0.00    +0.000 C 
BRANCH  17  18
ATOM     18  O   UNL     1       1.941  10.089  17.189  0.00  0.00    +0.000 OA
ATOM     19  H   UNL     1       2.494  10.444  16.470  0.00  0.00    +0.000 HD
ENDBRANCH  17  18
ENDBRANCH  10  17
ENDBRANCH   8  15
ENDBRANCH   1   9
BRANCH   2  20
ATOM     20  C   UNL     1       5.201   5.361  16.588  0.00  0.00    +0.000 C 
BRANCH  20  21
ATOM     21  C   UNL     1       6.272   6.115  17.393  0.00  0.00    +0.000 A 
ATOM     22  C   UNL     1       6.606   7.455  17.112  0.00  0.00    +0.000 A 
ATOM     23  C   UNL     1       7.633   8.101  17.803  0.00  0.00    +0.000 A 
ATOM     24  C   UNL     1       8.357   7.413  18.773  0.00  0.00    +0.000 A 
ATOM     25  C   UNL     1       8.036   6.090  19.070  0.00  0.00    +0.000 A 
ATOM     26  C   UNL     1       7.000   5.445  18.389  0.00  0.00    +0.000 A 
ENDBRANCH  20  21
BRANCH  20  27
ATOM     27  C   UNL     1       5.687   4.880  15.207  0.00  0.00    +0.000 A 
ATOM     28  C   UNL     1       7.010   5.043  14.762  0.00  0.00    +0.000 A 
ATOM     29  C   UNL     1       7.413   4.579  13.504  0.00  0.00    +0.000 A 
ATOM     30  C   UNL     1       6.501   3.946  12.664  0.00  0.00    +0.000 A 
ATOM     31  C   UNL     1       5.184   3.779  13.078  0.00  0.00    +0.000 A 
ATOM     32  C   UNL     1       4.784   4.233  14.340  0.00  0.00    +0.000 A 
ENDBRANCH  20  27
ENDBRANCH   2  20
TORSDOF 7
ENDMDL
MODEL 5
REMARK VINA RESULT:      -7.6      0.991      1.386
REMARK  Name = 
REMARK  7 active torsions:
REMARK  status: ('A' for Active; 'I' for Inactive)
REMARK    1  A    between atoms: C_2  and  O_3
REMARK    2  A    between atoms: C_2  and  C_4
REMARK    3  A    between atoms: C_9  and  C_10
REMARK    4  A    between atoms: N_11  and  N_12
REMARK    5  A    between atoms: C_13  and  C_14
REMARK    6  A    between atoms: C_14  and  C_15
REMARK    7  A    between atoms: C_14  and  C_21
REMARK                            x       y       z     vdW  Elec       q    Type
REMARK                         _______ _______ _______ _____ _____    ______ ____
ROOT
ATOM      1  N   UNL     1       3.271   5.619  18.359  0.00  0.00    +0.000 N 
ATOM      2  C   UNL     1       4.209   5.070  17.530  0.00  0.00    +0.000 A 
ATOM      3  N   UNL     1       4.260   3.764  17.590  0.00  0.00    +0.000 NA
ATOM      4  N   UNL     1       3.339   3.418  18.537  0.00  0.00    +0.000 N 
ATOM      5  C   UNL     1       2.771   4.553  19.095  0.00  0.00    +0.000 A 
ATOM      6  S   UNL     1       1.778   4.495  20.424  0.00  0.00    +0.000 S 
ATOM      7  H   UNL     1       3.265   2.468  18.882  0.00  0.00    +0.000 HD
ENDROOT
BRANCH   1   9
ATOM      8  C   UNL     1       1.972   7.488  18.417  0.00  0.00    +0.000 C 
ATOM      9  N   UNL     1       3.138   6.956  18.608  0.00  0.00    +0.000 NA
BRANCH   8  15
ATOM     10  C   UNL     1       1.148   9.309  19.997  0.00  0.00    +0.000 A 
ATOM     11  C   UNL     1       0.956  10.687  20.215  0.00  0.00    +0.000 A 
ATOM     12  C   UNL     1       1.278  11.625  19.231  0.00  0.00    +0.000 A 
ATOM     13  C   UNL     1       1.793  11.199  18.011  0.00  0.00    +0.000 A 
ATOM     14  C   UNL     1       1.982   9.838  17.774  0.00  0.00    +0.000 A 
ATOM     15  C   UNL     1       1.681   8.890  18.766  0.00  0.00    +0.000 A 
BRANCH  10  17
ATOM     16  O   UNL     1      -0.406   8.067  21.282  0.00  0.00    +0.000 OA
ATOM     17  C   UNL     1       0.752   8.427  21.128  0.00  0.00    +0.000 C 
BRANCH  17  18
ATOM     18  O   UNL     1       1.762   7.919  21.858  0.00  0.00    +0.000 OA
ATOM     19  H   UNL     1       2.331   8.563  22.315  0.00  0.00    +0.000 HD
ENDBRANCH  17  18
ENDBRANCH  10  17
ENDBRANCH   8  15
ENDBRANCH   1   9
BRANCH   2  20
ATOM     20  C   UNL     1       5.108   5.898  16.602  0.00  0.00    +0.000 C 
BRANCH  20  21
ATOM     21  C   UNL     1       6.252   6.500  17.434  0.00  0.00    +0.000 A 
ATOM     22  C   UNL     1       6.770   7.784  17.166  0.00  0.00    +0.000 A 
ATOM     23  C   UNL     1       7.858   8.284  17.883  0.00  0.00    +0.000 A 
ATOM     24  C   UNL     1       8.461   7.504  18.866  0.00  0.00    +0.000 A 
ATOM     25  C   UNL     1       7.958   6.236  19.150  0.00  0.00    +0.000 A 
ATOM     26  C   UNL     1       6.860   5.737  18.443  0.00  0.00    +0.000 A 
ENDBRANCH  20  21
BRANCH  20  27
ATOM     27  C   UNL     1       5.585   5.142  15.347  0.00  0.00    +0.000 A 
ATOM     28  C   UNL     1       6.935   5.076  14.960  0.00  0.00    +0.000 A 
ATOM     29  C   UNL     1       7.326   4.367  13.818  0.00  0.00    +0.000 A 
ATOM     30  C   UNL     1       6.378   3.713  13.038  0.00  0.00    +0.000 A 
ATOM     31  C   UNL     1       5.035   3.769  13.396  0.00  0.00    +0.000 A 
ATOM     32  C   UNL     1       4.644   4.468  14.543  0.00  0.00    +0.000 A 
ENDBRANCH  20  27
ENDBRANCH   2  20
TORSDOF 7
ENDMDL
MODEL 6
REMARK VINA RESULT:      -7.5      1.461      2.220
REMARK  Name = 
REMARK  7 active torsions:
REMARK  status: ('A' for Active; 'I' for Inactive)
REMARK    1  A    between atoms: C_2  and  O_3
REMARK    2  A    between atoms: C_2  and  C_4
REMARK    3  A    between atoms: C_9  and  C_10
REMARK    4  A    between atoms: N_11  and  N_12
REMARK    5  A    between atoms: C_13  and  C_14
REMARK    6  A    between atoms: C_14  and  C_15
REMARK    7  A    between atoms: C_14  and  C_21
REMARK                            x       y       z     vdW  Elec       q    Type
REMARK                         _______ _______ _______ _____ _____    ______ ____
ROOT
ATOM      1  N   UNL     1       3.793   4.366  18.399  0.00  0.00    +0.000 N 
ATOM      2  C   UNL     1       4.658   4.120  17.369  0.00  0.00    +0.000 A 
ATOM      3  N   UNL     1       4.906   2.849  17.187  0.00  0.00    +0.000 NA
ATOM      4  N   UNL     1       4.206   2.208  18.168  0.00  0.00    +0.000 N 
ATOM      5  C   UNL     1       3.574   3.129  18.991  0.00  0.00    +0.000 A 
ATOM      6  S   UNL     1       2.822   2.696  20.406  0.00  0.00    +0.000 S 
ATOM      7  H   UNL     1       4.325   1.216  18.344  0.00  0.00    +0.000 HD
ENDROOT
BRANCH   1   9
ATOM      8  C   UNL     1       2.264   5.895  19.112  0.00  0.00    +0.000 C 
ATOM      9  N   UNL     1       3.510   5.606  18.900  0.00  0.00    +0.000 NA
BRANCH   8  15
ATOM     10  C   UNL     1       1.880   8.414  19.139  0.00  0.00    +0.000 A 
ATOM     11  C   UNL     1       1.416   9.531  19.859  0.00  0.00    +0.000 A 
ATOM     12  C   UNL     1       0.941   9.400  21.167  0.00  0.00    +0.000 A 
ATOM     13  C   UNL     1       0.928   8.150  21.776  0.00  0.00    +0.000 A 
ATOM     14  C   UNL     1       1.391   7.033  21.081  0.00  0.00    +0.000 A 
ATOM     15  C   UNL     1       1.850   7.153  19.759  0.00  0.00    +0.000 A 
BRANCH  10  17
ATOM     16  O   UNL     1       1.951   9.663  17.129  0.00  0.00    +0.000 OA
ATOM     17  C   UNL     1       2.365   8.703  17.763  0.00  0.00    +0.000 C 
BRANCH  17  18
ATOM     18  O   UNL     1       3.396   7.954  17.333  0.00  0.00    +0.000 OA
ATOM     19  H   UNL     1       4.031   8.393  16.737  0.00  0.00    +0.000 HD
ENDBRANCH  17  18
ENDBRANCH  10  17
ENDBRANCH   8  15
ENDBRANCH   1   9
BRANCH   2  20
ATOM     20  C   UNL     1       5.270   5.223  16.496  0.00  0.00    +0.000 C 
BRANCH  20  21
ATOM     21  C   UNL     1       6.398   5.906  17.286  0.00  0.00    +0.000 A 
ATOM     22  C   UNL     1       7.064   5.257  18.346  0.00  0.00    +0.000 A 
ATOM     23  C   UNL     1       8.033   5.920  19.100  0.00  0.00    +0.000 A 
ATOM     24  C   UNL     1       8.341   7.249  18.823  0.00  0.00    +0.000 A 
ATOM     25  C   UNL     1       7.699   7.905  17.775  0.00  0.00    +0.000 A 
ATOM     26  C   UNL     1       6.737   7.241  17.009  0.00  0.00    +0.000 A 
ENDBRANCH  20  21
BRANCH  20  27
ATOM     27  C   UNL     1       5.694   4.753  15.091  0.00  0.00    +0.000 A 
ATOM     28  C   UNL     1       4.819   4.101  14.206  0.00  0.00    +0.000 A 
ATOM     29  C   UNL     1       5.242   3.701  12.933  0.00  0.00    +0.000 A 
ATOM     30  C   UNL     1       6.549   3.942  12.520  0.00  0.00    +0.000 A 
ATOM     31  C   UNL     1       7.437   4.579  13.380  0.00  0.00    +0.000 A 
ATOM     32  C   UNL     1       7.011   4.988  14.649  0.00  0.00    +0.000 A 
ENDBRANCH  20  27
ENDBRANCH   2  20
TORSDOF 7
ENDMDL
MODEL 7
REMARK VINA RESULT:      -7.4      8.322     10.696
REMARK  Name = 
REMARK  7 active torsions:
REMARK  status: ('A' for Active; 'I' for Inactive)
REMARK    1  A    between atoms: C_2  and  O_3
REMARK    2  A    between atoms: C_2  and  C_4
REMARK    3  A    between atoms: C_9  and  C_10
REMARK    4  A    between atoms: N_11  and  N_12
REMARK    5  A    between atoms: C_13  and  C_14
REMARK    6  A    between atoms: C_14  and  C_15
REMARK    7  A    between atoms: C_14  and  C_21
REMARK                            x       y       z     vdW  Elec       q    Type
REMARK                         _______ _______ _______ _____ _____    ______ ____
ROOT
ATOM      1  N   UNL     1      -2.923  12.085  18.943  0.00  0.00    +0.000 N 
ATOM      2  C   UNL     1      -1.595  12.366  19.104  0.00  0.00    +0.000 A 
ATOM      3  N   UNL     1      -0.920  12.364  17.984  0.00  0.00    +0.000 NA
ATOM      4  N   UNL     1      -1.830  12.024  17.024  0.00  0.00    +0.000 N 
ATOM      5  C   UNL     1      -3.063  11.760  17.600  0.00  0.00    +0.000 A 
ATOM      6  S   UNL     1      -4.329  11.109  16.746  0.00  0.00    +0.000 S 
ATOM      7  H   UNL     1      -1.546  11.818  16.073  0.00  0.00    +0.000 HD
ENDROOT
BRANCH   1   9
ATOM      8  C   UNL     1      -4.617  12.815  20.277  0.00  0.00    +0.000 C 
ATOM      9  N   UNL     1      -3.801  11.858  19.966  0.00  0.00    +0.000 NA
BRANCH   8  15
ATOM     10  C   UNL     1      -6.952  12.101  21.006  0.00  0.00    +0.000 A 
ATOM     11  C   UNL     1      -7.866  11.955  22.067  0.00  0.00    +0.000 A 
ATOM     12  C   UNL     1      -7.533  12.346  23.366  0.00  0.00    +0.000 A 
ATOM     13  C   UNL     1      -6.280  12.894  23.623  0.00  0.00    +0.000 A 
ATOM     14  C   UNL     1      -5.365  13.053  22.584  0.00  0.00    +0.000 A 
ATOM     15  C   UNL     1      -5.684  12.643  21.279  0.00  0.00    +0.000 A 
BRANCH  10  17
ATOM     16  O   UNL     1      -7.704  12.451  18.788  0.00  0.00    +0.000 OA
ATOM     17  C   UNL     1      -7.445  11.652  19.676  0.00  0.00    +0.000 C 
BRANCH  17  18
ATOM     18  O   UNL     1      -7.427  10.324  19.460  0.00  0.00    +0.000 OA
ATOM     19  H   UNL     1      -7.521  10.035  18.534  0.00  0.00    +0.000 HD
ENDBRANCH  17  18
ENDBRANCH  10  17
ENDBRANCH   8  15
ENDBRANCH   1   9
BRANCH   2  20
ATOM     20  C   UNL     1      -0.952  12.672  20.463  0.00  0.00    +0.000 C 
BRANCH  20  21
ATOM     21  C   UNL     1      -0.759  11.350  21.225  0.00  0.00    +0.000 A 
ATOM     22  C   UNL     1      -0.908  11.270  22.624  0.00  0.00    +0.000 A 
ATOM     23  C   UNL     1      -0.655  10.079  23.308  0.00  0.00    +0.000 A 
ATOM     24  C   UNL     1      -0.230   8.953  22.608  0.00  0.00    +0.000 A 
ATOM     25  C   UNL     1      -0.084   9.011  21.224  0.00  0.00    +0.000 A 
ATOM     26  C   UNL     1      -0.349  10.198  20.535  0.00  0.00    +0.000 A 
ENDBRANCH  20  21
BRANCH  20  27
ATOM     27  C   UNL     1       0.324  13.531  20.379  0.00  0.00    +0.000 A 
ATOM     28  C   UNL     1       1.616  13.000  20.529  0.00  0.00    +0.000 A 
ATOM     29  C   UNL     1       2.750  13.815  20.432  0.00  0.00    +0.000 A 
ATOM     30  C   UNL     1       2.615  15.179  20.187  0.00  0.00    +0.000 A 
ATOM     31  C   UNL     1       1.347  15.730  20.043  0.00  0.00    +0.000 A 
ATOM     32  C   UNL     1       0.214  14.914  20.128  0.00  0.00    +0.000 A 
ENDBRANCH  20  27
ENDBRANCH   2  20
TORSDOF 7
ENDMDL
MODEL 8
REMARK VINA RESULT:      -7.4      7.054     10.534
REMARK  Name = 
REMARK  7 active torsions:
REMARK  status: ('A' for Active; 'I' for Inactive)
REMARK    1  A    between atoms: C_2  and  O_3
REMARK    2  A    between atoms: C_2  and  C_4
REMARK    3  A    between atoms: C_9  and  C_10
REMARK    4  A    between atoms: N_11  and  N_12
REMARK    5  A    between atoms: C_13  and  C_14
REMARK    6  A    between atoms: C_14  and  C_15
REMARK    7  A    between atoms: C_14  and  C_21
REMARK                            x       y       z     vdW  Elec       q    Type
REMARK                         _______ _______ _______ _____ _____    ______ ____
ROOT
ATOM      1  N   UNL     1      -2.045  13.232  20.455  0.00  0.00    +0.000 N 
ATOM      2  C   UNL     1      -1.448  12.487  19.476  0.00  0.00    +0.000 A 
ATOM      3  N   UNL     1      -0.615  13.169  18.734  0.00  0.00    +0.000 NA
ATOM      4  N   UNL     1      -0.683  14.447  19.210  0.00  0.00    +0.000 N 
ATOM      5  C   UNL     1      -1.627  14.536  20.221  0.00  0.00    +0.000 A 
ATOM      6  S   UNL     1      -2.116  15.987  20.864  0.00  0.00    +0.000 S 
ATOM      7  H   UNL     1      -0.234  15.218  18.727  0.00  0.00    +0.000 HD
ENDROOT
BRANCH   1   9
ATOM      8  C   UNL     1      -4.249  13.302  21.021  0.00  0.00    +0.000 C 
ATOM      9  N   UNL     1      -3.074  12.802  21.244  0.00  0.00    +0.000 NA
BRANCH   8  15
ATOM     10  C   UNL     1      -5.698  13.021  23.098  0.00  0.00    +0.000 A 
ATOM     11  C   UNL     1      -6.910  12.550  23.638  0.00  0.00    +0.000 A 
ATOM     12  C   UNL     1      -7.850  11.895  22.840  0.00  0.00    +0.000 A 
ATOM     13  C   UNL     1      -7.591  11.696  21.488  0.00  0.00    +0.000 A 
ATOM     14  C   UNL     1      -6.393  12.148  20.936  0.00  0.00    +0.000 A 
ATOM     15  C   UNL     1      -5.452  12.827  21.727  0.00  0.00    +0.000 A 
BRANCH  10  17
ATOM     16  O   UNL     1      -3.829  13.108  24.549  0.00  0.00    +0.000 OA
ATOM     17  C   UNL     1      -4.789  13.691  24.066  0.00  0.00    +0.000 C 
BRANCH  17  18
ATOM     18  O   UNL     1      -4.986  15.010  24.243  0.00  0.00    +0.000 OA
ATOM     19  H   UNL     1      -5.913  15.302  24.320  0.00  0.00    +0.000 HD
ENDBRANCH  17  18
ENDBRANCH  10  17
ENDBRANCH   8  15
ENDBRANCH   1   9
BRANCH   2  20
ATOM     20  C   UNL     1      -1.714  10.990  19.271  0.00  0.00    +0.000 C 
BRANCH  20  21
ATOM     21  C   UNL     1      -2.511  10.805  17.969  0.00  0.00    +0.000 A 
ATOM     22  C   UNL     1      -2.044   9.984  16.922  0.00  0.00    +0.000 A 
ATOM     23  C   UNL     1      -2.744   9.887  15.718  0.00  0.00    +0.000 A 
ATOM     24  C   UNL     1      -3.911  10.623  15.531  0.00  0.00    +0.000 A 
ATOM     25  C   UNL     1      -4.392  11.434  16.557  0.00  0.00    +0.000 A 
ATOM     26  C   UNL     1      -3.701  11.523  17.769  0.00  0.00    +0.000 A 
ENDBRANCH  20  21
BRANCH  20  27
ATOM     27  C   UNL     1      -0.453  10.109  19.357  0.00  0.00    +0.000 A 
ATOM     28  C   UNL     1       0.418   9.910  18.273  0.00  0.00    +0.000 A 
ATOM     29  C   UNL     1       1.560   9.110  18.399  0.00  0.00    +0.000 A 
ATOM     30  C   UNL     1       1.852   8.490  19.610  0.00  0.00    +0.000 A 
ATOM     31  C   UNL     1       1.002   8.664  20.696  0.00  0.00    +0.000 A 
ATOM     32  C   UNL     1      -0.133   9.472  20.574  0.00  0.00    +0.000 A 
ENDBRANCH  20  27
ENDBRANCH   2  20
TORSDOF 7
ENDMDL
MODEL 9
REMARK VINA RESULT:      -7.2      5.090      9.665
REMARK  Name = 
REMARK  7 active torsions:
REMARK  status: ('A' for Active; 'I' for Inactive)
REMARK    1  A    between atoms: C_2  and  O_3
REMARK    2  A    between atoms: C_2  and  C_4
REMARK    3  A    between atoms: C_9  and  C_10
REMARK    4  A    between atoms: N_11  and  N_12
REMARK    5  A    between atoms: C_13  and  C_14
REMARK    6  A    between atoms: C_14  and  C_15
REMARK    7  A    between atoms: C_14  and  C_21
REMARK                            x       y       z     vdW  Elec       q    Type
REMARK                         _______ _______ _______ _____ _____    ______ ____
ROOT
ATOM      1  N   UNL     1       0.850  12.386  19.078  0.00  0.00    +0.000 N 
ATOM      2  C   UNL     1      -0.455  12.783  19.183  0.00  0.00    +0.000 A 
ATOM      3  N   UNL     1      -0.637  14.053  18.933  0.00  0.00    +0.000 NA
ATOM      4  N   UNL     1       0.612  14.547  18.686  0.00  0.00    +0.000 N 
ATOM      5  C   UNL     1       1.565  13.554  18.854  0.00  0.00    +0.000 A 
ATOM      6  S   UNL     1       3.196  13.869  18.845  0.00  0.00    +0.000 S 
ATOM      7  H   UNL     1       0.780  15.543  18.592  0.00  0.00    +0.000 HD
ENDROOT
BRANCH   1   9
ATOM      8  C   UNL     1       1.202  10.186  18.609  0.00  0.00    +0.000 C 
ATOM      9  N   UNL     1       1.325  11.161  19.454  0.00  0.00    +0.000 NA
BRANCH   8  15
ATOM     10  C   UNL     1       1.638   8.135  20.056  0.00  0.00    +0.000 A 
ATOM     11  C   UNL     1       2.211   6.852  20.146  0.00  0.00    +0.000 A 
ATOM     12  C   UNL     1       2.917   6.300  19.074  0.00  0.00    +0.000 A 
ATOM     13  C   UNL     1       3.065   7.026  17.896  0.00  0.00    +0.000 A 
ATOM     14  C   UNL     1       2.511   8.301  17.792  0.00  0.00    +0.000 A 
ATOM     15  C   UNL     1       1.782   8.854  18.857  0.00  0.00    +0.000 A 
BRANCH  10  17
ATOM     16  O   UNL     1      -0.293   8.540  21.365  0.00  0.00    +0.000 OA
ATOM     17  C   UNL     1       0.925   8.598  21.277  0.00  0.00    +0.000 C 
BRANCH  17  18
ATOM     18  O   UNL     1       1.703   8.918  22.327  0.00  0.00    +0.000 OA
ATOM     19  H   UNL     1       2.094   9.810  22.318  0.00  0.00    +0.000 HD
ENDBRANCH  17  18
ENDBRANCH  10  17
ENDBRANCH   8  15
ENDBRANCH   1   9
BRANCH   2  20
ATOM     20  C   UNL     1      -1.602  11.831  19.545  0.00  0.00    +0.000 C 
BRANCH  20  21
ATOM     21  C   UNL     1      -2.280  12.342  20.827  0.00  0.00    +0.000 A 
ATOM     22  C   UNL     1      -3.318  13.296  20.790  0.00  0.00    +0.000 A 
ATOM     23  C   UNL     1      -3.870  13.804  21.967  0.00  0.00    +0.000 A 
ATOM     24  C   UNL     1      -3.382  13.384  23.202  0.00  0.00    +0.000 A 
ATOM     25  C   UNL     1      -2.362  12.436  23.259  0.00  0.00    +0.000 A 
ATOM     26  C   UNL     1      -1.816  11.915  22.082  0.00  0.00    +0.000 A 
ENDBRANCH  20  21
BRANCH  20  27
ATOM     27  C   UNL     1      -2.585  11.560  18.390  0.00  0.00    +0.000 A 
ATOM     28  C   UNL     1      -3.980  11.647  18.534  0.00  0.00    +0.000 A 
ATOM     29  C   UNL     1      -4.836  11.404  17.454  0.00  0.00    +0.000 A 
ATOM     30  C   UNL     1      -4.316  11.067  16.208  0.00  0.00    +0.000 A 
ATOM     31  C   UNL     1      -2.939  10.967  16.040  0.00  0.00    +0.000 A 
ATOM     32  C   UNL     1      -2.083  11.220  17.117  0.00  0.00    +0.000 A 
ENDBRANCH  20  27
ENDBRANCH   2  20
TORSDOF 7
ENDMDL
