MODEL 1
REMARK VINA RESULT:      -7.6      0.000      0.000
REMARK  Name = 
REMARK  15 active torsions:
REMARK  status: ('A' for Active; 'I' for Inactive)
REMARK    1  A    between atoms: C_1  and  C_2
REMARK    2  A    between atoms: C_2  and  O_3
REMARK    3  A    between atoms: O_3  and  C_4
REMARK    4  A    between atoms: C_4  and  C_6
REMARK    5  A    between atoms: C_7  and  N_8
REMARK    6  A    between atoms: N_8  and  C_9
REMARK    7  A    between atoms: C_12  and  C_13
REMARK    8  A    between atoms: C_13  and  C_14
REMARK    9  A    between atoms: N_19  and  C_20
REMARK   10  A    between atoms: C_23  and  C_24
REMARK   11  A    between atoms: C_24  and  C_25
REMARK   12  A    between atoms: C_28  and  C_29
REMARK   13  A    between atoms: C_29  and  O_31
REMARK   14  A    between atoms: O_31  and  C_32
REMARK   15  A    between atoms: C_32  and  C_33
REMARK                            x       y       z     vdW  Elec       q    Type
REMARK                         _______ _______ _______ _____ _____    ______ ____
ROOT
ATOM      1  C   UNL     1       4.209   4.788  18.915  0.00  0.00    +0.000 C 
ATOM      2  C   UNL     1       4.911   5.551  18.069  0.00  0.00    +0.000 C 
ATOM      3  C   UNL     1       4.171   6.845  18.000  0.00  0.00    +0.000 C 
ATOM      4  O   UNL     1       4.567   7.769  17.308  0.00  0.00    +0.000 OA
ATOM      5  N   UNL     1       3.097   6.769  18.881  0.00  0.00    +0.000 N 
ATOM      6  C   UNL     1       2.968   5.433  19.430  0.00  0.00    +0.000 C 
ENDROOT
BRANCH   5   7
ATOM      7  C   UNL     1       2.208   7.835  19.180  0.00  0.00    +0.000 A 
ATOM      8  C   UNL     1       1.701   7.994  20.476  0.00  0.00    +0.000 A 
ATOM      9  C   UNL     1       0.770   8.993  20.767  0.00  0.00    +0.000 A 
ATOM     10  C   UNL     1       0.294   9.845  19.770  0.00  0.00    +0.000 A 
ATOM     11  C   UNL     1       0.821   9.713  18.479  0.00  0.00    +0.000 A 
ATOM     12  C   UNL     1       1.780   8.731  18.191  0.00  0.00    +0.000 A 
BRANCH  10  13
ATOM     13  C   UNL     1      -0.765  10.863  20.084  0.00  0.00    +0.000 C 
ATOM     14  C   UNL     1      -0.722  11.324  21.533  0.00  0.00    +0.000 C 
ENDBRANCH  10  13
ENDBRANCH   5   7
BRANCH   1  15
ATOM     15  C   UNL     1       4.556   3.436  19.355  0.00  0.00    +0.000 C 
ATOM     16  O   UNL     1       4.978   3.193  20.474  0.00  0.00    +0.000 OA
BRANCH  15  17
ATOM     17  O   UNL     1       4.424   2.565  18.333  0.00  0.00    +0.000 OA
BRANCH  17  19
ATOM     18  C   UNL     1       2.265   1.610  17.895  0.00  0.00    +0.000 C 
ATOM     19  C   UNL     1       3.620   1.401  18.536  0.00  0.00    +0.000 C 
ENDBRANCH  17  19
ENDBRANCH  15  17
ENDBRANCH   1  15
BRANCH   2  20
ATOM     20  N   UNL     1       6.086   5.375  17.367  0.00  0.00    +0.000 N 
ATOM     21  H   UNL     1       6.657   6.224  17.438  0.00  0.00    +0.000 HD
BRANCH  20  22
ATOM     22  C   UNL     1       6.085   4.952  16.012  0.00  0.00    +0.000 A 
ATOM     23  C   UNL     1       7.191   5.131  15.175  0.00  0.00    +0.000 A 
ATOM     24  C   UNL     1       7.198   4.612  13.879  0.00  0.00    +0.000 A 
ATOM     25  C   UNL     1       6.098   3.896  13.393  0.00  0.00    +0.000 A 
ATOM     26  C   UNL     1       4.992   3.706  14.231  0.00  0.00    +0.000 A 
ATOM     27  C   UNL     1       4.993   4.218  15.533  0.00  0.00    +0.000 A 
BRANCH  25  28
ATOM     28  C   UNL     1       6.137   3.303  12.008  0.00  0.00    +0.000 C 
ATOM     29  C   UNL     1       4.741   3.103  11.437  0.00  0.00    +0.000 C 
ENDBRANCH  25  28
ENDBRANCH  20  22
ENDBRANCH   2  20
BRANCH   6  30
ATOM     30  C   UNL     1       1.758   4.724  18.801  0.00  0.00    +0.000 C 
ATOM     31  O   UNL     1       1.493   4.724  17.603  0.00  0.00    +0.000 OA
BRANCH  30  32
ATOM     32  O   UNL     1       0.972   4.170  19.775  0.00  0.00    +0.000 OA
BRANCH  32  33
ATOM     33  C   UNL     1       1.573   4.084  21.078  0.00  0.00    +0.000 C 
ATOM     34  C   UNL     1       1.579   2.645  21.562  0.00  0.00    +0.000 C 
ENDBRANCH  32  33
ENDBRANCH  30  32
ENDBRANCH   6  30
TORSDOF 11
ENDMDL
MODEL 2
REMARK VINA RESULT:      -7.6      1.125      1.676
REMARK  Name = 
REMARK  15 active torsions:
REMARK  status: ('A' for Active; 'I' for Inactive)
REMARK    1  A    between atoms: C_1  and  C_2
REMARK    2  A    between atoms: C_2  and  O_3
REMARK    3  A    between atoms: O_3  and  C_4
REMARK    4  A    between atoms: C_4  and  C_6
REMARK    5  A    between atoms: C_7  and  N_8
REMARK    6  A    between atoms: N_8  and  C_9
REMARK    7  A    between atoms: C_12  and  C_13
REMARK    8  A    between atoms: C_13  and  C_14
REMARK    9  A    between atoms: N_19  and  C_20
REMARK   10  A    between atoms: C_23  and  C_24
REMARK   11  A    between atoms: C_24  and  C_25
REMARK   12  A    between atoms: C_28  and  C_29
REMARK   13  A    between atoms: C_29  and  O_31
REMARK   14  A    between atoms: O_31  and  C_32
REMARK   15  A    between atoms: C_32  and  C_33
REMARK                            x       y       z     vdW  Elec       q    Type
REMARK                         _______ _______ _______ _____ _____    ______ ____
ROOT
ATOM      1  C   UNL     1       4.143   3.932  18.718  0.00  0.00    +0.000 C 
ATOM      2  C   UNL     1       4.985   4.672  17.988  0.00  0.00    +0.000 C 
ATOM      3  C   UNL     1       4.382   6.036  17.951  0.00  0.00    +0.000 C 
ATOM      4  O   UNL     1       4.925   6.956  17.361  0.00  0.00    +0.000 OA
ATOM      5  N   UNL     1       3.233   6.015  18.734  0.00  0.00    +0.000 N 
ATOM      6  C   UNL     1       2.929   4.666  19.175  0.00  0.00    +0.000 C 
ENDROOT
BRANCH   5   7
ATOM      7  C   UNL     1       2.428   7.144  19.036  0.00  0.00    +0.000 A 
ATOM      8  C   UNL     1       2.118   8.082  18.043  0.00  0.00    +0.000 A 
ATOM      9  C   UNL     1       1.388   9.234  18.342  0.00  0.00    +0.000 A 
ATOM     10  C   UNL     1       0.970   9.501  19.647  0.00  0.00    +0.000 A 
ATOM     11  C   UNL     1       1.248   8.552  20.639  0.00  0.00    +0.000 A 
ATOM     12  C   UNL     1       1.953   7.378  20.334  0.00  0.00    +0.000 A 
BRANCH  10  13
ATOM     13  C   UNL     1       0.254  10.783  19.966  0.00  0.00    +0.000 C 
ATOM     14  C   UNL     1      -0.147  10.880  21.430  0.00  0.00    +0.000 C 
ENDBRANCH  10  13
ENDBRANCH   5   7
BRANCH   1  15
ATOM     15  C   UNL     1       4.319   2.527  19.087  0.00  0.00    +0.000 C 
ATOM     16  O   UNL     1       3.798   1.611  18.471  0.00  0.00    +0.000 OA
BRANCH  15  17
ATOM     17  O   UNL     1       5.043   2.430  20.222  0.00  0.00    +0.000 OA
BRANCH  17  19
ATOM     18  C   UNL     1       5.798   0.588  21.565  0.00  0.00    +0.000 C 
ATOM     19  C   UNL     1       4.630   1.484  21.209  0.00  0.00    +0.000 C 
ENDBRANCH  17  19
ENDBRANCH  15  17
ENDBRANCH   1  15
BRANCH   2  20
ATOM     20  N   UNL     1       6.195   4.422  17.372  0.00  0.00    +0.000 N 
ATOM     21  H   UNL     1       6.903   5.070  17.734  0.00  0.00    +0.000 HD
BRANCH  20  22
ATOM     22  C   UNL     1       6.313   4.377  15.958  0.00  0.00    +0.000 A 
ATOM     23  C   UNL     1       7.395   4.953  15.283  0.00  0.00    +0.000 A 
ATOM     24  C   UNL     1       7.536   4.803  13.902  0.00  0.00    +0.000 A 
ATOM     25  C   UNL     1       6.600   4.067  13.166  0.00  0.00    +0.000 A 
ATOM     26  C   UNL     1       5.521   3.481  13.839  0.00  0.00    +0.000 A 
ATOM     27  C   UNL     1       5.389   3.624  15.225  0.00  0.00    +0.000 A 
BRANCH  25  28
ATOM     28  C   UNL     1       6.789   3.876  11.683  0.00  0.00    +0.000 C 
ATOM     29  C   UNL     1       7.185   2.447  11.340  0.00  0.00    +0.000 C 
ENDBRANCH  25  28
ENDBRANCH  20  22
ENDBRANCH   2  20
BRANCH   6  30
ATOM     30  C   UNL     1       1.716   4.125  18.401  0.00  0.00    +0.000 C 
ATOM     31  O   UNL     1       1.508   4.314  17.207  0.00  0.00    +0.000 OA
BRANCH  30  32
ATOM     32  O   UNL     1       0.860   3.480  19.252  0.00  0.00    +0.000 OA
BRANCH  32  33
ATOM     33  C   UNL     1       0.961   3.858  20.634  0.00  0.00    +0.000 C 
ATOM     34  C   UNL     1       1.294   2.648  21.490  0.00  0.00    +0.000 C 
ENDBRANCH  32  33
ENDBRANCH  30  32
ENDBRANCH   6  30
TORSDOF 11
ENDMDL
MODEL 3
REMARK VINA RESULT:      -7.4      1.304      1.720
REMARK  Name = 
REMARK  15 active torsions:
REMARK  status: ('A' for Active; 'I' for Inactive)
REMARK    1  A    between atoms: C_1  and  C_2
REMARK    2  A    between atoms: C_2  and  O_3
REMARK    3  A    between atoms: O_3  and  C_4
REMARK    4  A    between atoms: C_4  and  C_6
REMARK    5  A    between atoms: C_7  and  N_8
REMARK    6  A    between atoms: N_8  and  C_9
REMARK    7  A    between atoms: C_12  and  C_13
REMARK    8  A    between atoms: C_13  and  C_14
REMARK    9  A    between atoms: N_19  and  C_20
REMARK   10  A    between atoms: C_23  and  C_24
REMARK   11  A    between atoms: C_24  and  C_25
REMARK   12  A    between atoms: C_28  and  C_29
REMARK   13  A    between atoms: C_29  and  O_31
REMARK   14  A    between atoms: O_31  and  C_32
REMARK   15  A    between atoms: C_32  and  C_33
REMARK                            x       y       z     vdW  Elec       q    Type
REMARK                         _______ _______ _______ _____ _____    ______ ____
ROOT
ATOM      1  C   UNL     1       4.141   3.806  18.788  0.00  0.00    +0.000 C 
ATOM      2  C   UNL     1       5.015   4.464  18.018  0.00  0.00    +0.000 C 
ATOM      3  C   UNL     1       4.481   5.853  17.915  0.00  0.00    +0.000 C 
ATOM      4  O   UNL     1       5.066   6.714  17.277  0.00  0.00    +0.000 OA
ATOM      5  N   UNL     1       3.337   5.930  18.701  0.00  0.00    +0.000 N 
ATOM      6  C   UNL     1       2.967   4.623  19.211  0.00  0.00    +0.000 C 
ENDROOT
BRANCH   5   7
ATOM      7  C   UNL     1       2.591   7.113  18.948  0.00  0.00    +0.000 A 
ATOM      8  C   UNL     1       2.081   7.378  20.225  0.00  0.00    +0.000 A 
ATOM      9  C   UNL     1       1.284   8.499  20.464  0.00  0.00    +0.000 A 
ATOM     10  C   UNL     1       0.949   9.376  19.431  0.00  0.00    +0.000 A 
ATOM     11  C   UNL     1       1.483   9.135  18.159  0.00  0.00    +0.000 A 
ATOM     12  C   UNL     1       2.310   8.027  17.924  0.00  0.00    +0.000 A 
BRANCH  10  13
ATOM     13  C   UNL     1       0.028  10.535  19.689  0.00  0.00    +0.000 C 
ATOM     14  C   UNL     1      -1.254  10.456  18.875  0.00  0.00    +0.000 C 
ENDBRANCH  10  13
ENDBRANCH   5   7
BRANCH   1  15
ATOM     15  C   UNL     1       4.248   2.414  19.227  0.00  0.00    +0.000 C 
ATOM     16  O   UNL     1       3.636   1.503  18.693  0.00  0.00    +0.000 OA
BRANCH  15  17
ATOM     17  O   UNL     1       5.026   2.331  20.327  0.00  0.00    +0.000 OA
BRANCH  17  19
ATOM     18  C   UNL     1       5.849   0.518  21.669  0.00  0.00    +0.000 C 
ATOM     19  C   UNL     1       4.660   1.398  21.345  0.00  0.00    +0.000 C 
ENDBRANCH  17  19
ENDBRANCH  15  17
ENDBRANCH   1  15
BRANCH   2  20
ATOM     20  N   UNL     1       6.207   4.122  17.412  0.00  0.00    +0.000 N 
ATOM     21  H   UNL     1       6.985   4.560  17.918  0.00  0.00    +0.000 HD
BRANCH  20  22
ATOM     22  C   UNL     1       6.415   4.315  16.022  0.00  0.00    +0.000 A 
ATOM     23  C   UNL     1       7.468   5.093  15.527  0.00  0.00    +0.000 A 
ATOM     24  C   UNL     1       7.708   5.180  14.155  0.00  0.00    +0.000 A 
ATOM     25  C   UNL     1       6.903   4.484  13.245  0.00  0.00    +0.000 A 
ATOM     26  C   UNL     1       5.854   3.697  13.736  0.00  0.00    +0.000 A 
ATOM     27  C   UNL     1       5.623   3.603  15.113  0.00  0.00    +0.000 A 
BRANCH  25  28
ATOM     28  C   UNL     1       7.201   4.551  11.769  0.00  0.00    +0.000 C 
ATOM     29  C   UNL     1       7.740   5.914  11.361  0.00  0.00    +0.000 C 
ENDBRANCH  25  28
ENDBRANCH  20  22
ENDBRANCH   2  20
BRANCH   6  30
ATOM     30  C   UNL     1       1.725   4.105  18.469  0.00  0.00    +0.000 C 
ATOM     31  O   UNL     1       1.524   4.237  17.266  0.00  0.00    +0.000 OA
BRANCH  30  32
ATOM     32  O   UNL     1       0.838   3.557  19.355  0.00  0.00    +0.000 OA
BRANCH  32  33
ATOM     33  C   UNL     1       1.066   3.878  20.737  0.00  0.00    +0.000 C 
ATOM     34  C   UNL     1       1.288   2.610  21.544  0.00  0.00    +0.000 C 
ENDBRANCH  32  33
ENDBRANCH  30  32
ENDBRANCH   6  30
TORSDOF 11
ENDMDL
MODEL 4
REMARK VINA RESULT:      -7.3      0.753      1.423
REMARK  Name = 
REMARK  15 active torsions:
REMARK  status: ('A' for Active; 'I' for Inactive)
REMARK    1  A    between atoms: C_1  and  C_2
REMARK    2  A    between atoms: C_2  and  O_3
REMARK    3  A    between atoms: O_3  and  C_4
REMARK    4  A    between atoms: C_4  and  C_6
REMARK    5  A    between atoms: C_7  and  N_8
REMARK    6  A    between atoms: N_8  and  C_9
REMARK    7  A    between atoms: C_12  and  C_13
REMARK    8  A    between atoms: C_13  and  C_14
REMARK    9  A    between atoms: N_19  and  C_20
REMARK   10  A    between atoms: C_23  and  C_24
REMARK   11  A    between atoms: C_24  and  C_25
REMARK   12  A    between atoms: C_28  and  C_29
REMARK   13  A    between atoms: C_29  and  O_31
REMARK   14  A    between atoms: O_31  and  C_32
REMARK   15  A    between atoms: C_32  and  C_33
REMARK                            x       y       z     vdW  Elec       q    Type
REMARK                         _______ _______ _______ _____ _____    ______ ____
ROOT
ATOM      1  C   UNL     1       4.463   5.568  18.700  0.00  0.00    +0.000 C 
ATOM      2  C   UNL     1       4.845   6.333  17.671  0.00  0.00    +0.000 C 
ATOM      3  C   UNL     1       3.836   7.429  17.598  0.00  0.00    +0.000 C 
ATOM      4  O   UNL     1       3.912   8.310  16.756  0.00  0.00    +0.000 OA
ATOM      5  N   UNL     1       2.947   7.262  18.654  0.00  0.00    +0.000 N 
ATOM      6  C   UNL     1       3.199   6.015  19.353  0.00  0.00    +0.000 C 
ENDROOT
BRANCH   5   7
ATOM      7  C   UNL     1       1.899   8.158  18.992  0.00  0.00    +0.000 A 
ATOM      8  C   UNL     1       1.305   8.960  18.009  0.00  0.00    +0.000 A 
ATOM      9  C   UNL     1       0.325   9.897  18.339  0.00  0.00    +0.000 A 
ATOM     10  C   UNL     1      -0.074  10.083  19.664  0.00  0.00    +0.000 A 
ATOM     11  C   UNL     1       0.491   9.262  20.647  0.00  0.00    +0.000 A 
ATOM     12  C   UNL     1       1.453   8.298  20.313  0.00  0.00    +0.000 A 
BRANCH  10  13
ATOM     13  C   UNL     1      -1.074  11.150  20.011  0.00  0.00    +0.000 C 
ATOM     14  C   UNL     1      -0.517  12.181  20.980  0.00  0.00    +0.000 C 
ENDBRANCH  10  13
ENDBRANCH   5   7
BRANCH   1  15
ATOM     15  C   UNL     1       5.161   4.388  19.210  0.00  0.00    +0.000 C 
ATOM     16  O   UNL     1       6.092   4.459  19.995  0.00  0.00    +0.000 OA
BRANCH  15  17
ATOM     17  O   UNL     1       4.681   3.272  18.622  0.00  0.00    +0.000 OA
BRANCH  17  19
ATOM     18  C   UNL     1       3.515   1.174  18.670  0.00  0.00    +0.000 C 
ATOM     19  C   UNL     1       4.365   2.153  19.451  0.00  0.00    +0.000 C 
ENDBRANCH  17  19
ENDBRANCH  15  17
ENDBRANCH   1  15
BRANCH   2  20
ATOM     20  N   UNL     1       5.913   6.302  16.797  0.00  0.00    +0.000 N 
ATOM     21  H   UNL     1       6.107   7.252  16.461  0.00  0.00    +0.000 HD
BRANCH  20  22
ATOM     22  C   UNL     1       5.936   5.422  15.684  0.00  0.00    +0.000 A 
ATOM     23  C   UNL     1       4.848   4.606  15.358  0.00  0.00    +0.000 A 
ATOM     24  C   UNL     1       4.861   3.828  14.198  0.00  0.00    +0.000 A 
ATOM     25  C   UNL     1       5.962   3.855  13.334  0.00  0.00    +0.000 A 
ATOM     26  C   UNL     1       7.050   4.678  13.652  0.00  0.00    +0.000 A 
ATOM     27  C   UNL     1       7.028   5.465  14.809  0.00  0.00    +0.000 A 
BRANCH  25  28
ATOM     28  C   UNL     1       5.944   3.044  12.064  0.00  0.00    +0.000 C 
ATOM     29  C   UNL     1       4.556   2.993  11.443  0.00  0.00    +0.000 C 
ENDBRANCH  25  28
ENDBRANCH  20  22
ENDBRANCH   2  20
BRANCH   6  30
ATOM     30  C   UNL     1       2.096   4.998  19.020  0.00  0.00    +0.000 C 
ATOM     31  O   UNL     1       1.855   4.572  17.895  0.00  0.00    +0.000 OA
BRANCH  30  32
ATOM     32  O   UNL     1       1.368   4.704  20.141  0.00  0.00    +0.000 OA
BRANCH  32  33
ATOM     33  C   UNL     1       1.004   3.323  20.297  0.00  0.00    +0.000 C 
ATOM     34  C   UNL     1       1.519   2.787  21.621  0.00  0.00    +0.000 C 
ENDBRANCH  32  33
ENDBRANCH  30  32
ENDBRANCH   6  30
TORSDOF 11
ENDMDL
MODEL 5
REMARK VINA RESULT:      -7.2      1.205      2.270
REMARK  Name = 
REMARK  15 active torsions:
REMARK  status: ('A' for Active; 'I' for Inactive)
REMARK    1  A    between atoms: C_1  and  C_2
REMARK    2  A    between atoms: C_2  and  O_3
REMARK    3  A    between atoms: O_3  and  C_4
REMARK    4  A    between atoms: C_4  and  C_6
REMARK    5  A    between atoms: C_7  and  N_8
REMARK    6  A    between atoms: N_8  and  C_9
REMARK    7  A    between atoms: C_12  and  C_13
REMARK    8  A    between atoms: C_13  and  C_14
REMARK    9  A    between atoms: N_19  and  C_20
REMARK   10  A    between atoms: C_23  and  C_24
REMARK   11  A    between atoms: C_24  and  C_25
REMARK   12  A    between atoms: C_28  and  C_29
REMARK   13  A    between atoms: C_29  and  O_31
REMARK   14  A    between atoms: O_31  and  C_32
REMARK   15  A    between atoms: C_32  and  C_33
REMARK                            x       y       z     vdW  Elec       q    Type
REMARK                         _______ _______ _______ _____ _____    ______ ____
ROOT
ATOM      1  C   UNL     1       4.860   5.473  18.480  0.00  0.00    +0.000 C 
ATOM      2  C   UNL     1       5.116   6.207  17.391  0.00  0.00    +0.000 C 
ATOM      3  C   UNL     1       4.052   7.253  17.363  0.00  0.00    +0.000 C 
ATOM      4  O   UNL     1       4.013   8.097  16.482  0.00  0.00    +0.000 OA
ATOM      5  N   UNL     1       3.266   7.093  18.499  0.00  0.00    +0.000 N 
ATOM      6  C   UNL     1       3.637   5.892  19.223  0.00  0.00    +0.000 C 
ENDROOT
BRANCH   5   7
ATOM      7  C   UNL     1       2.209   7.956  18.891  0.00  0.00    +0.000 A 
ATOM      8  C   UNL     1       1.601   8.805  17.957  0.00  0.00    +0.000 A 
ATOM      9  C   UNL     1       0.611   9.709  18.343  0.00  0.00    +0.000 A 
ATOM     10  C   UNL     1       0.215   9.815  19.678  0.00  0.00    +0.000 A 
ATOM     11  C   UNL     1       0.795   8.947  20.611  0.00  0.00    +0.000 A 
ATOM     12  C   UNL     1       1.767   8.015  20.219  0.00  0.00    +0.000 A 
BRANCH  10  13
ATOM     13  C   UNL     1      -0.796  10.848  20.088  0.00  0.00    +0.000 C 
ATOM     14  C   UNL     1      -0.565  11.364  21.500  0.00  0.00    +0.000 C 
ENDBRANCH  10  13
ENDBRANCH   5   7
BRANCH   1  15
ATOM     15  C   UNL     1       5.656   4.349  18.975  0.00  0.00    +0.000 C 
ATOM     16  O   UNL     1       5.159   3.374  19.517  0.00  0.00    +0.000 OA
BRANCH  15  17
ATOM     17  O   UNL     1       6.972   4.605  18.821  0.00  0.00    +0.000 OA
BRANCH  17  19
ATOM     18  C   UNL     1       8.252   6.631  18.960  0.00  0.00    +0.000 C 
ATOM     19  C   UNL     1       7.597   5.508  19.735  0.00  0.00    +0.000 C 
ENDBRANCH  17  19
ENDBRANCH  15  17
ENDBRANCH   1  15
BRANCH   2  20
ATOM     20  N   UNL     1       6.105   6.185  16.429  0.00  0.00    +0.000 N 
ATOM     21  H   UNL     1       6.235   7.129  16.052  0.00  0.00    +0.000 HD
BRANCH  20  22
ATOM     22  C   UNL     1       6.064   5.272  15.343  0.00  0.00    +0.000 A 
ATOM     23  C   UNL     1       4.970   4.429  15.120  0.00  0.00    +0.000 A 
ATOM     24  C   UNL     1       4.914   3.618  13.986  0.00  0.00    +0.000 A 
ATOM     25  C   UNL     1       5.950   3.635  13.045  0.00  0.00    +0.000 A 
ATOM     26  C   UNL     1       7.043   4.484  13.259  0.00  0.00    +0.000 A 
ATOM     27  C   UNL     1       7.090   5.305  14.392  0.00  0.00    +0.000 A 
BRANCH  25  28
ATOM     28  C   UNL     1       5.856   2.787  11.803  0.00  0.00    +0.000 C 
ATOM     29  C   UNL     1       4.482   2.878  11.155  0.00  0.00    +0.000 C 
ENDBRANCH  25  28
ENDBRANCH  20  22
ENDBRANCH   2  20
BRANCH   6  30
ATOM     30  C   UNL     1       2.561   4.812  19.030  0.00  0.00    +0.000 C 
ATOM     31  O   UNL     1       2.146   4.425  17.942  0.00  0.00    +0.000 OA
BRANCH  30  32
ATOM     32  O   UNL     1       2.069   4.409  20.242  0.00  0.00    +0.000 OA
BRANCH  32  33
ATOM     33  C   UNL     1       1.525   3.080  20.277  0.00  0.00    +0.000 C 
ATOM     34  C   UNL     1       1.483   2.564  21.705  0.00  0.00    +0.000 C 
ENDBRANCH  32  33
ENDBRANCH  30  32
ENDBRANCH   6  30
TORSDOF 11
ENDMDL
MODEL 6
REMARK VINA RESULT:      -7.1      0.811      1.274
REMARK  Name = 
REMARK  15 active torsions:
REMARK  status: ('A' for Active; 'I' for Inactive)
REMARK    1  A    between atoms: C_1  and  C_2
REMARK    2  A    between atoms: C_2  and  O_3
REMARK    3  A    between atoms: O_3  and  C_4
REMARK    4  A    between atoms: C_4  and  C_6
REMARK    5  A    between atoms: C_7  and  N_8
REMARK    6  A    between atoms: N_8  and  C_9
REMARK    7  A    between atoms: C_12  and  C_13
REMARK    8  A    between atoms: C_13  and  C_14
REMARK    9  A    between atoms: N_19  and  C_20
REMARK   10  A    between atoms: C_23  and  C_24
REMARK   11  A    between atoms: C_24  and  C_25
REMARK   12  A    between atoms: C_28  and  C_29
REMARK   13  A    between atoms: C_29  and  O_31
REMARK   14  A    between atoms: O_31  and  C_32
REMARK   15  A    between atoms: C_32  and  C_33
REMARK                            x       y       z     vdW  Elec       q    Type
REMARK                         _______ _______ _______ _____ _____    ______ ____
ROOT
ATOM      1  C   UNL     1       4.533   5.377  18.635  0.00  0.00    +0.000 C 
ATOM      2  C   UNL     1       4.959   6.128  17.612  0.00  0.00    +0.000 C 
ATOM      3  C   UNL     1       3.987   7.256  17.520  0.00  0.00    +0.000 C 
ATOM      4  O   UNL     1       4.107   8.132  16.679  0.00  0.00    +0.000 OA
ATOM      5  N   UNL     1       3.074   7.118  18.560  0.00  0.00    +0.000 N 
ATOM      6  C   UNL     1       3.273   5.865  19.265  0.00  0.00    +0.000 C 
ENDROOT
BRANCH   5   7
ATOM      7  C   UNL     1       2.049   8.048  18.878  0.00  0.00    +0.000 A 
ATOM      8  C   UNL     1       1.461   8.828  17.874  0.00  0.00    +0.000 A 
ATOM      9  C   UNL     1       0.505   9.797  18.182  0.00  0.00    +0.000 A 
ATOM     10  C   UNL     1       0.126  10.038  19.504  0.00  0.00    +0.000 A 
ATOM     11  C   UNL     1       0.685   9.239  20.509  0.00  0.00    +0.000 A 
ATOM     12  C   UNL     1       1.623   8.244  20.198  0.00  0.00    +0.000 A 
BRANCH  10  13
ATOM     13  C   UNL     1      -0.847  11.137  19.824  0.00  0.00    +0.000 C 
ATOM     14  C   UNL     1      -0.300  12.123  20.844  0.00  0.00    +0.000 C 
ENDBRANCH  10  13
ENDBRANCH   5   7
BRANCH   1  15
ATOM     15  C   UNL     1       5.184   4.175  19.159  0.00  0.00    +0.000 C 
ATOM     16  O   UNL     1       6.358   3.915  18.952  0.00  0.00    +0.000 OA
BRANCH  15  17
ATOM     17  O   UNL     1       4.284   3.400  19.799  0.00  0.00    +0.000 OA
BRANCH  17  19
ATOM     18  C   UNL     1       3.668   1.474  18.502  0.00  0.00    +0.000 C 
ATOM     19  C   UNL     1       4.429   1.981  19.709  0.00  0.00    +0.000 C 
ENDBRANCH  17  19
ENDBRANCH  15  17
ENDBRANCH   1  15
BRANCH   2  20
ATOM     20  N   UNL     1       6.042   6.061  16.759  0.00  0.00    +0.000 N 
ATOM     21  H   UNL     1       6.383   7.009  16.565  0.00  0.00    +0.000 HD
BRANCH  20  22
ATOM     22  C   UNL     1       5.976   5.352  15.531  0.00  0.00    +0.000 A 
ATOM     23  C   UNL     1       7.014   5.389  14.594  0.00  0.00    +0.000 A 
ATOM     24  C   UNL     1       6.966   4.600  13.443  0.00  0.00    +0.000 A 
ATOM     25  C   UNL     1       5.880   3.749  13.208  0.00  0.00    +0.000 A 
ATOM     26  C   UNL     1       4.843   3.702  14.148  0.00  0.00    +0.000 A 
ATOM     27  C   UNL     1       4.900   4.486  15.306  0.00  0.00    +0.000 A 
BRANCH  25  28
ATOM     28  C   UNL     1       5.861   2.870  11.984  0.00  0.00    +0.000 C 
ATOM     29  C   UNL     1       7.266   2.520  11.515  0.00  0.00    +0.000 C 
ENDBRANCH  25  28
ENDBRANCH  20  22
ENDBRANCH   2  20
BRANCH   6  30
ATOM     30  C   UNL     1       2.144   4.883  18.912  0.00  0.00    +0.000 C 
ATOM     31  O   UNL     1       1.935   4.433  17.790  0.00  0.00    +0.000 OA
BRANCH  30  32
ATOM     32  O   UNL     1       1.356   4.653  20.007  0.00  0.00    +0.000 OA
BRANCH  32  33
ATOM     33  C   UNL     1       0.878   3.306  20.151  0.00  0.00    +0.000 C 
ATOM     34  C   UNL     1       1.298   2.738  21.496  0.00  0.00    +0.000 C 
ENDBRANCH  32  33
ENDBRANCH  30  32
ENDBRANCH   6  30
TORSDOF 11
ENDMDL
MODEL 7
REMARK VINA RESULT:      -7.0      1.386      2.266
REMARK  Name = 
REMARK  15 active torsions:
REMARK  status: ('A' for Active; 'I' for Inactive)
REMARK    1  A    between atoms: C_1  and  C_2
REMARK    2  A    between atoms: C_2  and  O_3
REMARK    3  A    between atoms: O_3  and  C_4
REMARK    4  A    between atoms: C_4  and  C_6
REMARK    5  A    between atoms: C_7  and  N_8
REMARK    6  A    between atoms: N_8  and  C_9
REMARK    7  A    between atoms: C_12  and  C_13
REMARK    8  A    between atoms: C_13  and  C_14
REMARK    9  A    between atoms: N_19  and  C_20
REMARK   10  A    between atoms: C_23  and  C_24
REMARK   11  A    between atoms: C_24  and  C_25
REMARK   12  A    between atoms: C_28  and  C_29
REMARK   13  A    between atoms: C_29  and  O_31
REMARK   14  A    between atoms: O_31  and  C_32
REMARK   15  A    between atoms: C_32  and  C_33
REMARK                            x       y       z     vdW  Elec       q    Type
REMARK                         _______ _______ _______ _____ _____    ______ ____
ROOT
ATOM      1  C   UNL     1       5.100   5.405  18.231  0.00  0.00    +0.000 C 
ATOM      2  C   UNL     1       5.312   6.112  17.115  0.00  0.00    +0.000 C 
ATOM      3  C   UNL     1       4.221   7.129  17.079  0.00  0.00    +0.000 C 
ATOM      4  O   UNL     1       4.141   7.944  16.174  0.00  0.00    +0.000 OA
ATOM      5  N   UNL     1       3.465   6.984  18.237  0.00  0.00    +0.000 N 
ATOM      6  C   UNL     1       3.883   5.816  18.989  0.00  0.00    +0.000 C 
ENDROOT
BRANCH   5   7
ATOM      7  C   UNL     1       2.394   7.831  18.626  0.00  0.00    +0.000 A 
ATOM      8  C   UNL     1       1.740   8.631  17.679  0.00  0.00    +0.000 A 
ATOM      9  C   UNL     1       0.735   9.521  18.060  0.00  0.00    +0.000 A 
ATOM     10  C   UNL     1       0.371   9.663  19.400  0.00  0.00    +0.000 A 
ATOM     11  C   UNL     1       0.997   8.844  20.347  0.00  0.00    +0.000 A 
ATOM     12  C   UNL     1       1.985   7.926  19.962  0.00  0.00    +0.000 A 
BRANCH  10  13
ATOM     13  C   UNL     1      -0.659  10.682  19.801  0.00  0.00    +0.000 C 
ATOM     14  C   UNL     1      -0.711  10.899  21.305  0.00  0.00    +0.000 C 
ENDBRANCH  10  13
ENDBRANCH   5   7
BRANCH   1  15
ATOM     15  C   UNL     1       5.936   4.318  18.742  0.00  0.00    +0.000 C 
ATOM     16  O   UNL     1       5.472   3.323  19.276  0.00  0.00    +0.000 OA
BRANCH  15  17
ATOM     17  O   UNL     1       7.241   4.632  18.611  0.00  0.00    +0.000 OA
BRANCH  17  19
ATOM     18  C   UNL     1       8.220   6.800  18.939  0.00  0.00    +0.000 C 
ATOM     19  C   UNL     1       7.833   5.489  19.589  0.00  0.00    +0.000 C 
ENDBRANCH  17  19
ENDBRANCH  15  17
ENDBRANCH   1  15
BRANCH   2  20
ATOM     20  N   UNL     1       6.281   6.085  16.132  0.00  0.00    +0.000 N 
ATOM     21  H   UNL     1       6.488   7.043  15.830  0.00  0.00    +0.000 HD
BRANCH  20  22
ATOM     22  C   UNL     1       6.142   5.274  14.975  0.00  0.00    +0.000 A 
ATOM     23  C   UNL     1       7.184   5.101  14.058  0.00  0.00    +0.000 A 
ATOM     24  C   UNL     1       7.052   4.216  12.986  0.00  0.00    +0.000 A 
ATOM     25  C   UNL     1       5.876   3.479  12.811  0.00  0.00    +0.000 A 
ATOM     26  C   UNL     1       4.833   3.642  13.732  0.00  0.00    +0.000 A 
ATOM     27  C   UNL     1       4.973   4.521  14.812  0.00  0.00    +0.000 A 
BRANCH  25  28
ATOM     28  C   UNL     1       5.764   2.495  11.675  0.00  0.00    +0.000 C 
ATOM     29  C   UNL     1       7.120   1.934  11.275  0.00  0.00    +0.000 C 
ENDBRANCH  25  28
ENDBRANCH  20  22
ENDBRANCH   2  20
BRANCH   6  30
ATOM     30  C   UNL     1       2.831   4.704  18.852  0.00  0.00    +0.000 C 
ATOM     31  O   UNL     1       2.500   4.181  17.793  0.00  0.00    +0.000 OA
BRANCH  30  32
ATOM     32  O   UNL     1       2.256   4.443  20.067  0.00  0.00    +0.000 OA
BRANCH  32  33
ATOM     33  C   UNL     1       2.505   3.133  20.600  0.00  0.00    +0.000 C 
ATOM     34  C   UNL     1       1.401   2.737  21.566  0.00  0.00    +0.000 C 
ENDBRANCH  32  33
ENDBRANCH  30  32
ENDBRANCH   6  30
TORSDOF 11
ENDMDL
MODEL 8
REMARK VINA RESULT:      -6.9      0.843      1.002
REMARK  Name = 
REMARK  15 active torsions:
REMARK  status: ('A' for Active; 'I' for Inactive)
REMARK    1  A    between atoms: C_1  and  C_2
REMARK    2  A    between atoms: C_2  and  O_3
REMARK    3  A    between atoms: O_3  and  C_4
REMARK    4  A    between atoms: C_4  and  C_6
REMARK    5  A    between atoms: C_7  and  N_8
REMARK    6  A    between atoms: N_8  and  C_9
REMARK    7  A    between atoms: C_12  and  C_13
REMARK    8  A    between atoms: C_13  and  C_14
REMARK    9  A    between atoms: N_19  and  C_20
REMARK   10  A    between atoms: C_23  and  C_24
REMARK   11  A    between atoms: C_24  and  C_25
REMARK   12  A    between atoms: C_28  and  C_29
REMARK   13  A    between atoms: C_29  and  O_31
REMARK   14  A    between atoms: O_31  and  C_32
REMARK   15  A    between atoms: C_32  and  C_33
REMARK                            x       y       z     vdW  Elec       q    Type
REMARK                         _______ _______ _______ _____ _____    ______ ____
ROOT
ATOM      1  C   UNL     1       3.957   4.666  19.459  0.00  0.00    +0.000 C 
ATOM      2  C   UNL     1       4.771   5.267  18.584  0.00  0.00    +0.000 C 
ATOM      3  C   UNL     1       4.124   6.576  18.280  0.00  0.00    +0.000 C 
ATOM      4  O   UNL     1       4.634   7.374  17.509  0.00  0.00    +0.000 OA
ATOM      5  N   UNL     1       2.981   6.680  19.064  0.00  0.00    +0.000 N 
ATOM      6  C   UNL     1       2.722   5.441  19.773  0.00  0.00    +0.000 C 
ENDROOT
BRANCH   5   7
ATOM      7  C   UNL     1       2.141   7.823  19.140  0.00  0.00    +0.000 A 
ATOM      8  C   UNL     1       1.614   8.237  20.370  0.00  0.00    +0.000 A 
ATOM      9  C   UNL     1       0.730   9.313  20.449  0.00  0.00    +0.000 A 
ATOM     10  C   UNL     1       0.321   9.993  19.300  0.00  0.00    +0.000 A 
ATOM     11  C   UNL     1       0.869   9.605  18.071  0.00  0.00    +0.000 A 
ATOM     12  C   UNL     1       1.783   8.544  17.994  0.00  0.00    +0.000 A 
BRANCH  10  13
ATOM     13  C   UNL     1      -0.692  11.100  19.394  0.00  0.00    +0.000 C 
ATOM     14  C   UNL     1      -1.887  10.878  18.481  0.00  0.00    +0.000 C 
ENDBRANCH  10  13
ENDBRANCH   5   7
BRANCH   1  15
ATOM     15  C   UNL     1       4.179   3.371  20.104  0.00  0.00    +0.000 C 
ATOM     16  O   UNL     1       3.853   3.142  21.257  0.00  0.00    +0.000 OA
BRANCH  15  17
ATOM     17  O   UNL     1       4.856   2.548  19.275  0.00  0.00    +0.000 OA
BRANCH  17  19
ATOM     18  C   UNL     1       3.350   1.726  17.596  0.00  0.00    +0.000 C 
ATOM     19  C   UNL     1       4.195   1.373  18.801  0.00  0.00    +0.000 C 
ENDBRANCH  17  19
ENDBRANCH  15  17
ENDBRANCH   1  15
BRANCH   2  20
ATOM     20  N   UNL     1       5.985   4.934  18.018  0.00  0.00    +0.000 N 
ATOM     21  H   UNL     1       6.702   5.596  18.334  0.00  0.00    +0.000 HD
BRANCH  20  22
ATOM     22  C   UNL     1       6.127   4.758  16.617  0.00  0.00    +0.000 A 
ATOM     23  C   UNL     1       7.304   5.093  15.940  0.00  0.00    +0.000 A 
ATOM     24  C   UNL     1       7.451   4.813  14.580  0.00  0.00    +0.000 A 
ATOM     25  C   UNL     1       6.423   4.184  13.867  0.00  0.00    +0.000 A 
ATOM     26  C   UNL     1       5.246   3.839  14.543  0.00  0.00    +0.000 A 
ATOM     27  C   UNL     1       5.107   4.111  15.909  0.00  0.00    +0.000 A 
BRANCH  25  28
ATOM     28  C   UNL     1       6.612   3.848  12.410  0.00  0.00    +0.000 C 
ATOM     29  C   UNL     1       5.451   3.031  11.861  0.00  0.00    +0.000 C 
ENDBRANCH  25  28
ENDBRANCH  20  22
ENDBRANCH   2  20
BRANCH   6  30
ATOM     30  C   UNL     1       1.523   4.717  19.139  0.00  0.00    +0.000 C 
ATOM     31  O   UNL     1       1.326   4.617  17.932  0.00  0.00    +0.000 OA
BRANCH  30  32
ATOM     32  O   UNL     1       0.665   4.280  20.111  0.00  0.00    +0.000 OA
BRANCH  32  33
ATOM     33  C   UNL     1       0.783   2.891  20.460  0.00  0.00    +0.000 C 
ATOM     34  C   UNL     1       0.478   2.016  19.256  0.00  0.00    +0.000 C 
ENDBRANCH  32  33
ENDBRANCH  30  32
ENDBRANCH   6  30
TORSDOF 11
ENDMDL
MODEL 9
REMARK VINA RESULT:      -6.7      1.402      2.413
REMARK  Name = 
REMARK  15 active torsions:
REMARK  status: ('A' for Active; 'I' for Inactive)
REMARK    1  A    between atoms: C_1  and  C_2
REMARK    2  A    between atoms: C_2  and  O_3
REMARK    3  A    between atoms: O_3  and  C_4
REMARK    4  A    between atoms: C_4  and  C_6
REMARK    5  A    between atoms: C_7  and  N_8
REMARK    6  A    between atoms: N_8  and  C_9
REMARK    7  A    between atoms: C_12  and  C_13
REMARK    8  A    between atoms: C_13  and  C_14
REMARK    9  A    between atoms: N_19  and  C_20
REMARK   10  A    between atoms: C_23  and  C_24
REMARK   11  A    between atoms: C_24  and  C_25
REMARK   12  A    between atoms: C_28  and  C_29
REMARK   13  A    between atoms: C_29  and  O_31
REMARK   14  A    between atoms: O_31  and  C_32
REMARK   15  A    between atoms: C_32  and  C_33
REMARK                            x       y       z     vdW  Elec       q    Type
REMARK                         _______ _______ _______ _____ _____    ______ ____
ROOT
ATOM      1  C   UNL     1       3.822   4.079  20.085  0.00  0.00    +0.000 C 
ATOM      2  C   UNL     1       4.682   4.557  19.178  0.00  0.00    +0.000 C 
ATOM      3  C   UNL     1       4.130   5.883  18.772  0.00  0.00    +0.000 C 
ATOM      4  O   UNL     1       4.699   6.585  17.951  0.00  0.00    +0.000 OA
ATOM      5  N   UNL     1       2.992   6.122  19.534  0.00  0.00    +0.000 N 
ATOM      6  C   UNL     1       2.643   4.959  20.328  0.00  0.00    +0.000 C 
ENDROOT
BRANCH   5   7
ATOM      7  C   UNL     1       2.234   7.323  19.519  0.00  0.00    +0.000 A 
ATOM      8  C   UNL     1       2.104   8.066  18.339  0.00  0.00    +0.000 A 
ATOM      9  C   UNL     1       1.424   9.285  18.326  0.00  0.00    +0.000 A 
ATOM     10  C   UNL     1       0.876   9.814  19.496  0.00  0.00    +0.000 A 
ATOM     11  C   UNL     1       0.974   9.061  20.672  0.00  0.00    +0.000 A 
ATOM     12  C   UNL     1       1.630   7.821  20.680  0.00  0.00    +0.000 A 
BRANCH  10  13
ATOM     13  C   UNL     1       0.215  11.163  19.480  0.00  0.00    +0.000 C 
ATOM     14  C   UNL     1      -1.205  11.112  18.938  0.00  0.00    +0.000 C 
ENDBRANCH  10  13
ENDBRANCH   5   7
BRANCH   1  15
ATOM     15  C   UNL     1       3.950   2.823  20.823  0.00  0.00    +0.000 C 
ATOM     16  O   UNL     1       3.143   2.466  21.667  0.00  0.00    +0.000 OA
BRANCH  15  17
ATOM     17  O   UNL     1       5.103   2.203  20.494  0.00  0.00    +0.000 OA
BRANCH  17  19
ATOM     18  C   UNL     1       5.929   0.456  21.919  0.00  0.00    +0.000 C 
ATOM     19  C   UNL     1       5.176   0.785  20.647  0.00  0.00    +0.000 C 
ENDBRANCH  17  19
ENDBRANCH  15  17
ENDBRANCH   1  15
BRANCH   2  20
ATOM     20  N   UNL     1       5.873   4.101  18.650  0.00  0.00    +0.000 N 
ATOM     21  H   UNL     1       6.656   4.557  19.129  0.00  0.00    +0.000 HD
BRANCH  20  22
ATOM     22  C   UNL     1       6.126   4.131  17.254  0.00  0.00    +0.000 A 
ATOM     23  C   UNL     1       5.181   3.699  16.316  0.00  0.00    +0.000 A 
ATOM     24  C   UNL     1       5.419   3.837  14.948  0.00  0.00    +0.000 A 
ATOM     25  C   UNL     1       6.605   4.418  14.485  0.00  0.00    +0.000 A 
ATOM     26  C   UNL     1       7.550   4.860  15.420  0.00  0.00    +0.000 A 
ATOM     27  C   UNL     1       7.304   4.730  16.791  0.00  0.00    +0.000 A 
BRANCH  25  28
ATOM     28  C   UNL     1       6.829   4.601  13.006  0.00  0.00    +0.000 C 
ATOM     29  C   UNL     1       8.044   5.471  12.719  0.00  0.00    +0.000 C 
ENDBRANCH  25  28
ENDBRANCH  20  22
ENDBRANCH   2  20
BRANCH   6  30
ATOM     30  C   UNL     1       1.400   4.276  19.735  0.00  0.00    +0.000 C 
ATOM     31  O   UNL     1       0.378   4.019  20.362  0.00  0.00    +0.000 OA
BRANCH  30  32
ATOM     32  O   UNL     1       1.631   3.919  18.434  0.00  0.00    +0.000 OA
BRANCH  32  33
ATOM     33  C   UNL     1       1.341   2.549  18.109  0.00  0.00    +0.000 C 
ATOM     34  C   UNL     1       2.611   1.824  17.700  0.00  0.00    +0.000 C 
ENDBRANCH  32  33
ENDBRANCH  30  32
ENDBRANCH   6  30
TORSDOF 11
ENDMDL
