MODEL 1
REMARK VINA RESULT:      -8.0      0.000      0.000
REMARK  Name = 
REMARK  4 active torsions:
REMARK  status: ('A' for Active; 'I' for Inactive)
REMARK    1  A    between atoms: C_1  and  O_2
REMARK    2  A    between atoms: O_2  and  C_3
REMARK    3  A    between atoms: C_5  and  O_6
REMARK    4  A    between atoms: O_6  and  C_7
REMARK                            x       y       z     vdW  Elec       q    Type
REMARK                         _______ _______ _______ _____ _____    ______ ____
ROOT
ATOM      1  C   UNL     1       5.310   4.246  15.992  0.00  0.00    +0.000 A 
ATOM      2  C   UNL     1       6.536   4.546  16.516  0.00  0.00    +0.000 A 
ATOM      3  C   UNL     1       6.619   4.393  17.871  0.00  0.00    +0.000 A 
ATOM      4  N   UNL     1       5.592   3.999  18.641  0.00  0.00    +0.000 NA
ATOM      5  C   UNL     1       4.426   3.716  18.050  0.00  0.00    +0.000 A 
ATOM      6  N   UNL     1       3.319   3.301  18.852  0.00  0.00    +0.000 N 
ATOM      7  C   UNL     1       2.033   3.428  18.305  0.00  0.00    +0.000 C 
ATOM      8  O   UNL     1       1.733   3.951  17.231  0.00  0.00    +0.000 OA
ATOM      9  C   UNL     1       0.904   2.878  19.139  0.00  0.00    +0.000 C 
ATOM     10  C   UNL     1       1.150   3.155  20.598  0.00  0.00    +0.000 C 
ATOM     11  C   UNL     1       2.411   2.433  20.996  0.00  0.00    +0.000 C 
ATOM     12  C   UNL     1       3.598   2.798  20.131  0.00  0.00    +0.000 C 
ATOM     13  O   UNL     1       4.711   2.520  20.587  0.00  0.00    +0.000 OA
ATOM     14  N   UNL     1       4.270   3.826  16.727  0.00  0.00    +0.000 NA
ENDROOT
BRANCH   1  16
ATOM     15  C   UNL     1       6.305   3.997  13.893  0.00  0.00    +0.000 C 
ATOM     16  O   UNL     1       5.147   4.397  14.629  0.00  0.00    +0.000 OA
ENDBRANCH   1  16
BRANCH   3  17
ATOM     17  O   UNL     1       7.831   4.677  18.469  0.00  0.00    +0.000 OA
ATOM     18  C   UNL     1       7.879   6.001  19.005  0.00  0.00    +0.000 C 
ENDBRANCH   3  17
TORSDOF 2
ENDMDL
MODEL 2
REMARK VINA RESULT:      -7.4      0.347      3.364
REMARK  Name = 
REMARK  4 active torsions:
REMARK  status: ('A' for Active; 'I' for Inactive)
REMARK    1  A    between atoms: C_1  and  O_2
REMARK    2  A    between atoms: O_2  and  C_3
REMARK    3  A    between atoms: C_5  and  O_6
REMARK    4  A    between atoms: O_6  and  C_7
REMARK                            x       y       z     vdW  Elec       q    Type
REMARK                         _______ _______ _______ _____ _____    ______ ____
ROOT
ATOM      1  C   UNL     1       6.707   4.421  17.727  0.00  0.00    +0.000 A 
ATOM      2  C   UNL     1       6.616   4.547  16.369  0.00  0.00    +0.000 A 
ATOM      3  C   UNL     1       5.372   4.291  15.864  0.00  0.00    +0.000 A 
ATOM      4  N   UNL     1       4.321   3.931  16.618  0.00  0.00    +0.000 NA
ATOM      5  C   UNL     1       4.490   3.838  17.942  0.00  0.00    +0.000 A 
ATOM      6  N   UNL     1       3.386   3.451  18.762  0.00  0.00    +0.000 N 
ATOM      7  C   UNL     1       3.669   2.947  20.040  0.00  0.00    +0.000 C 
ATOM      8  O   UNL     1       4.780   2.707  20.514  0.00  0.00    +0.000 OA
ATOM      9  C   UNL     1       2.474   2.653  20.913  0.00  0.00    +0.000 C 
ATOM     10  C   UNL     1       1.356   2.075  20.087  0.00  0.00    +0.000 C 
ATOM     11  C   UNL     1       0.944   3.116  19.078  0.00  0.00    +0.000 C 
ATOM     12  C   UNL     1       2.098   3.601  18.227  0.00  0.00    +0.000 C 
ATOM     13  O   UNL     1       1.798   4.184  17.181  0.00  0.00    +0.000 OA
ATOM     14  N   UNL     1       5.672   4.088  18.513  0.00  0.00    +0.000 NA
ENDROOT
BRANCH   1  16
ATOM     15  C   UNL     1       7.924   5.747  19.215  0.00  0.00    +0.000 C 
ATOM     16  O   UNL     1       7.941   4.646  18.305  0.00  0.00    +0.000 OA
ENDBRANCH   1  16
BRANCH   3  17
ATOM     17  O   UNL     1       5.207   4.400  14.497  0.00  0.00    +0.000 OA
ATOM     18  C   UNL     1       6.373   4.001  13.773  0.00  0.00    +0.000 C 
ENDBRANCH   3  17
TORSDOF 2
ENDMDL
MODEL 3
REMARK VINA RESULT:      -7.2      1.770      3.137
REMARK  Name = 
REMARK  4 active torsions:
REMARK  status: ('A' for Active; 'I' for Inactive)
REMARK    1  A    between atoms: C_1  and  O_2
REMARK    2  A    between atoms: O_2  and  C_3
REMARK    3  A    between atoms: C_5  and  O_6
REMARK    4  A    between atoms: O_6  and  C_7
REMARK                            x       y       z     vdW  Elec       q    Type
REMARK                         _______ _______ _______ _____ _____    ______ ____
ROOT
ATOM      1  C   UNL     1       5.545   6.287  17.070  0.00  0.00    +0.000 A 
ATOM      2  C   UNL     1       6.106   5.470  16.129  0.00  0.00    +0.000 A 
ATOM      3  C   UNL     1       5.503   4.249  16.016  0.00  0.00    +0.000 A 
ATOM      4  N   UNL     1       4.459   3.860  16.765  0.00  0.00    +0.000 NA
ATOM      5  C   UNL     1       3.961   4.722  17.658  0.00  0.00    +0.000 A 
ATOM      6  N   UNL     1       2.853   4.326  18.469  0.00  0.00    +0.000 N 
ATOM      7  C   UNL     1       2.629   5.037  19.658  0.00  0.00    +0.000 C 
ATOM      8  O   UNL     1       3.341   5.918  20.141  0.00  0.00    +0.000 OA
ATOM      9  C   UNL     1       1.388   4.660  20.428  0.00  0.00    +0.000 C 
ATOM     10  C   UNL     1       1.171   3.171  20.367  0.00  0.00    +0.000 C 
ATOM     11  C   UNL     1       0.949   2.797  18.925  0.00  0.00    +0.000 C 
ATOM     12  C   UNL     1       2.072   3.253  18.018  0.00  0.00    +0.000 C 
ATOM     13  O   UNL     1       2.135   2.709  16.912  0.00  0.00    +0.000 OA
ATOM     14  N   UNL     1       4.486   5.941  17.817  0.00  0.00    +0.000 NA
ENDROOT
BRANCH   1  16
ATOM     15  C   UNL     1       7.505   7.451  17.578  0.00  0.00    +0.000 C 
ATOM     16  O   UNL     1       6.115   7.531  17.254  0.00  0.00    +0.000 OA
ENDBRANCH   1  16
BRANCH   3  17
ATOM     17  O   UNL     1       6.019   3.372  15.082  0.00  0.00    +0.000 OA
ATOM     18  C   UNL     1       6.348   4.016  13.849  0.00  0.00    +0.000 C 
ENDBRANCH   3  17
TORSDOF 2
ENDMDL
MODEL 4
REMARK VINA RESULT:      -6.9      1.625      3.466
REMARK  Name = 
REMARK  4 active torsions:
REMARK  status: ('A' for Active; 'I' for Inactive)
REMARK    1  A    between atoms: C_1  and  O_2
REMARK    2  A    between atoms: O_2  and  C_3
REMARK    3  A    between atoms: C_5  and  O_6
REMARK    4  A    between atoms: O_6  and  C_7
REMARK                            x       y       z     vdW  Elec       q    Type
REMARK                         _______ _______ _______ _____ _____    ______ ____
ROOT
ATOM      1  C   UNL     1       6.663   5.808  16.518  0.00  0.00    +0.000 A 
ATOM      2  C   UNL     1       6.826   5.038  15.401  0.00  0.00    +0.000 A 
ATOM      3  C   UNL     1       5.876   4.068  15.245  0.00  0.00    +0.000 A 
ATOM      4  N   UNL     1       4.872   3.863  16.112  0.00  0.00    +0.000 NA
ATOM      5  C   UNL     1       4.776   4.666  17.178  0.00  0.00    +0.000 A 
ATOM      6  N   UNL     1       3.717   4.461  18.115  0.00  0.00    +0.000 N 
ATOM      7  C   UNL     1       3.874   4.997  19.402  0.00  0.00    +0.000 C 
ATOM      8  O   UNL     1       4.874   5.553  19.858  0.00  0.00    +0.000 OA
ATOM      9  C   UNL     1       2.691   4.853  20.325  0.00  0.00    +0.000 C 
ATOM     10  C   UNL     1       2.032   3.514  20.122  0.00  0.00    +0.000 C 
ATOM     11  C   UNL     1       1.521   3.463  18.706  0.00  0.00    +0.000 C 
ATOM     12  C   UNL     1       2.599   3.737  17.680  0.00  0.00    +0.000 C 
ATOM     13  O   UNL     1       2.350   3.390  16.522  0.00  0.00    +0.000 OA
ATOM     14  N   UNL     1       5.657   5.648  17.390  0.00  0.00    +0.000 NA
ENDROOT
BRANCH   1  16
ATOM     15  C   UNL     1       7.819   7.024  18.144  0.00  0.00    +0.000 C 
ATOM     16  O   UNL     1       7.598   6.798  16.750  0.00  0.00    +0.000 OA
ENDBRANCH   1  16
BRANCH   3  17
ATOM     17  O   UNL     1       5.978   3.252  14.136  0.00  0.00    +0.000 OA
ATOM     18  C   UNL     1       6.502   3.940  12.998  0.00  0.00    +0.000 C 
ENDBRANCH   3  17
TORSDOF 2
ENDMDL
MODEL 5
REMARK VINA RESULT:      -6.9      1.806      1.807
REMARK  Name = 
REMARK  4 active torsions:
REMARK  status: ('A' for Active; 'I' for Inactive)
REMARK    1  A    between atoms: C_1  and  O_2
REMARK    2  A    between atoms: O_2  and  C_3
REMARK    3  A    between atoms: C_5  and  O_6
REMARK    4  A    between atoms: O_6  and  C_7
REMARK                            x       y       z     vdW  Elec       q    Type
REMARK                         _______ _______ _______ _____ _____    ______ ____
ROOT
ATOM      1  C   UNL     1       5.613   4.153  15.807  0.00  0.00    +0.000 A 
ATOM      2  C   UNL     1       6.165   5.402  15.859  0.00  0.00    +0.000 A 
ATOM      3  C   UNL     1       5.657   6.199  16.846  0.00  0.00    +0.000 A 
ATOM      4  N   UNL     1       4.688   5.813  17.690  0.00  0.00    +0.000 NA
ATOM      5  C   UNL     1       4.204   4.571  17.580  0.00  0.00    +0.000 A 
ATOM      6  N   UNL     1       3.168   4.142  18.465  0.00  0.00    +0.000 N 
ATOM      7  C   UNL     1       2.392   3.041  18.075  0.00  0.00    +0.000 C 
ATOM      8  O   UNL     1       2.436   2.446  16.998  0.00  0.00    +0.000 OA
ATOM      9  C   UNL     1       1.383   2.554  19.085  0.00  0.00    +0.000 C 
ATOM     10  C   UNL     1       0.759   3.721  19.803  0.00  0.00    +0.000 C 
ATOM     11  C   UNL     1       1.853   4.438  20.552  0.00  0.00    +0.000 C 
ATOM     12  C   UNL     1       3.002   4.856  19.660  0.00  0.00    +0.000 C 
ATOM     13  O   UNL     1       3.758   5.720  20.114  0.00  0.00    +0.000 OA
ATOM     14  N   UNL     1       4.662   3.726  16.651  0.00  0.00    +0.000 NA
ENDROOT
BRANCH   1  16
ATOM     15  C   UNL     1       6.121   3.927  13.538  0.00  0.00    +0.000 C 
ATOM     16  O   UNL     1       6.064   3.299  14.821  0.00  0.00    +0.000 OA
ENDBRANCH   1  16
BRANCH   3  17
ATOM     17  O   UNL     1       6.171   7.476  16.957  0.00  0.00    +0.000 OA
ATOM     18  C   UNL     1       7.495   7.487  17.497  0.00  0.00    +0.000 C 
ENDBRANCH   3  17
TORSDOF 2
ENDMDL
MODEL 6
REMARK VINA RESULT:      -6.6      1.487      5.831
REMARK  Name = 
REMARK  4 active torsions:
REMARK  status: ('A' for Active; 'I' for Inactive)
REMARK    1  A    between atoms: C_1  and  O_2
REMARK    2  A    between atoms: O_2  and  C_3
REMARK    3  A    between atoms: C_5  and  O_6
REMARK    4  A    between atoms: O_6  and  C_7
REMARK                            x       y       z     vdW  Elec       q    Type
REMARK                         _______ _______ _______ _____ _____    ______ ____
ROOT
ATOM      1  C   UNL     1       4.254   2.514  20.206  0.00  0.00    +0.000 A 
ATOM      2  C   UNL     1       3.045   2.299  19.607  0.00  0.00    +0.000 A 
ATOM      3  C   UNL     1       2.839   3.037  18.476  0.00  0.00    +0.000 A 
ATOM      4  N   UNL     1       3.730   3.915  17.988  0.00  0.00    +0.000 NA
ATOM      5  C   UNL     1       4.895   4.062  18.627  0.00  0.00    +0.000 A 
ATOM      6  N   UNL     1       5.855   4.996  18.127  0.00  0.00    +0.000 N 
ATOM      7  C   UNL     1       6.845   5.450  19.011  0.00  0.00    +0.000 C 
ATOM      8  O   UNL     1       6.933   5.206  20.215  0.00  0.00    +0.000 OA
ATOM      9  C   UNL     1       7.900   6.347  18.415  0.00  0.00    +0.000 C 
ATOM     10  C   UNL     1       7.282   7.279  17.407  0.00  0.00    +0.000 C 
ATOM     11  C   UNL     1       6.710   6.439  16.295  0.00  0.00    +0.000 C 
ATOM     12  C   UNL     1       5.734   5.393  16.788  0.00  0.00    +0.000 C 
ATOM     13  O   UNL     1       4.984   4.903  15.938  0.00  0.00    +0.000 OA
ATOM     14  N   UNL     1       5.177   3.364  19.731  0.00  0.00    +0.000 NA
ENDROOT
BRANCH   1  16
ATOM     15  C   UNL     1       5.511   0.801  21.176  0.00  0.00    +0.000 C 
ATOM     16  O   UNL     1       4.523   1.815  21.366  0.00  0.00    +0.000 OA
ENDBRANCH   1  16
BRANCH   3  17
ATOM     17  O   UNL     1       1.637   2.869  17.818  0.00  0.00    +0.000 OA
ATOM     18  C   UNL     1       0.593   2.431  18.690  0.00  0.00    +0.000 C 
ENDBRANCH   3  17
TORSDOF 2
ENDMDL
MODEL 7
REMARK VINA RESULT:      -6.5      2.657      3.296
REMARK  Name = 
REMARK  4 active torsions:
REMARK  status: ('A' for Active; 'I' for Inactive)
REMARK    1  A    between atoms: C_1  and  O_2
REMARK    2  A    between atoms: O_2  and  C_3
REMARK    3  A    between atoms: C_5  and  O_6
REMARK    4  A    between atoms: O_6  and  C_7
REMARK                            x       y       z     vdW  Elec       q    Type
REMARK                         _______ _______ _______ _____ _____    ______ ____
ROOT
ATOM      1  C   UNL     1       3.581   7.358  17.440  0.00  0.00    +0.000 A 
ATOM      2  C   UNL     1       4.667   7.030  16.678  0.00  0.00    +0.000 A 
ATOM      3  C   UNL     1       5.007   5.707  16.726  0.00  0.00    +0.000 A 
ATOM      4  N   UNL     1       4.353   4.796  17.464  0.00  0.00    +0.000 NA
ATOM      5  C   UNL     1       3.293   5.195  18.176  0.00  0.00    +0.000 A 
ATOM      6  N   UNL     1       2.587   4.242  18.972  0.00  0.00    +0.000 N 
ATOM      7  C   UNL     1       1.786   4.731  20.016  0.00  0.00    +0.000 C 
ATOM      8  O   UNL     1       1.690   5.899  20.393  0.00  0.00    +0.000 OA
ATOM      9  C   UNL     1       0.974   3.702  20.761  0.00  0.00    +0.000 C 
ATOM     10  C   UNL     1       1.767   2.433  20.928  0.00  0.00    +0.000 C 
ATOM     11  C   UNL     1       2.054   1.886  19.554  0.00  0.00    +0.000 C 
ATOM     12  C   UNL     1       2.748   2.886  18.655  0.00  0.00    +0.000 C 
ATOM     13  O   UNL     1       3.309   2.425  17.656  0.00  0.00    +0.000 OA
ATOM     14  N   UNL     1       2.889   6.469  18.168  0.00  0.00    +0.000 NA
ENDROOT
BRANCH   1  16
ATOM     15  C   UNL     1       1.860   8.854  17.946  0.00  0.00    +0.000 C 
ATOM     16  O   UNL     1       3.191   8.683  17.455  0.00  0.00    +0.000 OA
ENDBRANCH   1  16
BRANCH   3  17
ATOM     17  O   UNL     1       6.096   5.305  15.978  0.00  0.00    +0.000 OA
ATOM     18  C   UNL     1       7.062   4.596  16.757  0.00  0.00    +0.000 C 
ENDBRANCH   3  17
TORSDOF 2
ENDMDL
MODEL 8
REMARK VINA RESULT:      -6.4      2.783      5.805
REMARK  Name = 
REMARK  4 active torsions:
REMARK  status: ('A' for Active; 'I' for Inactive)
REMARK    1  A    between atoms: C_1  and  O_2
REMARK    2  A    between atoms: O_2  and  C_3
REMARK    3  A    between atoms: C_5  and  O_6
REMARK    4  A    between atoms: O_6  and  C_7
REMARK                            x       y       z     vdW  Elec       q    Type
REMARK                         _______ _______ _______ _____ _____    ______ ____
ROOT
ATOM      1  C   UNL     1       1.917   6.221  20.264  0.00  0.00    +0.000 A 
ATOM      2  C   UNL     1       1.150   5.118  20.515  0.00  0.00    +0.000 A 
ATOM      3  C   UNL     1       1.425   4.048  19.710  0.00  0.00    +0.000 A 
ATOM      4  N   UNL     1       2.353   4.065  18.740  0.00  0.00    +0.000 NA
ATOM      5  C   UNL     1       3.069   5.181  18.563  0.00  0.00    +0.000 A 
ATOM      6  N   UNL     1       4.058   5.221  17.532  0.00  0.00    +0.000 N 
ATOM      7  C   UNL     1       4.477   6.481  17.080  0.00  0.00    +0.000 C 
ATOM      8  O   UNL     1       4.019   7.577  17.406  0.00  0.00    +0.000 OA
ATOM      9  C   UNL     1       5.598   6.481  16.072  0.00  0.00    +0.000 C 
ATOM     10  C   UNL     1       5.435   5.333  15.111  0.00  0.00    +0.000 C 
ATOM     11  C   UNL     1       5.526   4.054  15.903  0.00  0.00    +0.000 C 
ATOM     12  C   UNL     1       4.536   3.996  17.046  0.00  0.00    +0.000 C 
ATOM     13  O   UNL     1       4.316   2.878  17.521  0.00  0.00    +0.000 OA
ATOM     14  N   UNL     1       2.870   6.263  19.321  0.00  0.00    +0.000 NA
ENDROOT
BRANCH   1  16
ATOM     15  C   UNL     1       1.449   8.509  20.228  0.00  0.00    +0.000 C 
ATOM     16  O   UNL     1       1.681   7.347  21.027  0.00  0.00    +0.000 OA
ENDBRANCH   1  16
BRANCH   3  17
ATOM     17  O   UNL     1       0.687   2.898  19.909  0.00  0.00    +0.000 OA
ATOM     18  C   UNL     1       0.727   2.021  18.782  0.00  0.00    +0.000 C 
ENDBRANCH   3  17
TORSDOF 2
ENDMDL
MODEL 9
REMARK VINA RESULT:      -6.4      2.686      3.243
REMARK  Name = 
REMARK  4 active torsions:
REMARK  status: ('A' for Active; 'I' for Inactive)
REMARK    1  A    between atoms: C_1  and  O_2
REMARK    2  A    between atoms: O_2  and  C_3
REMARK    3  A    between atoms: C_5  and  O_6
REMARK    4  A    between atoms: O_6  and  C_7
REMARK                            x       y       z     vdW  Elec       q    Type
REMARK                         _______ _______ _______ _____ _____    ______ ____
ROOT
ATOM      1  C   UNL     1       5.088   5.825  16.701  0.00  0.00    +0.000 A 
ATOM      2  C   UNL     1       4.709   7.138  16.670  0.00  0.00    +0.000 A 
ATOM      3  C   UNL     1       3.611   7.422  17.433  0.00  0.00    +0.000 A 
ATOM      4  N   UNL     1       2.941   6.503  18.146  0.00  0.00    +0.000 NA
ATOM      5  C   UNL     1       3.382   5.240  18.131  0.00  0.00    +0.000 A 
ATOM      6  N   UNL     1       2.679   4.245  18.878  0.00  0.00    +0.000 N 
ATOM      7  C   UNL     1       2.873   2.903  18.520  0.00  0.00    +0.000 C 
ATOM      8  O   UNL     1       3.517   2.477  17.561  0.00  0.00    +0.000 OA
ATOM      9  C   UNL     1       2.201   1.881  19.402  0.00  0.00    +0.000 C 
ATOM     10  C   UNL     1       0.845   2.375  19.831  0.00  0.00    +0.000 C 
ATOM     11  C   UNL     1       1.048   3.625  20.647  0.00  0.00    +0.000 C 
ATOM     12  C   UNL     1       1.843   4.685  19.915  0.00  0.00    +0.000 C 
ATOM     13  O   UNL     1       1.767   5.832  20.364  0.00  0.00    +0.000 OA
ATOM     14  N   UNL     1       4.458   4.886  17.422  0.00  0.00    +0.000 NA
ENDROOT
BRANCH   1  16
ATOM     15  C   UNL     1       7.077   4.602  16.642  0.00  0.00    +0.000 C 
ATOM     16  O   UNL     1       6.179   5.460  15.936  0.00  0.00    +0.000 OA
ENDBRANCH   1  16
BRANCH   3  17
ATOM     17  O   UNL     1       3.172   8.731  17.450  0.00  0.00    +0.000 OA
ATOM     18  C   UNL     1       1.826   8.850  17.914  0.00  0.00    +0.000 C 
ENDBRANCH   3  17
TORSDOF 2
ENDMDL
