MODEL 1
REMARK VINA RESULT:      -8.0      0.000      0.000
REMARK  Name = 
REMARK  4 active torsions:
REMARK  status: ('A' for Active; 'I' for Inactive)
REMARK    1  A    between atoms: C_2  and  C_20
REMARK    2  A    between atoms: N_3  and  C_4
REMARK    3  A    between atoms: N_7  and  C_8
REMARK    4  A    between atoms: C_23  and  C_24
REMARK                            x       y       z     vdW  Elec       q    Type
REMARK                         _______ _______ _______ _____ _____    ______ ____
ROOT
ATOM      1  C   UNL     1       2.446   7.107  18.212  0.00  0.00    +0.000 C 
ATOM      2  C   UNL     1       2.083   5.625  18.214  0.00  0.00    +0.000 C 
ATOM      3  C   UNL     1       3.236   4.915  18.913  0.00  0.00    +0.000 C 
ATOM      4  N   UNL     1       4.406   5.760  18.698  0.00  0.00    +0.000 N 
ATOM      5  C   UNL     1       3.979   7.146  18.425  0.00  0.00    +0.000 C 
ENDROOT
BRANCH   4   6
ATOM      6  C   UNL     1       5.618   5.317  18.159  0.00  0.00    +0.000 A 
ATOM      7  C   UNL     1       6.769   5.239  18.951  0.00  0.00    +0.000 A 
ATOM      8  C   UNL     1       7.957   4.784  18.405  0.00  0.00    +0.000 A 
ATOM      9  N   UNL     1       8.092   4.381  17.132  0.00  0.00    +0.000 NA
ATOM     10  C   UNL     1       7.015   4.456  16.341  0.00  0.00    +0.000 A 
ATOM     11  C   UNL     1       7.179   4.050  15.024  0.00  0.00    +0.000 A 
ATOM     12  C   UNL     1       6.133   4.112  14.110  0.00  0.00    +0.000 A 
ATOM     13 CL   UNL     1       6.374   3.596  12.487  0.00  0.00    +0.000 Cl
ATOM     14  C   UNL     1       4.901   4.605  14.500  0.00  0.00    +0.000 A 
ATOM     15  C   UNL     1       4.721   5.026  15.817  0.00  0.00    +0.000 A 
ATOM     16  C   UNL     1       5.753   4.932  16.785  0.00  0.00    +0.000 A 
ENDBRANCH   4   6
BRANCH   1  19
ATOM     17  O   UNL     1       1.652   9.756  17.862  0.00  0.00    +0.000 OA
ATOM     18  C   UNL     1       1.324   9.191  18.900  0.00  0.00    +0.000 C 
ATOM     19  N   UNL     1       1.691   7.889  19.192  0.00  0.00    +0.000 N 
ATOM     20  H   UNL     1       1.458   7.482  20.088  0.00  0.00    +0.000 HD
BRANCH  18  21
ATOM     21  C   UNL     1       0.545   9.932  19.929  0.00  0.00    +0.000 A 
ATOM     22  C   UNL     1       0.485   9.522  21.264  0.00  0.00    +0.000 A 
ATOM     23  C   UNL     1      -0.284  10.246  22.184  0.00  0.00    +0.000 A 
ATOM     24  C   UNL     1      -1.003  11.385  21.782  0.00  0.00    +0.000 A 
ATOM     25  C   UNL     1      -0.950  11.778  20.436  0.00  0.00    +0.000 A 
ATOM     26  C   UNL     1      -0.188  11.053  19.516  0.00  0.00    +0.000 A 
BRANCH  24  27
ATOM     27  C   UNL     1      -1.829  12.181  22.767  0.00  0.00    +0.000 C 
ATOM     28  F   UNL     1      -1.094  13.053  23.512  0.00  0.00    +0.000 F 
ATOM     29  F   UNL     1      -2.786  12.930  22.153  0.00  0.00    +0.000 F 
ATOM     30  F   UNL     1      -2.486  11.389  23.658  0.00  0.00    +0.000 F 
ENDBRANCH  24  27
ENDBRANCH  18  21
ENDBRANCH   1  19
TORSDOF 4
ENDMDL
MODEL 2
REMARK VINA RESULT:      -7.8      6.108     10.636
REMARK  Name = 
REMARK  4 active torsions:
REMARK  status: ('A' for Active; 'I' for Inactive)
REMARK    1  A    between atoms: C_2  and  C_20
REMARK    2  A    between atoms: N_3  and  C_4
REMARK    3  A    between atoms: N_7  and  C_8
REMARK    4  A    between atoms: C_23  and  C_24
REMARK                            x       y       z     vdW  Elec       q    Type
REMARK                         _______ _______ _______ _____ _____    ______ ____
ROOT
ATOM      1  C   UNL     1       0.720   9.490  19.616  0.00  0.00    +0.000 C 
ATOM      2  C   UNL     1      -0.391  10.204  18.852  0.00  0.00    +0.000 C 
ATOM      3  C   UNL     1       0.028  11.668  18.780  0.00  0.00    +0.000 C 
ATOM      4  N   UNL     1       0.882  11.890  19.942  0.00  0.00    +0.000 N 
ATOM      5  C   UNL     1       1.458  10.608  20.392  0.00  0.00    +0.000 C 
ENDROOT
BRANCH   4   6
ATOM      6  C   UNL     1       0.690  12.904  20.886  0.00  0.00    +0.000 A 
ATOM      7  C   UNL     1       1.596  13.965  20.993  0.00  0.00    +0.000 A 
ATOM      8  C   UNL     1       1.383  14.968  21.923  0.00  0.00    +0.000 A 
ATOM      9  N   UNL     1       0.327  15.013  22.749  0.00  0.00    +0.000 NA
ATOM     10  C   UNL     1      -0.553  14.006  22.686  0.00  0.00    +0.000 A 
ATOM     11  C   UNL     1      -1.630  14.062  23.560  0.00  0.00    +0.000 A 
ATOM     12  C   UNL     1      -2.588  13.056  23.596  0.00  0.00    +0.000 A 
ATOM     13 CL   UNL     1      -3.910  13.163  24.690  0.00  0.00    +0.000 Cl
ATOM     14  C   UNL     1      -2.471  11.958  22.764  0.00  0.00    +0.000 A 
ATOM     15  C   UNL     1      -1.390  11.880  21.886  0.00  0.00    +0.000 A 
ATOM     16  C   UNL     1      -0.422  12.912  21.791  0.00  0.00    +0.000 A 
ENDBRANCH   4   6
BRANCH   1  19
ATOM     17  O   UNL     1       1.904   7.076  20.352  0.00  0.00    +0.000 OA
ATOM     18  C   UNL     1       2.105   7.491  19.215  0.00  0.00    +0.000 C 
ATOM     19  N   UNL     1       1.594   8.692  18.755  0.00  0.00    +0.000 N 
ATOM     20  H   UNL     1       1.838   9.030  17.834  0.00  0.00    +0.000 HD
BRANCH  18  21
ATOM     21  C   UNL     1       2.975   6.716  18.290  0.00  0.00    +0.000 A 
ATOM     22  C   UNL     1       2.863   5.330  18.138  0.00  0.00    +0.000 A 
ATOM     23  C   UNL     1       3.725   4.650  17.268  0.00  0.00    +0.000 A 
ATOM     24  C   UNL     1       4.709   5.343  16.542  0.00  0.00    +0.000 A 
ATOM     25  C   UNL     1       4.824   6.730  16.714  0.00  0.00    +0.000 A 
ATOM     26  C   UNL     1       3.969   7.410  17.586  0.00  0.00    +0.000 A 
BRANCH  24  27
ATOM     27  C   UNL     1       5.639   4.621  15.594  0.00  0.00    +0.000 C 
ATOM     28  F   UNL     1       5.884   3.330  15.951  0.00  0.00    +0.000 F 
ATOM     29  F   UNL     1       5.146   4.570  14.325  0.00  0.00    +0.000 F 
ATOM     30  F   UNL     1       6.858   5.221  15.500  0.00  0.00    +0.000 F 
ENDBRANCH  24  27
ENDBRANCH  18  21
ENDBRANCH   1  19
TORSDOF 4
ENDMDL
MODEL 3
REMARK VINA RESULT:      -7.8      3.690      5.004
REMARK  Name = 
REMARK  4 active torsions:
REMARK  status: ('A' for Active; 'I' for Inactive)
REMARK    1  A    between atoms: C_2  and  C_20
REMARK    2  A    between atoms: N_3  and  C_4
REMARK    3  A    between atoms: N_7  and  C_8
REMARK    4  A    between atoms: C_23  and  C_24
REMARK                            x       y       z     vdW  Elec       q    Type
REMARK                         _______ _______ _______ _____ _____    ______ ____
ROOT
ATOM      1  C   UNL     1       0.775   9.320  19.357  0.00  0.00    +0.000 C 
ATOM      2  C   UNL     1       0.568   8.885  20.805  0.00  0.00    +0.000 C 
ATOM      3  C   UNL     1       1.755   7.990  21.144  0.00  0.00    +0.000 C 
ATOM      4  N   UNL     1       2.191   7.417  19.875  0.00  0.00    +0.000 N 
ATOM      5  C   UNL     1       1.755   8.280  18.760  0.00  0.00    +0.000 C 
ENDROOT
BRANCH   4   6
ATOM      6  C   UNL     1       2.354   6.049  19.635  0.00  0.00    +0.000 A 
ATOM      7  C   UNL     1       1.657   5.101  20.392  0.00  0.00    +0.000 A 
ATOM      8  C   UNL     1       1.819   3.750  20.132  0.00  0.00    +0.000 A 
ATOM      9  N   UNL     1       2.610   3.263  19.164  0.00  0.00    +0.000 NA
ATOM     10  C   UNL     1       3.304   4.140  18.430  0.00  0.00    +0.000 A 
ATOM     11  C   UNL     1       4.129   3.615  17.445  0.00  0.00    +0.000 A 
ATOM     12  C   UNL     1       4.914   4.436  16.643  0.00  0.00    +0.000 A 
ATOM     13 CL   UNL     1       5.920   3.748  15.429  0.00  0.00    +0.000 Cl
ATOM     14  C   UNL     1       4.901   5.806  16.830  0.00  0.00    +0.000 A 
ATOM     15  C   UNL     1       4.085   6.350  17.823  0.00  0.00    +0.000 A 
ATOM     16  C   UNL     1       3.237   5.545  18.625  0.00  0.00    +0.000 A 
ENDBRANCH   4   6
BRANCH   1  19
ATOM     17  O   UNL     1      -0.828  11.454  18.554  0.00  0.00    +0.000 OA
ATOM     18  C   UNL     1       0.339  11.692  18.849  0.00  0.00    +0.000 C 
ATOM     19  N   UNL     1       1.231  10.705  19.230  0.00  0.00    +0.000 N 
ATOM     20  H   UNL     1       2.201  10.933  19.399  0.00  0.00    +0.000 HD
BRANCH  18  21
ATOM     21  C   UNL     1       0.856  13.084  18.751  0.00  0.00    +0.000 A 
ATOM     22  C   UNL     1       0.050  14.202  18.985  0.00  0.00    +0.000 A 
ATOM     23  C   UNL     1       0.586  15.490  18.855  0.00  0.00    +0.000 A 
ATOM     24  C   UNL     1       1.930  15.676  18.490  0.00  0.00    +0.000 A 
ATOM     25  C   UNL     1       2.726  14.548  18.241  0.00  0.00    +0.000 A 
ATOM     26  C   UNL     1       2.191  13.263  18.363  0.00  0.00    +0.000 A 
BRANCH  24  27
ATOM     27  C   UNL     1       2.523  17.061  18.355  0.00  0.00    +0.000 C 
ATOM     28  F   UNL     1       1.654  18.058  18.682  0.00  0.00    +0.000 F 
ATOM     29  F   UNL     1       3.611  17.237  19.156  0.00  0.00    +0.000 F 
ATOM     30  F   UNL     1       2.942  17.329  17.088  0.00  0.00    +0.000 F 
ENDBRANCH  24  27
ENDBRANCH  18  21
ENDBRANCH   1  19
TORSDOF 4
ENDMDL
MODEL 4
REMARK VINA RESULT:      -7.8      6.105     10.714
REMARK  Name = 
REMARK  4 active torsions:
REMARK  status: ('A' for Active; 'I' for Inactive)
REMARK    1  A    between atoms: C_2  and  C_20
REMARK    2  A    between atoms: N_3  and  C_4
REMARK    3  A    between atoms: N_7  and  C_8
REMARK    4  A    between atoms: C_23  and  C_24
REMARK                            x       y       z     vdW  Elec       q    Type
REMARK                         _______ _______ _______ _____ _____    ______ ____
ROOT
ATOM      1  C   UNL     1       0.724   9.609  19.732  0.00  0.00    +0.000 C 
ATOM      2  C   UNL     1      -0.373  10.315  18.941  0.00  0.00    +0.000 C 
ATOM      3  C   UNL     1       0.022  11.787  18.904  0.00  0.00    +0.000 C 
ATOM      4  N   UNL     1       0.833  12.006  20.098  0.00  0.00    +0.000 N 
ATOM      5  C   UNL     1       1.415  10.728  20.549  0.00  0.00    +0.000 C 
ENDROOT
BRANCH   4   6
ATOM      6  C   UNL     1       0.591  13.003  21.049  0.00  0.00    +0.000 A 
ATOM      7  C   UNL     1       1.449  14.102  21.170  0.00  0.00    +0.000 A 
ATOM      8  C   UNL     1       1.188  15.086  22.108  0.00  0.00    +0.000 A 
ATOM      9  N   UNL     1       0.126  15.076  22.929  0.00  0.00    +0.000 NA
ATOM     10  C   UNL     1      -0.708  14.033  22.852  0.00  0.00    +0.000 A 
ATOM     11  C   UNL     1      -1.790  14.034  23.721  0.00  0.00    +0.000 A 
ATOM     12  C   UNL     1      -2.703  12.986  23.744  0.00  0.00    +0.000 A 
ATOM     13 CL   UNL     1      -4.033  13.025  24.832  0.00  0.00    +0.000 Cl
ATOM     14  C   UNL     1      -2.533  11.901  22.903  0.00  0.00    +0.000 A 
ATOM     15  C   UNL     1      -1.446  11.879  22.030  0.00  0.00    +0.000 A 
ATOM     16  C   UNL     1      -0.524  12.953  21.948  0.00  0.00    +0.000 A 
ENDBRANCH   4   6
BRANCH   1  19
ATOM     17  O   UNL     1       1.814   7.136  20.415  0.00  0.00    +0.000 OA
ATOM     18  C   UNL     1       2.098   7.605  19.318  0.00  0.00    +0.000 C 
ATOM     19  N   UNL     1       1.640   8.838  18.889  0.00  0.00    +0.000 N 
ATOM     20  H   UNL     1       1.952   9.220  18.006  0.00  0.00    +0.000 HD
BRANCH  18  21
ATOM     21  C   UNL     1       3.015   6.861  18.412  0.00  0.00    +0.000 A 
ATOM     22  C   UNL     1       3.836   7.505  17.482  0.00  0.00    +0.000 A 
ATOM     23  C   UNL     1       4.663   6.750  16.639  0.00  0.00    +0.000 A 
ATOM     24  C   UNL     1       4.678   5.346  16.714  0.00  0.00    +0.000 A 
ATOM     25  C   UNL     1       3.837   4.710  17.639  0.00  0.00    +0.000 A 
ATOM     26  C   UNL     1       3.007   5.461  18.476  0.00  0.00    +0.000 A 
BRANCH  24  27
ATOM     27  C   UNL     1       5.572   4.521  15.817  0.00  0.00    +0.000 C 
ATOM     28  F   UNL     1       5.256   4.621  14.495  0.00  0.00    +0.000 F 
ATOM     29  F   UNL     1       6.881   4.885  15.916  0.00  0.00    +0.000 F 
ATOM     30  F   UNL     1       5.527   3.193  16.112  0.00  0.00    +0.000 F 
ENDBRANCH  24  27
ENDBRANCH  18  21
ENDBRANCH   1  19
TORSDOF 4
ENDMDL
MODEL 5
REMARK VINA RESULT:      -7.8      3.279      4.948
REMARK  Name = 
REMARK  4 active torsions:
REMARK  status: ('A' for Active; 'I' for Inactive)
REMARK    1  A    between atoms: C_2  and  C_20
REMARK    2  A    between atoms: N_3  and  C_4
REMARK    3  A    between atoms: N_7  and  C_8
REMARK    4  A    between atoms: C_23  and  C_24
REMARK                            x       y       z     vdW  Elec       q    Type
REMARK                         _______ _______ _______ _____ _____    ______ ____
ROOT
ATOM      1  C   UNL     1       1.020  10.398  20.141  0.00  0.00    +0.000 C 
ATOM      2  C   UNL     1       1.227  10.766  18.675  0.00  0.00    +0.000 C 
ATOM      3  C   UNL     1       1.118   9.458  17.899  0.00  0.00    +0.000 C 
ATOM      4  N   UNL     1       1.510   8.411  18.837  0.00  0.00    +0.000 N 
ATOM      5  C   UNL     1       1.315   8.881  20.222  0.00  0.00    +0.000 C 
ENDROOT
BRANCH   4   6
ATOM      6  C   UNL     1       2.499   7.453  18.590  0.00  0.00    +0.000 A 
ATOM      7  C   UNL     1       3.481   7.671  17.617  0.00  0.00    +0.000 A 
ATOM      8  C   UNL     1       4.461   6.719  17.395  0.00  0.00    +0.000 A 
ATOM      9  N   UNL     1       4.556   5.567  18.078  0.00  0.00    +0.000 NA
ATOM     10  C   UNL     1       3.625   5.318  19.006  0.00  0.00    +0.000 A 
ATOM     11  C   UNL     1       3.731   4.115  19.689  0.00  0.00    +0.000 A 
ATOM     12  C   UNL     1       2.802   3.745  20.655  0.00  0.00    +0.000 A 
ATOM     13 CL   UNL     1       2.971   2.247  21.484  0.00  0.00    +0.000 Cl
ATOM     14  C   UNL     1       1.731   4.572  20.939  0.00  0.00    +0.000 A 
ATOM     15  C   UNL     1       1.603   5.780  20.255  0.00  0.00    +0.000 A 
ATOM     16  C   UNL     1       2.559   6.209  19.299  0.00  0.00    +0.000 A 
ENDBRANCH   4   6
BRANCH   1  19
ATOM     17  O   UNL     1       0.515  12.585  21.795  0.00  0.00    +0.000 OA
ATOM     18  C   UNL     1      -0.439  11.899  21.443  0.00  0.00    +0.000 C 
ATOM     19  N   UNL     1      -0.301  10.773  20.651  0.00  0.00    +0.000 N 
ATOM     20  H   UNL     1      -1.103  10.197  20.439  0.00  0.00    +0.000 HD
BRANCH  18  21
ATOM     21  C   UNL     1      -1.807  12.239  21.919  0.00  0.00    +0.000 A 
ATOM     22  C   UNL     1      -2.757  12.851  21.096  0.00  0.00    +0.000 A 
ATOM     23  C   UNL     1      -4.023  13.169  21.606  0.00  0.00    +0.000 A 
ATOM     24  C   UNL     1      -4.354  12.881  22.941  0.00  0.00    +0.000 A 
ATOM     25  C   UNL     1      -3.388  12.282  23.763  0.00  0.00    +0.000 A 
ATOM     26  C   UNL     1      -2.123  11.970  23.258  0.00  0.00    +0.000 A 
BRANCH  24  27
ATOM     27  C   UNL     1      -5.720  13.210  23.501  0.00  0.00    +0.000 C 
ATOM     28  F   UNL     1      -6.054  12.465  24.592  0.00  0.00    +0.000 F 
ATOM     29  F   UNL     1      -5.818  14.510  23.894  0.00  0.00    +0.000 F 
ATOM     30  F   UNL     1      -6.717  13.015  22.595  0.00  0.00    +0.000 F 
ENDBRANCH  24  27
ENDBRANCH  18  21
ENDBRANCH   1  19
TORSDOF 4
ENDMDL
MODEL 6
REMARK VINA RESULT:      -7.7      3.569      4.691
REMARK  Name = 
REMARK  4 active torsions:
REMARK  status: ('A' for Active; 'I' for Inactive)
REMARK    1  A    between atoms: C_2  and  C_20
REMARK    2  A    between atoms: N_3  and  C_4
REMARK    3  A    between atoms: N_7  and  C_8
REMARK    4  A    between atoms: C_23  and  C_24
REMARK                            x       y       z     vdW  Elec       q    Type
REMARK                         _______ _______ _______ _____ _____    ______ ____
ROOT
ATOM      1  C   UNL     1       0.848   9.345  18.735  0.00  0.00    +0.000 C 
ATOM      2  C   UNL     1       0.740   8.776  20.147  0.00  0.00    +0.000 C 
ATOM      3  C   UNL     1       1.997   7.939  20.355  0.00  0.00    +0.000 C 
ATOM      4  N   UNL     1       2.406   7.506  19.023  0.00  0.00    +0.000 N 
ATOM      5  C   UNL     1       1.862   8.429  18.008  0.00  0.00    +0.000 C 
ENDROOT
BRANCH   4   6
ATOM      6  C   UNL     1       2.645   6.178  18.658  0.00  0.00    +0.000 A 
ATOM      7  C   UNL     1       1.916   5.133  19.237  0.00  0.00    +0.000 A 
ATOM      8  C   UNL     1       2.155   3.824  18.853  0.00  0.00    +0.000 A 
ATOM      9  N   UNL     1       3.054   3.468  17.922  0.00  0.00    +0.000 NA
ATOM     10  C   UNL     1       3.780   4.440  17.358  0.00  0.00    +0.000 A 
ATOM     11  C   UNL     1       4.716   4.049  16.410  0.00  0.00    +0.000 A 
ATOM     12  C   UNL     1       5.541   4.974  15.781  0.00  0.00    +0.000 A 
ATOM     13 CL   UNL     1       6.685   4.452  14.608  0.00  0.00    +0.000 Cl
ATOM     14  C   UNL     1       5.457   6.315  16.110  0.00  0.00    +0.000 A 
ATOM     15  C   UNL     1       4.529   6.724  17.068  0.00  0.00    +0.000 A 
ATOM     16  C   UNL     1       3.640   5.812  17.693  0.00  0.00    +0.000 A 
ENDBRANCH   4   6
BRANCH   1  19
ATOM     17  O   UNL     1      -0.980  11.448  18.678  0.00  0.00    +0.000 OA
ATOM     18  C   UNL     1       0.214  11.727  18.712  0.00  0.00    +0.000 C 
ATOM     19  N   UNL     1       1.207  10.765  18.710  0.00  0.00    +0.000 N 
ATOM     20  H   UNL     1       2.181  11.036  18.671  0.00  0.00    +0.000 HD
BRANCH  18  21
ATOM     21  C   UNL     1       0.639  13.153  18.701  0.00  0.00    +0.000 A 
ATOM     22  C   UNL     1      -0.263  14.206  18.875  0.00  0.00    +0.000 A 
ATOM     23  C   UNL     1       0.192  15.531  18.833  0.00  0.00    +0.000 A 
ATOM     24  C   UNL     1       1.550  15.819  18.614  0.00  0.00    +0.000 A 
ATOM     25  C   UNL     1       2.445  14.754  18.423  0.00  0.00    +0.000 A 
ATOM     26  C   UNL     1       1.991  13.433  18.459  0.00  0.00    +0.000 A 
BRANCH  24  27
ATOM     27  C   UNL     1       2.056  17.243  18.575  0.00  0.00    +0.000 C 
ATOM     28  F   UNL     1       2.263  17.711  17.313  0.00  0.00    +0.000 F 
ATOM     29  F   UNL     1       1.188  18.116  19.158  0.00  0.00    +0.000 F 
ATOM     30  F   UNL     1       3.239  17.396  19.230  0.00  0.00    +0.000 F 
ENDBRANCH  24  27
ENDBRANCH  18  21
ENDBRANCH   1  19
TORSDOF 4
ENDMDL
MODEL 7
REMARK VINA RESULT:      -7.7      3.588      4.851
REMARK  Name = 
REMARK  4 active torsions:
REMARK  status: ('A' for Active; 'I' for Inactive)
REMARK    1  A    between atoms: C_2  and  C_20
REMARK    2  A    between atoms: N_3  and  C_4
REMARK    3  A    between atoms: N_7  and  C_8
REMARK    4  A    between atoms: C_23  and  C_24
REMARK                            x       y       z     vdW  Elec       q    Type
REMARK                         _______ _______ _______ _____ _____    ______ ____
ROOT
ATOM      1  C   UNL     1       0.706   9.388  19.353  0.00  0.00    +0.000 C 
ATOM      2  C   UNL     1       0.507   8.940  20.798  0.00  0.00    +0.000 C 
ATOM      3  C   UNL     1       1.725   8.089  21.141  0.00  0.00    +0.000 C 
ATOM      4  N   UNL     1       2.189   7.538  19.872  0.00  0.00    +0.000 N 
ATOM      5  C   UNL     1       1.727   8.388  18.758  0.00  0.00    +0.000 C 
ENDROOT
BRANCH   4   6
ATOM      6  C   UNL     1       2.404   6.178  19.629  0.00  0.00    +0.000 A 
ATOM      7  C   UNL     1       1.799   5.202  20.428  0.00  0.00    +0.000 A 
ATOM      8  C   UNL     1       2.011   3.859  20.165  0.00  0.00    +0.000 A 
ATOM      9  N   UNL     1       2.768   3.404  19.154  0.00  0.00    +0.000 NA
ATOM     10  C   UNL     1       3.375   4.309  18.378  0.00  0.00    +0.000 A 
ATOM     11  C   UNL     1       4.166   3.818  17.348  0.00  0.00    +0.000 A 
ATOM     12  C   UNL     1       4.862   4.670  16.499  0.00  0.00    +0.000 A 
ATOM     13 CL   UNL     1       5.828   4.024  15.232  0.00  0.00    +0.000 Cl
ATOM     14  C   UNL     1       4.794   6.039  16.682  0.00  0.00    +0.000 A 
ATOM     15  C   UNL     1       4.011   6.550  17.718  0.00  0.00    +0.000 A 
ATOM     16  C   UNL     1       3.251   5.710  18.571  0.00  0.00    +0.000 A 
ENDBRANCH   4   6
BRANCH   1  19
ATOM     17  O   UNL     1      -0.889  11.421  18.307  0.00  0.00    +0.000 OA
ATOM     18  C   UNL     1       0.225  11.722  18.723  0.00  0.00    +0.000 C 
ATOM     19  N   UNL     1       1.111  10.791  19.233  0.00  0.00    +0.000 N 
ATOM     20  H   UNL     1       2.045  11.069  19.504  0.00  0.00    +0.000 HD
BRANCH  18  21
ATOM     21  C   UNL     1       0.686  13.134  18.639  0.00  0.00    +0.000 A 
ATOM     22  C   UNL     1       2.024  13.474  18.418  0.00  0.00    +0.000 A 
ATOM     23  C   UNL     1       2.404  14.822  18.371  0.00  0.00    +0.000 A 
ATOM     24  C   UNL     1       1.455  15.844  18.546  0.00  0.00    +0.000 A 
ATOM     25  C   UNL     1       0.119  15.492  18.784  0.00  0.00    +0.000 A 
ATOM     26  C   UNL     1      -0.261  14.148  18.838  0.00  0.00    +0.000 A 
BRANCH  24  27
ATOM     27  C   UNL     1       1.851  17.302  18.488  0.00  0.00    +0.000 C 
ATOM     28  F   UNL     1       2.756  17.657  19.443  0.00  0.00    +0.000 F 
ATOM     29  F   UNL     1       2.417  17.638  17.295  0.00  0.00    +0.000 F 
ATOM     30  F   UNL     1       0.790  18.139  18.650  0.00  0.00    +0.000 F 
ENDBRANCH  24  27
ENDBRANCH  18  21
ENDBRANCH   1  19
TORSDOF 4
ENDMDL
MODEL 8
REMARK VINA RESULT:      -7.5      7.368      9.227
REMARK  Name = 
REMARK  4 active torsions:
REMARK  status: ('A' for Active; 'I' for Inactive)
REMARK    1  A    between atoms: C_2  and  C_20
REMARK    2  A    between atoms: N_3  and  C_4
REMARK    3  A    between atoms: N_7  and  C_8
REMARK    4  A    between atoms: C_23  and  C_24
REMARK                            x       y       z     vdW  Elec       q    Type
REMARK                         _______ _______ _______ _____ _____    ______ ____
ROOT
ATOM      1  C   UNL     1       8.262   8.775  17.675  0.00  0.00    +0.000 C 
ATOM      2  C   UNL     1       9.085   8.750  18.959  0.00  0.00    +0.000 C 
ATOM      3  C   UNL     1       8.999  10.158  19.536  0.00  0.00    +0.000 C 
ATOM      4  N   UNL     1       8.767  11.037  18.394  0.00  0.00    +0.000 N 
ATOM      5  C   UNL     1       8.167  10.270  17.286  0.00  0.00    +0.000 C 
ENDROOT
BRANCH   4   6
ATOM      6  C   UNL     1       9.542  12.160  18.087  0.00  0.00    +0.000 A 
ATOM      7  C   UNL     1      10.815  12.020  17.522  0.00  0.00    +0.000 A 
ATOM      8  C   UNL     1      11.563  13.142  17.210  0.00  0.00    +0.000 A 
ATOM      9  N   UNL     1      11.140  14.402  17.399  0.00  0.00    +0.000 NA
ATOM     10  C   UNL     1       9.934  14.574  17.952  0.00  0.00    +0.000 A 
ATOM     11  C   UNL     1       9.521  15.884  18.154  0.00  0.00    +0.000 A 
ATOM     12  C   UNL     1       8.297  16.176  18.745  0.00  0.00    +0.000 A 
ATOM     13 CL   UNL     1       7.819  17.812  18.975  0.00  0.00    +0.000 Cl
ATOM     14  C   UNL     1       7.468  15.151  19.165  0.00  0.00    +0.000 A 
ATOM     15  C   UNL     1       7.871  13.829  18.979  0.00  0.00    +0.000 A 
ATOM     16  C   UNL     1       9.091  13.497  18.336  0.00  0.00    +0.000 A 
ENDBRANCH   4   6
BRANCH   1  19
ATOM     17  O   UNL     1       7.587   6.340  16.496  0.00  0.00    +0.000 OA
ATOM     18  C   UNL     1       6.747   6.889  17.201  0.00  0.00    +0.000 C 
ATOM     19  N   UNL     1       6.962   8.113  17.808  0.00  0.00    +0.000 N 
ATOM     20  H   UNL     1       6.220   8.564  18.326  0.00  0.00    +0.000 HD
BRANCH  18  21
ATOM     21  C   UNL     1       5.412   6.258  17.384  0.00  0.00    +0.000 A 
ATOM     22  C   UNL     1       4.310   6.963  17.876  0.00  0.00    +0.000 A 
ATOM     23  C   UNL     1       3.082   6.310  18.049  0.00  0.00    +0.000 A 
ATOM     24  C   UNL     1       2.941   4.947  17.735  0.00  0.00    +0.000 A 
ATOM     25  C   UNL     1       4.058   4.245  17.258  0.00  0.00    +0.000 A 
ATOM     26  C   UNL     1       5.285   4.893  17.091  0.00  0.00    +0.000 A 
BRANCH  24  27
ATOM     27  C   UNL     1       1.620   4.233  17.908  0.00  0.00    +0.000 C 
ATOM     28  F   UNL     1       1.079   4.386  19.149  0.00  0.00    +0.000 F 
ATOM     29  F   UNL     1       0.675   4.675  17.032  0.00  0.00    +0.000 F 
ATOM     30  F   UNL     1       1.721   2.891  17.707  0.00  0.00    +0.000 F 
ENDBRANCH  24  27
ENDBRANCH  18  21
ENDBRANCH   1  19
TORSDOF 4
ENDMDL
MODEL 9
REMARK VINA RESULT:      -7.5      6.148     10.777
REMARK  Name = 
REMARK  4 active torsions:
REMARK  status: ('A' for Active; 'I' for Inactive)
REMARK    1  A    between atoms: C_2  and  C_20
REMARK    2  A    between atoms: N_3  and  C_4
REMARK    3  A    between atoms: N_7  and  C_8
REMARK    4  A    between atoms: C_23  and  C_24
REMARK                            x       y       z     vdW  Elec       q    Type
REMARK                         _______ _______ _______ _____ _____    ______ ____
ROOT
ATOM      1  C   UNL     1       0.969   9.689  19.511  0.00  0.00    +0.000 C 
ATOM      2  C   UNL     1      -0.523   9.544  19.229  0.00  0.00    +0.000 C 
ATOM      3  C   UNL     1      -0.924  10.796  18.457  0.00  0.00    +0.000 C 
ATOM      4  N   UNL     1       0.023  11.829  18.864  0.00  0.00    +0.000 N 
ATOM      5  C   UNL     1       1.261  11.202  19.366  0.00  0.00    +0.000 C 
ENDROOT
BRANCH   4   6
ATOM      6  C   UNL     1      -0.337  13.086  19.360  0.00  0.00    +0.000 A 
ATOM      7  C   UNL     1      -0.013  14.253  18.659  0.00  0.00    +0.000 A 
ATOM      8  C   UNL     1      -0.390  15.489  19.157  0.00  0.00    +0.000 A 
ATOM      9  N   UNL     1      -1.083  15.660  20.294  0.00  0.00    +0.000 NA
ATOM     10  C   UNL     1      -1.397  14.567  20.999  0.00  0.00    +0.000 A 
ATOM     11  C   UNL     1      -2.099  14.766  22.179  0.00  0.00    +0.000 A 
ATOM     12  C   UNL     1      -2.452  13.702  23.001  0.00  0.00    +0.000 A 
ATOM     13 CL   UNL     1      -3.326  13.989  24.455  0.00  0.00    +0.000 Cl
ATOM     14  C   UNL     1      -2.087  12.412  22.661  0.00  0.00    +0.000 A 
ATOM     15  C   UNL     1      -1.373  12.195  21.483  0.00  0.00    +0.000 A 
ATOM     16  C   UNL     1      -1.039  13.252  20.599  0.00  0.00    +0.000 A 
ENDBRANCH   4   6
BRANCH   1  19
ATOM     17  O   UNL     1       1.958   7.188  20.242  0.00  0.00    +0.000 OA
ATOM     18  C   UNL     1       2.216   7.600  19.116  0.00  0.00    +0.000 C 
ATOM     19  N   UNL     1       1.804   8.840  18.660  0.00  0.00    +0.000 N 
ATOM     20  H   UNL     1       2.094   9.171  17.750  0.00  0.00    +0.000 HD
BRANCH  18  21
ATOM     21  C   UNL     1       3.050   6.775  18.201  0.00  0.00    +0.000 A 
ATOM     22  C   UNL     1       2.958   5.381  18.155  0.00  0.00    +0.000 A 
ATOM     23  C   UNL     1       3.786   4.654  17.289  0.00  0.00    +0.000 A 
ATOM     24  C   UNL     1       4.715   5.309  16.462  0.00  0.00    +0.000 A 
ATOM     25  C   UNL     1       4.811   6.707  16.529  0.00  0.00    +0.000 A 
ATOM     26  C   UNL     1       3.990   7.433  17.396  0.00  0.00    +0.000 A 
BRANCH  24  27
ATOM     27  C   UNL     1       5.607   4.537  15.517  0.00  0.00    +0.000 C 
ATOM     28  F   UNL     1       5.146   4.510  14.235  0.00  0.00    +0.000 F 
ATOM     29  F   UNL     1       6.864   5.058  15.450  0.00  0.00    +0.000 F 
ATOM     30  F   UNL     1       5.759   3.236  15.887  0.00  0.00    +0.000 F 
ENDBRANCH  24  27
ENDBRANCH  18  21
ENDBRANCH   1  19
TORSDOF 4
ENDMDL
