MODEL 1
REMARK VINA RESULT:      -7.5      0.000      0.000
REMARK  Name = 
REMARK  5 active torsions:
REMARK  status: ('A' for Active; 'I' for Inactive)
REMARK    1  A    between atoms: C_1  and  O_2
REMARK    2  A    between atoms: O_2  and  C_3
REMARK    3  A    between atoms: C_7  and  C_8
REMARK    4  A    between atoms: C_10  and  C_11
REMARK    5  A    between atoms: C_19  and  C_21
REMARK                            x       y       z     vdW  Elec       q    Type
REMARK                         _______ _______ _______ _____ _____    ______ ____
ROOT
ATOM      1  C   UNL     1       1.011   9.306  19.655  0.00  0.00    +0.000 C 
ATOM      2  C   UNL     1       0.412  10.209  18.869  0.00  0.00    +0.000 C 
ATOM      3  C   UNL     1      -0.289  11.237  19.712  0.00  0.00    +0.000 C 
ATOM      4  N   UNL     1      -0.083  10.711  21.083  0.00  0.00    +0.000 N 
ATOM      5  C   UNL     1      -0.517  11.112  22.341  0.00  0.00    +0.000 C 
ATOM      6  O   UNL     1      -0.136  10.568  23.380  0.00  0.00    +0.000 OA
ATOM      7  N   UNL     1       0.683   9.508  20.986  0.00  0.00    +0.000 N 
ATOM      8  H   UNL     1       1.471   9.467  21.637  0.00  0.00    +0.000 HD
ENDROOT
BRANCH   3   9
ATOM      9  C   UNL     1       0.321  12.609  19.501  0.00  0.00    +0.000 A 
ATOM     10  C   UNL     1      -0.481  13.680  19.080  0.00  0.00    +0.000 A 
ATOM     11  C   UNL     1       0.079  14.937  18.847  0.00  0.00    +0.000 A 
ATOM     12  C   UNL     1       1.449  15.124  19.005  0.00  0.00    +0.000 A 
ATOM     13 BR   UNL     1       2.213  16.814  18.641  0.00  0.00    +0.000 Br
ATOM     14  C   UNL     1       2.265  14.074  19.417  0.00  0.00    +0.000 A 
ATOM     15  C   UNL     1       1.700  12.826  19.675  0.00  0.00    +0.000 A 
ENDBRANCH   3   9
BRANCH   1  20
ATOM     16  C   UNL     1       2.939   6.069  19.542  0.00  0.00    +0.000 A 
ATOM     17  C   UNL     1       3.598   6.189  18.317  0.00  0.00    +0.000 A 
ATOM     18  C   UNL     1       3.426   7.328  17.532  0.00  0.00    +0.000 A 
ATOM     19  C   UNL     1       2.589   8.351  17.974  0.00  0.00    +0.000 A 
ATOM     20  C   UNL     1       1.908   8.244  19.197  0.00  0.00    +0.000 A 
ATOM     21  C   UNL     1       2.100   7.098  19.978  0.00  0.00    +0.000 A 
BRANCH  16  23
ATOM     22  C   UNL     1       2.133   4.424  21.045  0.00  0.00    +0.000 C 
ATOM     23  O   UNL     1       3.188   4.908  20.222  0.00  0.00    +0.000 OA
ENDBRANCH  16  23
ENDBRANCH   1  20
BRANCH   5  24
ATOM     24  C   UNL     1      -1.427  12.293  22.462  0.00  0.00    +0.000 A 
ATOM     25  C   UNL     1      -2.805  12.213  22.281  0.00  0.00    +0.000 A 
ATOM     26  C   UNL     1      -3.546  13.381  22.297  0.00  0.00    +0.000 A 
ATOM     27  N   UNL     1      -3.026  14.589  22.577  0.00  0.00    +0.000 NA
ATOM     28  C   UNL     1      -1.708  14.631  22.864  0.00  0.00    +0.000 A 
ATOM     29  C   UNL     1      -0.873  13.526  22.813  0.00  0.00    +0.000 A 
ENDBRANCH   5  24
TORSDOF 4
ENDMDL
MODEL 2
REMARK VINA RESULT:      -7.3      0.165      1.282
REMARK  Name = 
REMARK  5 active torsions:
REMARK  status: ('A' for Active; 'I' for Inactive)
REMARK    1  A    between atoms: C_1  and  O_2
REMARK    2  A    between atoms: O_2  and  C_3
REMARK    3  A    between atoms: C_7  and  C_8
REMARK    4  A    between atoms: C_10  and  C_11
REMARK    5  A    between atoms: C_19  and  C_21
REMARK                            x       y       z     vdW  Elec       q    Type
REMARK                         _______ _______ _______ _____ _____    ______ ____
ROOT
ATOM      1  C   UNL     1       1.059   9.299  19.633  0.00  0.00    +0.000 C 
ATOM      2  C   UNL     1       0.467  10.215  18.856  0.00  0.00    +0.000 C 
ATOM      3  C   UNL     1      -0.226  11.239  19.710  0.00  0.00    +0.000 C 
ATOM      4  N   UNL     1      -0.026  10.697  21.076  0.00  0.00    +0.000 N 
ATOM      5  C   UNL     1      -0.457  11.086  22.338  0.00  0.00    +0.000 C 
ATOM      6  O   UNL     1      -0.081  10.528  23.370  0.00  0.00    +0.000 OA
ATOM      7  N   UNL     1       0.732   9.488  20.966  0.00  0.00    +0.000 N 
ATOM      8  H   UNL     1       1.519   9.435  21.617  0.00  0.00    +0.000 HD
ENDROOT
BRANCH   3   9
ATOM      9  C   UNL     1       0.393  12.609  19.514  0.00  0.00    +0.000 A 
ATOM     10  C   UNL     1       1.735  12.831  19.856  0.00  0.00    +0.000 A 
ATOM     11  C   UNL     1       2.302  14.099  19.714  0.00  0.00    +0.000 A 
ATOM     12  C   UNL     1       1.524  15.158  19.256  0.00  0.00    +0.000 A 
ATOM     13 BR   UNL     1       2.280  16.883  19.111  0.00  0.00    +0.000 Br
ATOM     14  C   UNL     1       0.189  14.960  18.915  0.00  0.00    +0.000 A 
ATOM     15  C   UNL     1      -0.370  13.688  19.032  0.00  0.00    +0.000 A 
ENDBRANCH   3   9
BRANCH   1  20
ATOM     16  C   UNL     1       2.944   6.038  19.473  0.00  0.00    +0.000 A 
ATOM     17  C   UNL     1       3.623   6.178  18.261  0.00  0.00    +0.000 A 
ATOM     18  C   UNL     1       3.479   7.337  17.500  0.00  0.00    +0.000 A 
ATOM     19  C   UNL     1       2.650   8.361  17.953  0.00  0.00    +0.000 A 
ATOM     20  C   UNL     1       1.948   8.235  19.163  0.00  0.00    +0.000 A 
ATOM     21  C   UNL     1       2.113   7.069  19.920  0.00  0.00    +0.000 A 
BRANCH  16  23
ATOM     22  C   UNL     1       2.200   4.491  21.106  0.00  0.00    +0.000 C 
ATOM     23  O   UNL     1       3.168   4.859  20.130  0.00  0.00    +0.000 OA
ENDBRANCH  16  23
ENDBRANCH   1  20
BRANCH   5  24
ATOM     24  C   UNL     1      -1.358  12.272  22.471  0.00  0.00    +0.000 A 
ATOM     25  C   UNL     1      -0.895  13.549  22.781  0.00  0.00    +0.000 A 
ATOM     26  C   UNL     1      -1.819  14.556  22.998  0.00  0.00    +0.000 A 
ATOM     27  N   UNL     1      -3.143  14.400  22.830  0.00  0.00    +0.000 NA
ATOM     28  C   UNL     1      -3.565  13.186  22.417  0.00  0.00    +0.000 A 
ATOM     29  C   UNL     1      -2.724  12.101  22.234  0.00  0.00    +0.000 A 
ENDBRANCH   5  24
TORSDOF 4
ENDMDL
MODEL 3
REMARK VINA RESULT:      -7.1      1.146      1.993
REMARK  Name = 
REMARK  5 active torsions:
REMARK  status: ('A' for Active; 'I' for Inactive)
REMARK    1  A    between atoms: C_1  and  O_2
REMARK    2  A    between atoms: O_2  and  C_3
REMARK    3  A    between atoms: C_7  and  C_8
REMARK    4  A    between atoms: C_10  and  C_11
REMARK    5  A    between atoms: C_19  and  C_21
REMARK                            x       y       z     vdW  Elec       q    Type
REMARK                         _______ _______ _______ _____ _____    ______ ____
ROOT
ATOM      1  C   UNL     1       1.305   9.023  19.421  0.00  0.00    +0.000 C 
ATOM      2  C   UNL     1       0.741   9.891  18.573  0.00  0.00    +0.000 C 
ATOM      3  C   UNL     1       0.038  10.974  19.343  0.00  0.00    +0.000 C 
ATOM      4  N   UNL     1       0.201  10.519  20.745  0.00  0.00    +0.000 N 
ATOM      5  C   UNL     1      -0.256  10.993  21.969  0.00  0.00    +0.000 C 
ATOM      6  O   UNL     1       0.090  10.499  23.043  0.00  0.00    +0.000 OA
ATOM      7  N   UNL     1       0.949   9.300  20.731  0.00  0.00    +0.000 N 
ATOM      8  H   UNL     1       1.719   9.282  21.403  0.00  0.00    +0.000 HD
ENDROOT
BRANCH   3   9
ATOM      9  C   UNL     1       0.675  12.323  19.074  0.00  0.00    +0.000 A 
ATOM     10  C   UNL     1       2.069  12.465  19.119  0.00  0.00    +0.000 A 
ATOM     11  C   UNL     1       2.663  13.712  18.910  0.00  0.00    +0.000 A 
ATOM     12  C   UNL     1       1.863  14.829  18.683  0.00  0.00    +0.000 A 
ATOM     13 BR   UNL     1       2.666  16.524  18.450  0.00  0.00    +0.000 Br
ATOM     14  C   UNL     1       0.478  14.711  18.640  0.00  0.00    +0.000 A 
ATOM     15  C   UNL     1      -0.113  13.461  18.822  0.00  0.00    +0.000 A 
ENDBRANCH   3   9
BRANCH   1  20
ATOM     16  C   UNL     1       3.819   6.967  17.506  0.00  0.00    +0.000 A 
ATOM     17  C   UNL     1       3.923   5.839  18.322  0.00  0.00    +0.000 A 
ATOM     18  C   UNL     1       3.168   5.739  19.490  0.00  0.00    +0.000 A 
ATOM     19  C   UNL     1       2.305   6.775  19.843  0.00  0.00    +0.000 A 
ATOM     20  C   UNL     1       2.194   7.923  19.042  0.00  0.00    +0.000 A 
ATOM     21  C   UNL     1       2.952   8.002  17.868  0.00  0.00    +0.000 A 
BRANCH  16  23
ATOM     22  C   UNL     1       5.280   5.724  16.115  0.00  0.00    +0.000 C 
ATOM     23  O   UNL     1       4.607   6.948  16.388  0.00  0.00    +0.000 OA
ENDBRANCH  16  23
ENDBRANCH   1  20
BRANCH   5  24
ATOM     24  C   UNL     1      -1.148  12.193  22.004  0.00  0.00    +0.000 A 
ATOM     25  C   UNL     1      -2.500  12.146  21.672  0.00  0.00    +0.000 A 
ATOM     26  C   UNL     1      -3.213  13.330  21.622  0.00  0.00    +0.000 A 
ATOM     27  N   UNL     1      -2.702  14.523  21.972  0.00  0.00    +0.000 NA
ATOM     28  C   UNL     1      -1.422  14.533  22.401  0.00  0.00    +0.000 A 
ATOM     29  C   UNL     1      -0.610  13.410  22.428  0.00  0.00    +0.000 A 
ENDBRANCH   5  24
TORSDOF 4
ENDMDL
MODEL 4
REMARK VINA RESULT:      -7.1      0.955      1.671
REMARK  Name = 
REMARK  5 active torsions:
REMARK  status: ('A' for Active; 'I' for Inactive)
REMARK    1  A    between atoms: C_1  and  O_2
REMARK    2  A    between atoms: O_2  and  C_3
REMARK    3  A    between atoms: C_7  and  C_8
REMARK    4  A    between atoms: C_10  and  C_11
REMARK    5  A    between atoms: C_19  and  C_21
REMARK                            x       y       z     vdW  Elec       q    Type
REMARK                         _______ _______ _______ _____ _____    ______ ____
ROOT
ATOM      1  C   UNL     1       1.011   9.131  19.772  0.00  0.00    +0.000 C 
ATOM      2  C   UNL     1       0.447  10.019  18.944  0.00  0.00    +0.000 C 
ATOM      3  C   UNL     1      -0.246  11.091  19.739  0.00  0.00    +0.000 C 
ATOM      4  N   UNL     1      -0.076  10.608  21.131  0.00  0.00    +0.000 N 
ATOM      5  C   UNL     1      -0.522  11.061  22.366  0.00  0.00    +0.000 C 
ATOM      6  O   UNL     1      -0.171  10.546  23.429  0.00  0.00    +0.000 OA
ATOM      7  N   UNL     1       0.666   9.386  21.089  0.00  0.00    +0.000 N 
ATOM      8  H   UNL     1       1.440   9.351  21.755  0.00  0.00    +0.000 HD
ENDROOT
BRANCH   3   9
ATOM      9  C   UNL     1       0.398  12.441  19.491  0.00  0.00    +0.000 A 
ATOM     10  C   UNL     1      -0.381  13.524  19.058  0.00  0.00    +0.000 A 
ATOM     11  C   UNL     1       0.210  14.760  18.791  0.00  0.00    +0.000 A 
ATOM     12  C   UNL     1       1.586  14.914  18.930  0.00  0.00    +0.000 A 
ATOM     13 BR   UNL     1       2.391  16.574  18.521  0.00  0.00    +0.000 Br
ATOM     14  C   UNL     1       2.378  13.851  19.354  0.00  0.00    +0.000 A 
ATOM     15  C   UNL     1       1.784  12.624  19.645  0.00  0.00    +0.000 A 
ENDBRANCH   3   9
BRANCH   1  20
ATOM     16  C   UNL     1       3.501   7.099  17.801  0.00  0.00    +0.000 A 
ATOM     17  C   UNL     1       3.605   5.955  18.596  0.00  0.00    +0.000 A 
ATOM     18  C   UNL     1       2.858   5.838  19.766  0.00  0.00    +0.000 A 
ATOM     19  C   UNL     1       2.002   6.871  20.145  0.00  0.00    +0.000 A 
ATOM     20  C   UNL     1       1.892   8.034  19.367  0.00  0.00    +0.000 A 
ATOM     21  C   UNL     1       2.643   8.131  18.188  0.00  0.00    +0.000 A 
BRANCH  16  23
ATOM     22  C   UNL     1       5.640   6.711  16.858  0.00  0.00    +0.000 C 
ATOM     23  O   UNL     1       4.282   7.096  16.677  0.00  0.00    +0.000 OA
ENDBRANCH  16  23
ENDBRANCH   1  20
BRANCH   5  24
ATOM     24  C   UNL     1      -1.407  12.265  22.430  0.00  0.00    +0.000 A 
ATOM     25  C   UNL     1      -2.781  12.212  22.203  0.00  0.00    +0.000 A 
ATOM     26  C   UNL     1      -3.494  13.397  22.168  0.00  0.00    +0.000 A 
ATOM     27  N   UNL     1      -2.956  14.599  22.440  0.00  0.00    +0.000 NA
ATOM     28  C   UNL     1      -1.647  14.617  22.772  0.00  0.00    +0.000 A 
ATOM     29  C   UNL     1      -0.837  13.493  22.773  0.00  0.00    +0.000 A 
ENDBRANCH   5  24
TORSDOF 4
ENDMDL
MODEL 5
REMARK VINA RESULT:      -6.8      2.942      3.967
REMARK  Name = 
REMARK  5 active torsions:
REMARK  status: ('A' for Active; 'I' for Inactive)
REMARK    1  A    between atoms: C_1  and  O_2
REMARK    2  A    between atoms: O_2  and  C_3
REMARK    3  A    between atoms: C_7  and  C_8
REMARK    4  A    between atoms: C_10  and  C_11
REMARK    5  A    between atoms: C_19  and  C_21
REMARK                            x       y       z     vdW  Elec       q    Type
REMARK                         _______ _______ _______ _____ _____    ______ ____
ROOT
ATOM      1  C   UNL     1       2.015   8.763  18.697  0.00  0.00    +0.000 C 
ATOM      2  C   UNL     1       0.942   8.923  19.480  0.00  0.00    +0.000 C 
ATOM      3  C   UNL     1       0.586  10.381  19.568  0.00  0.00    +0.000 C 
ATOM      4  N   UNL     1       1.686  11.019  18.806  0.00  0.00    +0.000 N 
ATOM      5  C   UNL     1       2.034  12.338  18.542  0.00  0.00    +0.000 C 
ATOM      6  O   UNL     1       2.958  12.644  17.787  0.00  0.00    +0.000 OA
ATOM      7  N   UNL     1       2.553   9.986  18.330  0.00  0.00    +0.000 N 
ATOM      8  H   UNL     1       2.795  10.074  17.341  0.00  0.00    +0.000 HD
ENDROOT
BRANCH   3   9
ATOM      9  C   UNL     1      -0.783  10.636  18.968  0.00  0.00    +0.000 A 
ATOM     10  C   UNL     1      -1.132  10.059  17.738  0.00  0.00    +0.000 A 
ATOM     11  C   UNL     1      -2.375  10.319  17.160  0.00  0.00    +0.000 A 
ATOM     12  C   UNL     1      -3.267  11.179  17.795  0.00  0.00    +0.000 A 
ATOM     13 BR   UNL     1      -4.930  11.569  16.987  0.00  0.00    +0.000 Br
ATOM     14  C   UNL     1      -2.939  11.766  19.013  0.00  0.00    +0.000 A 
ATOM     15  C   UNL     1      -1.707  11.485  19.603  0.00  0.00    +0.000 A 
ENDBRANCH   3   9
BRANCH   1  20
ATOM     16  C   UNL     1       2.412   5.052  18.165  0.00  0.00    +0.000 A 
ATOM     17  C   UNL     1       3.583   5.012  17.405  0.00  0.00    +0.000 A 
ATOM     18  C   UNL     1       4.252   6.189  17.074  0.00  0.00    +0.000 A 
ATOM     19  C   UNL     1       3.745   7.414  17.506  0.00  0.00    +0.000 A 
ATOM     20  C   UNL     1       2.563   7.477  18.261  0.00  0.00    +0.000 A 
ATOM     21  C   UNL     1       1.910   6.284  18.592  0.00  0.00    +0.000 A 
BRANCH  16  23
ATOM     22  C   UNL     1       1.112   3.729  19.639  0.00  0.00    +0.000 C 
ATOM     23  O   UNL     1       1.849   3.832  18.426  0.00  0.00    +0.000 OA
ENDBRANCH  16  23
ENDBRANCH   1  20
BRANCH   5  24
ATOM     24  C   UNL     1       1.220  13.444  19.135  0.00  0.00    +0.000 A 
ATOM     25  C   UNL     1       0.268  14.160  18.413  0.00  0.00    +0.000 A 
ATOM     26  C   UNL     1      -0.349  15.241  19.017  0.00  0.00    +0.000 A 
ATOM     27  N   UNL     1      -0.157  15.586  20.302  0.00  0.00    +0.000 NA
ATOM     28  C   UNL     1       0.682  14.810  21.020  0.00  0.00    +0.000 A 
ATOM     29  C   UNL     1       1.393  13.746  20.488  0.00  0.00    +0.000 A 
ENDBRANCH   5  24
TORSDOF 4
ENDMDL
MODEL 6
REMARK VINA RESULT:      -6.8      3.084      4.307
REMARK  Name = 
REMARK  5 active torsions:
REMARK  status: ('A' for Active; 'I' for Inactive)
REMARK    1  A    between atoms: C_1  and  O_2
REMARK    2  A    between atoms: O_2  and  C_3
REMARK    3  A    between atoms: C_7  and  C_8
REMARK    4  A    between atoms: C_10  and  C_11
REMARK    5  A    between atoms: C_19  and  C_21
REMARK                            x       y       z     vdW  Elec       q    Type
REMARK                         _______ _______ _______ _____ _____    ______ ____
ROOT
ATOM      1  C   UNL     1       2.043   8.725  18.627  0.00  0.00    +0.000 C 
ATOM      2  C   UNL     1       0.971   8.873  19.414  0.00  0.00    +0.000 C 
ATOM      3  C   UNL     1       0.613  10.329  19.524  0.00  0.00    +0.000 C 
ATOM      4  N   UNL     1       1.711  10.979  18.770  0.00  0.00    +0.000 N 
ATOM      5  C   UNL     1       2.057  12.303  18.524  0.00  0.00    +0.000 C 
ATOM      6  O   UNL     1       2.979  12.620  17.772  0.00  0.00    +0.000 OA
ATOM      7  N   UNL     1       2.578   9.954  18.277  0.00  0.00    +0.000 N 
ATOM      8  H   UNL     1       2.818  10.057  17.288  0.00  0.00    +0.000 HD
ENDROOT
BRANCH   3   9
ATOM      9  C   UNL     1      -0.757  10.590  18.930  0.00  0.00    +0.000 A 
ATOM     10  C   UNL     1      -1.114  10.018  17.701  0.00  0.00    +0.000 A 
ATOM     11  C   UNL     1      -2.359  10.284  17.129  0.00  0.00    +0.000 A 
ATOM     12  C   UNL     1      -3.244  11.147  17.769  0.00  0.00    +0.000 A 
ATOM     13 BR   UNL     1      -4.909  11.545  16.969  0.00  0.00    +0.000 Br
ATOM     14  C   UNL     1      -2.909  11.730  18.988  0.00  0.00    +0.000 A 
ATOM     15  C   UNL     1      -1.676  11.442  19.571  0.00  0.00    +0.000 A 
ENDBRANCH   3   9
BRANCH   1  20
ATOM     16  C   UNL     1       4.380   6.183  17.114  0.00  0.00    +0.000 A 
ATOM     17  C   UNL     1       3.664   5.002  17.319  0.00  0.00    +0.000 A 
ATOM     18  C   UNL     1       2.416   5.031  17.939  0.00  0.00    +0.000 A 
ATOM     19  C   UNL     1       1.881   6.249  18.356  0.00  0.00    +0.000 A 
ATOM     20  C   UNL     1       2.590   7.447  18.171  0.00  0.00    +0.000 A 
ATOM     21  C   UNL     1       3.838   7.400  17.537  0.00  0.00    +0.000 A 
BRANCH  16  23
ATOM     22  C   UNL     1       5.561   5.439  15.200  0.00  0.00    +0.000 C 
ATOM     23  O   UNL     1       5.590   6.027  16.495  0.00  0.00    +0.000 OA
ENDBRANCH  16  23
ENDBRANCH   1  20
BRANCH   5  24
ATOM     24  C   UNL     1       1.242  13.398  19.135  0.00  0.00    +0.000 A 
ATOM     25  C   UNL     1       0.294  14.129  18.423  0.00  0.00    +0.000 A 
ATOM     26  C   UNL     1      -0.324  15.200  19.044  0.00  0.00    +0.000 A 
ATOM     27  N   UNL     1      -0.135  15.521  20.336  0.00  0.00    +0.000 NA
ATOM     28  C   UNL     1       0.701  14.731  21.043  0.00  0.00    +0.000 A 
ATOM     29  C   UNL     1       1.411  13.675  20.493  0.00  0.00    +0.000 A 
ENDBRANCH   5  24
TORSDOF 4
ENDMDL
MODEL 7
REMARK VINA RESULT:      -6.8      2.808      3.876
REMARK  Name = 
REMARK  5 active torsions:
REMARK  status: ('A' for Active; 'I' for Inactive)
REMARK    1  A    between atoms: C_1  and  O_2
REMARK    2  A    between atoms: O_2  and  C_3
REMARK    3  A    between atoms: C_7  and  C_8
REMARK    4  A    between atoms: C_10  and  C_11
REMARK    5  A    between atoms: C_19  and  C_21
REMARK                            x       y       z     vdW  Elec       q    Type
REMARK                         _______ _______ _______ _____ _____    ______ ____
ROOT
ATOM      1  C   UNL     1       1.467   8.897  19.685  0.00  0.00    +0.000 C 
ATOM      2  C   UNL     1       0.436   9.306  20.433  0.00  0.00    +0.000 C 
ATOM      3  C   UNL     1       0.207  10.777  20.230  0.00  0.00    +0.000 C 
ATOM      4  N   UNL     1       1.335  11.150  19.341  0.00  0.00    +0.000 N 
ATOM      5  C   UNL     1       1.785  12.353  18.812  0.00  0.00    +0.000 C 
ATOM      6  O   UNL     1       2.709  12.418  17.999  0.00  0.00    +0.000 OA
ATOM      7  N   UNL     1       2.096   9.969  19.072  0.00  0.00    +0.000 N 
ATOM      8  H   UNL     1       2.314   9.836  18.082  0.00  0.00    +0.000 HD
ENDROOT
BRANCH   3   9
ATOM      9  C   UNL     1      -1.152  11.029  19.608  0.00  0.00    +0.000 A 
ATOM     10  C   UNL     1      -1.530  10.349  18.441  0.00  0.00    +0.000 A 
ATOM     11  C   UNL     1      -2.764  10.603  17.841  0.00  0.00    +0.000 A 
ATOM     12  C   UNL     1      -3.617  11.557  18.389  0.00  0.00    +0.000 A 
ATOM     13 BR   UNL     1      -5.267  11.934  17.547  0.00  0.00    +0.000 Br
ATOM     14  C   UNL     1      -3.260  12.246  19.543  0.00  0.00    +0.000 A 
ATOM     15  C   UNL     1      -2.038  11.974  20.157  0.00  0.00    +0.000 A 
ENDBRANCH   3   9
BRANCH   1  20
ATOM     16  C   UNL     1       2.116   5.251  20.389  0.00  0.00    +0.000 A 
ATOM     17  C   UNL     1       2.666   4.835  19.175  0.00  0.00    +0.000 A 
ATOM     18  C   UNL     1       2.837   5.741  18.129  0.00  0.00    +0.000 A 
ATOM     19  C   UNL     1       2.456   7.071  18.300  0.00  0.00    +0.000 A 
ATOM     20  C   UNL     1       1.890   7.506  19.509  0.00  0.00    +0.000 A 
ATOM     21  C   UNL     1       1.734   6.585  20.551  0.00  0.00    +0.000 A 
BRANCH  16  23
ATOM     22  C   UNL     1       1.409   3.050  20.910  0.00  0.00    +0.000 C 
ATOM     23  O   UNL     1       2.000   4.272  21.338  0.00  0.00    +0.000 OA
ENDBRANCH  16  23
ENDBRANCH   1  20
BRANCH   5  24
ATOM     24  C   UNL     1       1.086  13.623  19.181  0.00  0.00    +0.000 A 
ATOM     25  C   UNL     1       0.097  14.204  18.391  0.00  0.00    +0.000 A 
ATOM     26  C   UNL     1      -0.406  15.440  18.758  0.00  0.00    +0.000 A 
ATOM     27  N   UNL     1      -0.066  16.074  19.893  0.00  0.00    +0.000 NA
ATOM     28  C   UNL     1       0.808  15.442  20.705  0.00  0.00    +0.000 A 
ATOM     29  C   UNL     1       1.412  14.234  20.393  0.00  0.00    +0.000 A 
ENDBRANCH   5  24
TORSDOF 4
ENDMDL
MODEL 8
REMARK VINA RESULT:      -6.7      3.018      4.030
REMARK  Name = 
REMARK  5 active torsions:
REMARK  status: ('A' for Active; 'I' for Inactive)
REMARK    1  A    between atoms: C_1  and  O_2
REMARK    2  A    between atoms: O_2  and  C_3
REMARK    3  A    between atoms: C_7  and  C_8
REMARK    4  A    between atoms: C_10  and  C_11
REMARK    5  A    between atoms: C_19  and  C_21
REMARK                            x       y       z     vdW  Elec       q    Type
REMARK                         _______ _______ _______ _____ _____    ______ ____
ROOT
ATOM      1  C   UNL     1       2.004   8.789  18.655  0.00  0.00    +0.000 C 
ATOM      2  C   UNL     1       0.923   8.953  19.426  0.00  0.00    +0.000 C 
ATOM      3  C   UNL     1       0.582  10.413  19.528  0.00  0.00    +0.000 C 
ATOM      4  N   UNL     1       1.700  11.048  18.788  0.00  0.00    +0.000 N 
ATOM      5  C   UNL     1       2.066  12.366  18.545  0.00  0.00    +0.000 C 
ATOM      6  O   UNL     1       3.004  12.669  17.805  0.00  0.00    +0.000 OA
ATOM      7  N   UNL     1       2.561  10.010  18.310  0.00  0.00    +0.000 N 
ATOM      8  H   UNL     1       2.816  10.107  17.325  0.00  0.00    +0.000 HD
ENDROOT
BRANCH   3   9
ATOM      9  C   UNL     1      -0.776  10.691  18.913  0.00  0.00    +0.000 A 
ATOM     10  C   UNL     1      -1.679  11.549  19.557  0.00  0.00    +0.000 A 
ATOM     11  C   UNL     1      -2.945  11.780  19.018  0.00  0.00    +0.000 A 
ATOM     12  C   UNL     1      -3.326  11.134  17.845  0.00  0.00    +0.000 A 
ATOM     13 BR   UNL     1      -5.058  11.411  17.142  0.00  0.00    +0.000 Br
ATOM     14  C   UNL     1      -2.447  10.276  17.192  0.00  0.00    +0.000 A 
ATOM     15  C   UNL     1      -1.173  10.065  17.717  0.00  0.00    +0.000 A 
ENDBRANCH   3   9
BRANCH   1  20
ATOM     16  C   UNL     1       2.320   5.090  18.000  0.00  0.00    +0.000 A 
ATOM     17  C   UNL     1       3.546   5.037  17.334  0.00  0.00    +0.000 A 
ATOM     18  C   UNL     1       4.277   6.202  17.108  0.00  0.00    +0.000 A 
ATOM     19  C   UNL     1       3.779   7.427  17.549  0.00  0.00    +0.000 A 
ATOM     20  C   UNL     1       2.542   7.503  18.209  0.00  0.00    +0.000 A 
ATOM     21  C   UNL     1       1.825   6.321  18.438  0.00  0.00    +0.000 A 
BRANCH  16  23
ATOM     22  C   UNL     1       2.405   2.742  17.691  0.00  0.00    +0.000 C 
ATOM     23  O   UNL     1       1.697   3.882  18.165  0.00  0.00    +0.000 OA
ENDBRANCH  16  23
ENDBRANCH   1  20
BRANCH   5  24
ATOM     24  C   UNL     1       1.257  13.474  19.141  0.00  0.00    +0.000 A 
ATOM     25  C   UNL     1       0.332  14.217  18.412  0.00  0.00    +0.000 A 
ATOM     26  C   UNL     1      -0.280  15.297  19.023  0.00  0.00    +0.000 A 
ATOM     27  N   UNL     1      -0.109  15.616  20.317  0.00  0.00    +0.000 NA
ATOM     28  C   UNL     1       0.703  14.815  21.039  0.00  0.00    +0.000 A 
ATOM     29  C   UNL     1       1.407  13.749  20.502  0.00  0.00    +0.000 A 
ENDBRANCH   5  24
TORSDOF 4
ENDMDL
