MODEL 1
REMARK VINA RESULT:      -8.1      0.000      0.000
REMARK  Name = 
REMARK  8 active torsions:
REMARK  status: ('A' for Active; 'I' for Inactive)
REMARK    1  A    between atoms: C_1  and  O_2
REMARK    2  A    between atoms: O_2  and  C_3
REMARK    3  A    between atoms: C_3  and  C_4
REMARK    4  A    between atoms: C_4  and  N_5
REMARK    5  A    between atoms: C_9  and  S_10
REMARK    6  A    between atoms: S_10  and  C_13
REMARK    7  A    between atoms: C_16  and  C_17
REMARK    8  A    between atoms: C_18  and  C_19
REMARK                            x       y       z     vdW  Elec       q    Type
REMARK                         _______ _______ _______ _____ _____    ______ ____
ROOT
ATOM      1  N   UNL     1       2.979   4.791  20.520  0.00  0.00    +0.000 N 
ATOM      2  C   UNL     1       2.982   5.834  19.622  0.00  0.00    +0.000 A 
ATOM      3  N   UNL     1       2.170   6.855  19.819  0.00  0.00    +0.000 NA
ATOM      4  C   UNL     1       2.199   7.921  18.951  0.00  0.00    +0.000 A 
ATOM      5  C   UNL     1       1.557   9.143  18.893  0.00  0.00    +0.000 A 
ATOM      6  N   UNL     1       1.956   9.831  17.767  0.00  0.00    +0.000 NA
ATOM      7  N   UNL     1       2.848   9.089  17.121  0.00  0.00    +0.000 NA
ATOM      8  N   UNL     1       3.022   7.958  17.829  0.00  0.00    +0.000 N 
ATOM      9  C   UNL     1       3.877   6.878  17.545  0.00  0.00    +0.000 A 
ATOM     10  C   UNL     1       4.760   6.671  16.462  0.00  0.00    +0.000 A 
ATOM     11  C   UNL     1       5.380   5.439  16.578  0.00  0.00    +0.000 A 
ATOM     12  S   UNL     1       4.898   4.588  17.996  0.00  0.00    +0.000 S 
ATOM     13  C   UNL     1       3.851   5.842  18.447  0.00  0.00    +0.000 A 
ATOM     14  H   UNL     1       3.488   3.963  20.218  0.00  0.00    +0.000 HD
ENDROOT
BRANCH   5  15
ATOM     15  S   UNL     1       0.435   9.794  20.026  0.00  0.00    +0.000 S 
ATOM     16  O   UNL     1      -0.007   8.676  20.835  0.00  0.00    +0.000 OA
ATOM     17  O   UNL     1       1.106  10.936  20.624  0.00  0.00    +0.000 OA
BRANCH  15  18
ATOM     18  C   UNL     1      -0.951  10.420  19.112  0.00  0.00    +0.000 A 
ATOM     19  C   UNL     1      -1.745  11.422  19.668  0.00  0.00    +0.000 A 
ATOM     20  C   UNL     1      -2.889  11.847  18.987  0.00  0.00    +0.000 A 
ATOM     21  C   UNL     1      -3.257  11.277  17.754  0.00  0.00    +0.000 A 
ATOM     22  C   UNL     1      -4.506  11.768  17.072  0.00  0.00    +0.000 C 
ATOM     23  C   UNL     1      -2.456  10.258  17.198  0.00  0.00    +0.000 A 
ATOM     24  C   UNL     1      -2.789   9.575  15.897  0.00  0.00    +0.000 C 
ATOM     25  C   UNL     1      -1.304   9.835  17.891  0.00  0.00    +0.000 A 
ENDBRANCH  15  18
ENDBRANCH   5  15
BRANCH   1  26
ATOM     26  C   UNL     1       1.788   4.442  21.283  0.00  0.00    +0.000 C 
BRANCH  26  27
ATOM     27  C   UNL     1       1.331   3.029  20.904  0.00  0.00    +0.000 C 
BRANCH  27  29
ATOM     28  C   UNL     1       1.296   2.337  18.650  0.00  0.00    +0.000 C 
ATOM     29  O   UNL     1       0.624   3.082  19.658  0.00  0.00    +0.000 OA
ENDBRANCH  27  29
ENDBRANCH  26  27
ENDBRANCH   1  26
TORSDOF 5
ENDMDL
MODEL 2
REMARK VINA RESULT:      -7.8      2.146      4.012
REMARK  Name = 
REMARK  8 active torsions:
REMARK  status: ('A' for Active; 'I' for Inactive)
REMARK    1  A    between atoms: C_1  and  O_2
REMARK    2  A    between atoms: O_2  and  C_3
REMARK    3  A    between atoms: C_3  and  C_4
REMARK    4  A    between atoms: C_4  and  N_5
REMARK    5  A    between atoms: C_9  and  S_10
REMARK    6  A    between atoms: S_10  and  C_13
REMARK    7  A    between atoms: C_16  and  C_17
REMARK    8  A    between atoms: C_18  and  C_19
REMARK                            x       y       z     vdW  Elec       q    Type
REMARK                         _______ _______ _______ _____ _____    ______ ____
ROOT
ATOM      1  N   UNL     1       4.213   5.460  17.071  0.00  0.00    +0.000 N 
ATOM      2  C   UNL     1       3.449   5.840  18.151  0.00  0.00    +0.000 A 
ATOM      3  N   UNL     1       2.974   7.069  18.203  0.00  0.00    +0.000 NA
ATOM      4  C   UNL     1       2.173   7.443  19.257  0.00  0.00    +0.000 A 
ATOM      5  C   UNL     1       1.475   8.588  19.586  0.00  0.00    +0.000 A 
ATOM      6  N   UNL     1       0.840   8.419  20.798  0.00  0.00    +0.000 NA
ATOM      7  N   UNL     1       1.098   7.191  21.235  0.00  0.00    +0.000 NA
ATOM      8  N   UNL     1       1.871   6.589  20.314  0.00  0.00    +0.000 N 
ATOM      9  C   UNL     1       2.386   5.280  20.333  0.00  0.00    +0.000 A 
ATOM     10  C   UNL     1       2.255   4.260  21.302  0.00  0.00    +0.000 A 
ATOM     11  C   UNL     1       2.965   3.137  20.914  0.00  0.00    +0.000 A 
ATOM     12  S   UNL     1       3.742   3.340  19.390  0.00  0.00    +0.000 S 
ATOM     13  C   UNL     1       3.155   4.924  19.252  0.00  0.00    +0.000 A 
ATOM     14  H   UNL     1       4.695   4.569  17.177  0.00  0.00    +0.000 HD
ENDROOT
BRANCH   5  15
ATOM     15  S   UNL     1       1.346  10.040  18.668  0.00  0.00    +0.000 S 
ATOM     16  O   UNL     1       1.906  11.086  19.499  0.00  0.00    +0.000 OA
ATOM     17  O   UNL     1       1.913   9.727  17.367  0.00  0.00    +0.000 OA
BRANCH  15  18
ATOM     18  C   UNL     1      -0.380  10.369  18.422  0.00  0.00    +0.000 A 
ATOM     19  C   UNL     1      -1.042   9.793  17.340  0.00  0.00    +0.000 A 
ATOM     20  C   UNL     1      -2.377  10.128  17.094  0.00  0.00    +0.000 A 
ATOM     21  C   UNL     1      -3.062  11.042  17.917  0.00  0.00    +0.000 A 
ATOM     22  C   UNL     1      -4.495  11.373  17.598  0.00  0.00    +0.000 C 
ATOM     23  C   UNL     1      -2.386  11.629  19.007  0.00  0.00    +0.000 A 
ATOM     24  C   UNL     1      -3.033  12.635  19.923  0.00  0.00    +0.000 C 
ATOM     25  C   UNL     1      -1.041  11.286  19.247  0.00  0.00    +0.000 A 
ENDBRANCH  15  18
ENDBRANCH   5  15
BRANCH   1  26
ATOM     26  C   UNL     1       5.018   6.421  16.328  0.00  0.00    +0.000 C 
BRANCH  26  27
ATOM     27  C   UNL     1       6.386   5.809  16.012  0.00  0.00    +0.000 C 
BRANCH  27  29
ATOM     28  C   UNL     1       7.523   6.533  17.947  0.00  0.00    +0.000 C 
ATOM     29  O   UNL     1       7.414   6.661  16.535  0.00  0.00    +0.000 OA
ENDBRANCH  27  29
ENDBRANCH  26  27
ENDBRANCH   1  26
TORSDOF 5
ENDMDL
MODEL 3
REMARK VINA RESULT:      -7.8      2.126      3.750
REMARK  Name = 
REMARK  8 active torsions:
REMARK  status: ('A' for Active; 'I' for Inactive)
REMARK    1  A    between atoms: C_1  and  O_2
REMARK    2  A    between atoms: O_2  and  C_3
REMARK    3  A    between atoms: C_3  and  C_4
REMARK    4  A    between atoms: C_4  and  N_5
REMARK    5  A    between atoms: C_9  and  S_10
REMARK    6  A    between atoms: S_10  and  C_13
REMARK    7  A    between atoms: C_16  and  C_17
REMARK    8  A    between atoms: C_18  and  C_19
REMARK                            x       y       z     vdW  Elec       q    Type
REMARK                         _______ _______ _______ _____ _____    ______ ____
ROOT
ATOM      1  N   UNL     1       4.387   5.661  17.228  0.00  0.00    +0.000 N 
ATOM      2  C   UNL     1       3.542   6.017  18.254  0.00  0.00    +0.000 A 
ATOM      3  N   UNL     1       3.070   7.248  18.300  0.00  0.00    +0.000 NA
ATOM      4  C   UNL     1       2.191   7.600  19.298  0.00  0.00    +0.000 A 
ATOM      5  C   UNL     1       1.474   8.740  19.602  0.00  0.00    +0.000 A 
ATOM      6  N   UNL     1       0.745   8.544  20.755  0.00  0.00    +0.000 NA
ATOM      7  N   UNL     1       0.962   7.304  21.179  0.00  0.00    +0.000 NA
ATOM      8  N   UNL     1       1.802   6.721  20.305  0.00  0.00    +0.000 N 
ATOM      9  C   UNL     1       2.309   5.408  20.331  0.00  0.00    +0.000 A 
ATOM     10  C   UNL     1       2.097   4.364  21.259  0.00  0.00    +0.000 A 
ATOM     11  C   UNL     1       2.830   3.247  20.899  0.00  0.00    +0.000 A 
ATOM     12  S   UNL     1       3.725   3.484  19.446  0.00  0.00    +0.000 S 
ATOM     13  C   UNL     1       3.158   5.076  19.304  0.00  0.00    +0.000 A 
ATOM     14  H   UNL     1       4.854   4.764  17.348  0.00  0.00    +0.000 HD
ENDROOT
BRANCH   5  15
ATOM     15  S   UNL     1       1.424  10.216  18.715  0.00  0.00    +0.000 S 
ATOM     16  O   UNL     1       2.031  11.215  19.572  0.00  0.00    +0.000 OA
ATOM     17  O   UNL     1       1.983   9.904  17.410  0.00  0.00    +0.000 OA
BRANCH  15  18
ATOM     18  C   UNL     1      -0.282  10.638  18.467  0.00  0.00    +0.000 A 
ATOM     19  C   UNL     1      -0.916  11.491  19.369  0.00  0.00    +0.000 A 
ATOM     20  C   UNL     1      -2.283  11.748  19.225  0.00  0.00    +0.000 A 
ATOM     21  C   UNL     1      -3.030  11.155  18.190  0.00  0.00    +0.000 A 
ATOM     22  C   UNL     1      -4.501  11.459  18.091  0.00  0.00    +0.000 C 
ATOM     23  C   UNL     1      -2.386  10.286  17.284  0.00  0.00    +0.000 A 
ATOM     24  C   UNL     1      -3.113   9.588  16.164  0.00  0.00    +0.000 C 
ATOM     25  C   UNL     1      -1.009  10.033  17.437  0.00  0.00    +0.000 A 
ENDBRANCH  15  18
ENDBRANCH   5  15
BRANCH   1  26
ATOM     26  C   UNL     1       5.251   6.635  16.575  0.00  0.00    +0.000 C 
BRANCH  26  27
ATOM     27  C   UNL     1       6.715   6.317  16.894  0.00  0.00    +0.000 C 
BRANCH  27  29
ATOM     28  C   UNL     1       7.039   4.606  15.303  0.00  0.00    +0.000 C 
ATOM     29  O   UNL     1       7.387   5.931  15.687  0.00  0.00    +0.000 OA
ENDBRANCH  27  29
ENDBRANCH  26  27
ENDBRANCH   1  26
TORSDOF 5
ENDMDL
MODEL 4
REMARK VINA RESULT:      -7.5      0.468      1.354
REMARK  Name = 
REMARK  8 active torsions:
REMARK  status: ('A' for Active; 'I' for Inactive)
REMARK    1  A    between atoms: C_1  and  O_2
REMARK    2  A    between atoms: O_2  and  C_3
REMARK    3  A    between atoms: C_3  and  C_4
REMARK    4  A    between atoms: C_4  and  N_5
REMARK    5  A    between atoms: C_9  and  S_10
REMARK    6  A    between atoms: S_10  and  C_13
REMARK    7  A    between atoms: C_16  and  C_17
REMARK    8  A    between atoms: C_18  and  C_19
REMARK                            x       y       z     vdW  Elec       q    Type
REMARK                         _______ _______ _______ _____ _____    ______ ____
ROOT
ATOM      1  N   UNL     1       2.963   4.633  20.343  0.00  0.00    +0.000 N 
ATOM      2  C   UNL     1       2.997   5.707  19.483  0.00  0.00    +0.000 A 
ATOM      3  N   UNL     1       2.203   6.736  19.708  0.00  0.00    +0.000 NA
ATOM      4  C   UNL     1       2.262   7.832  18.879  0.00  0.00    +0.000 A 
ATOM      5  C   UNL     1       1.645   9.068  18.858  0.00  0.00    +0.000 A 
ATOM      6  N   UNL     1       2.070   9.787  17.762  0.00  0.00    +0.000 NA
ATOM      7  N   UNL     1       2.955   9.051  17.099  0.00  0.00    +0.000 NA
ATOM      8  N   UNL     1       3.098   7.893  17.768  0.00  0.00    +0.000 N 
ATOM      9  C   UNL     1       3.935   6.806  17.454  0.00  0.00    +0.000 A 
ATOM     10  C   UNL     1       4.827   6.621  16.374  0.00  0.00    +0.000 A 
ATOM     11  C   UNL     1       5.422   5.374  16.452  0.00  0.00    +0.000 A 
ATOM     12  S   UNL     1       4.907   4.482  17.834  0.00  0.00    +0.000 S 
ATOM     13  C   UNL     1       3.879   5.740  18.318  0.00  0.00    +0.000 A 
ATOM     14  H   UNL     1       3.460   3.806  20.017  0.00  0.00    +0.000 HD
ENDROOT
BRANCH   5  15
ATOM     15  S   UNL     1       0.523   9.700  20.002  0.00  0.00    +0.000 S 
ATOM     16  O   UNL     1       0.189   8.599  20.882  0.00  0.00    +0.000 OA
ATOM     17  O   UNL     1       1.134  10.915  20.514  0.00  0.00    +0.000 OA
BRANCH  15  18
ATOM     18  C   UNL     1      -0.936  10.182  19.114  0.00  0.00    +0.000 A 
ATOM     19  C   UNL     1      -1.142   9.706  17.820  0.00  0.00    +0.000 A 
ATOM     20  C   UNL     1      -2.243  10.160  17.089  0.00  0.00    +0.000 A 
ATOM     21  C   UNL     1      -3.144  11.094  17.633  0.00  0.00    +0.000 A 
ATOM     22  C   UNL     1      -4.306  11.556  16.795  0.00  0.00    +0.000 C 
ATOM     23  C   UNL     1      -2.929  11.580  18.940  0.00  0.00    +0.000 A 
ATOM     24  C   UNL     1      -3.827  12.599  19.592  0.00  0.00    +0.000 C 
ATOM     25  C   UNL     1      -1.816  11.117  19.670  0.00  0.00    +0.000 A 
ENDBRANCH  15  18
ENDBRANCH   5  15
BRANCH   1  26
ATOM     26  C   UNL     1       1.757   4.280  21.079  0.00  0.00    +0.000 C 
BRANCH  26  27
ATOM     27  C   UNL     1       1.656   2.757  21.200  0.00  0.00    +0.000 C 
BRANCH  27  29
ATOM     28  C   UNL     1       0.730   2.571  19.039  0.00  0.00    +0.000 C 
ATOM     29  O   UNL     1       1.790   2.171  19.899  0.00  0.00    +0.000 OA
ENDBRANCH  27  29
ENDBRANCH  26  27
ENDBRANCH   1  26
TORSDOF 5
ENDMDL
MODEL 5
REMARK VINA RESULT:      -7.5      4.620      8.419
REMARK  Name = 
REMARK  8 active torsions:
REMARK  status: ('A' for Active; 'I' for Inactive)
REMARK    1  A    between atoms: C_1  and  O_2
REMARK    2  A    between atoms: O_2  and  C_3
REMARK    3  A    between atoms: C_3  and  C_4
REMARK    4  A    between atoms: C_4  and  N_5
REMARK    5  A    between atoms: C_9  and  S_10
REMARK    6  A    between atoms: S_10  and  C_13
REMARK    7  A    between atoms: C_16  and  C_17
REMARK    8  A    between atoms: C_18  and  C_19
REMARK                            x       y       z     vdW  Elec       q    Type
REMARK                         _______ _______ _______ _____ _____    ______ ____
ROOT
ATOM      1  N   UNL     1      -3.976  11.114  16.840  0.00  0.00    +0.000 N 
ATOM      2  C   UNL     1      -3.921  11.610  18.122  0.00  0.00    +0.000 A 
ATOM      3  N   UNL     1      -2.746  11.791  18.692  0.00  0.00    +0.000 NA
ATOM      4  C   UNL     1      -2.681  12.326  19.958  0.00  0.00    +0.000 A 
ATOM      5  C   UNL     1      -1.654  12.701  20.801  0.00  0.00    +0.000 A 
ATOM      6  N   UNL     1      -2.170  13.172  21.990  0.00  0.00    +0.000 NA
ATOM      7  N   UNL     1      -3.496  13.128  21.914  0.00  0.00    +0.000 NA
ATOM      8  N   UNL     1      -3.815  12.650  20.698  0.00  0.00    +0.000 N 
ATOM      9  C   UNL     1      -5.096  12.437  20.157  0.00  0.00    +0.000 A 
ATOM     10  C   UNL     1      -6.374  12.645  20.723  0.00  0.00    +0.000 A 
ATOM     11  C   UNL     1      -7.361  12.264  19.831  0.00  0.00    +0.000 A 
ATOM     12  S   UNL     1      -6.717  11.694  18.338  0.00  0.00    +0.000 S 
ATOM     13  C   UNL     1      -5.129  11.932  18.880  0.00  0.00    +0.000 A 
ATOM     14  H   UNL     1      -4.902  10.830  16.528  0.00  0.00    +0.000 HD
ENDROOT
BRANCH   5  15
ATOM     15  S   UNL     1       0.038  12.642  20.486  0.00  0.00    +0.000 S 
ATOM     16  O   UNL     1       0.221  13.245  19.182  0.00  0.00    +0.000 OA
ATOM     17  O   UNL     1       0.673  13.199  21.669  0.00  0.00    +0.000 OA
BRANCH  15  18
ATOM     18  C   UNL     1       0.509  10.933  20.395  0.00  0.00    +0.000 A 
ATOM     19  C   UNL     1       0.497  10.154  21.551  0.00  0.00    +0.000 A 
ATOM     20  C   UNL     1       0.958   8.836  21.494  0.00  0.00    +0.000 A 
ATOM     21  C   UNL     1       1.439   8.283  20.293  0.00  0.00    +0.000 A 
ATOM     22  C   UNL     1       1.932   6.860  20.294  0.00  0.00    +0.000 C 
ATOM     23  C   UNL     1       1.456   9.076  19.126  0.00  0.00    +0.000 A 
ATOM     24  C   UNL     1       1.977   8.574  17.805  0.00  0.00    +0.000 C 
ATOM     25  C   UNL     1       0.991  10.404  19.192  0.00  0.00    +0.000 A 
ENDBRANCH  15  18
ENDBRANCH   5  15
BRANCH   1  26
ATOM     26  C   UNL     1      -2.939  10.237  16.313  0.00  0.00    +0.000 C 
BRANCH  26  27
ATOM     27  C   UNL     1      -2.891  10.356  14.787  0.00  0.00    +0.000 C 
BRANCH  27  29
ATOM     28  C   UNL     1      -4.063   9.799  12.818  0.00  0.00    +0.000 C 
ATOM     29  O   UNL     1      -4.120   9.865  14.238  0.00  0.00    +0.000 OA
ENDBRANCH  27  29
ENDBRANCH  26  27
ENDBRANCH   1  26
TORSDOF 5
ENDMDL
MODEL 6
REMARK VINA RESULT:      -7.3      5.009      8.473
REMARK  Name = 
REMARK  8 active torsions:
REMARK  status: ('A' for Active; 'I' for Inactive)
REMARK    1  A    between atoms: C_1  and  O_2
REMARK    2  A    between atoms: O_2  and  C_3
REMARK    3  A    between atoms: C_3  and  C_4
REMARK    4  A    between atoms: C_4  and  N_5
REMARK    5  A    between atoms: C_9  and  S_10
REMARK    6  A    between atoms: S_10  and  C_13
REMARK    7  A    between atoms: C_16  and  C_17
REMARK    8  A    between atoms: C_18  and  C_19
REMARK                            x       y       z     vdW  Elec       q    Type
REMARK                         _______ _______ _______ _____ _____    ______ ____
ROOT
ATOM      1  N   UNL     1      -3.825  11.705  17.019  0.00  0.00    +0.000 N 
ATOM      2  C   UNL     1      -3.940  11.962  18.366  0.00  0.00    +0.000 A 
ATOM      3  N   UNL     1      -2.858  12.265  19.057  0.00  0.00    +0.000 NA
ATOM      4  C   UNL     1      -2.971  12.566  20.394  0.00  0.00    +0.000 A 
ATOM      5  C   UNL     1      -2.088  12.977  21.374  0.00  0.00    +0.000 A 
ATOM      6  N   UNL     1      -2.750  13.117  22.575  0.00  0.00    +0.000 NA
ATOM      7  N   UNL     1      -4.031  12.827  22.379  0.00  0.00    +0.000 NA
ATOM      8  N   UNL     1      -4.182  12.522  21.078  0.00  0.00    +0.000 N 
ATOM      9  C   UNL     1      -5.362  12.162  20.401  0.00  0.00    +0.000 A 
ATOM     10  C   UNL     1      -6.682  12.010  20.882  0.00  0.00    +0.000 A 
ATOM     11  C   UNL     1      -7.521  11.609  19.857  0.00  0.00    +0.000 A 
ATOM     12  S   UNL     1      -6.699  11.455  18.351  0.00  0.00    +0.000 S 
ATOM     13  C   UNL     1      -5.225  11.899  19.060  0.00  0.00    +0.000 A 
ATOM     14  H   UNL     1      -4.655  11.305  16.585  0.00  0.00    +0.000 HD
ENDROOT
BRANCH   5  15
ATOM     15  S   UNL     1      -0.407  13.310  21.200  0.00  0.00    +0.000 S 
ATOM     16  O   UNL     1      -0.316  14.445  20.304  0.00  0.00    +0.000 OA
ATOM     17  O   UNL     1       0.118  13.376  22.554  0.00  0.00    +0.000 OA
BRANCH  15  18
ATOM     18  C   UNL     1       0.342  11.904  20.416  0.00  0.00    +0.000 A 
ATOM     19  C   UNL     1       0.775  12.004  19.096  0.00  0.00    +0.000 A 
ATOM     20  C   UNL     1       1.278  10.869  18.451  0.00  0.00    +0.000 A 
ATOM     21  C   UNL     1       1.349   9.628  19.110  0.00  0.00    +0.000 A 
ATOM     22  C   UNL     1       1.890   8.439  18.363  0.00  0.00    +0.000 C 
ATOM     23  C   UNL     1       0.902   9.529  20.445  0.00  0.00    +0.000 A 
ATOM     24  C   UNL     1       0.917   8.236  21.218  0.00  0.00    +0.000 C 
ATOM     25  C   UNL     1       0.396  10.677  21.087  0.00  0.00    +0.000 A 
ENDBRANCH  15  18
ENDBRANCH   5  15
BRANCH   1  26
ATOM     26  C   UNL     1      -2.603  11.158  16.445  0.00  0.00    +0.000 C 
BRANCH  26  27
ATOM     27  C   UNL     1      -2.932   9.899  15.638  0.00  0.00    +0.000 C 
BRANCH  27  29
ATOM     28  C   UNL     1      -3.877   9.945  13.477  0.00  0.00    +0.000 C 
ATOM     29  O   UNL     1      -2.699  10.157  14.247  0.00  0.00    +0.000 OA
ENDBRANCH  27  29
ENDBRANCH  26  27
ENDBRANCH   1  26
TORSDOF 5
ENDMDL
MODEL 7
REMARK VINA RESULT:      -7.3      3.629      6.125
REMARK  Name = 
REMARK  8 active torsions:
REMARK  status: ('A' for Active; 'I' for Inactive)
REMARK    1  A    between atoms: C_1  and  O_2
REMARK    2  A    between atoms: O_2  and  C_3
REMARK    3  A    between atoms: C_3  and  C_4
REMARK    4  A    between atoms: C_4  and  N_5
REMARK    5  A    between atoms: C_9  and  S_10
REMARK    6  A    between atoms: S_10  and  C_13
REMARK    7  A    between atoms: C_16  and  C_17
REMARK    8  A    between atoms: C_18  and  C_19
REMARK                            x       y       z     vdW  Elec       q    Type
REMARK                         _______ _______ _______ _____ _____    ______ ____
ROOT
ATOM      1  N   UNL     1       7.341   7.064  16.707  0.00  0.00    +0.000 N 
ATOM      2  C   UNL     1       6.419   6.055  16.556  0.00  0.00    +0.000 A 
ATOM      3  N   UNL     1       5.561   5.816  17.529  0.00  0.00    +0.000 NA
ATOM      4  C   UNL     1       4.608   4.838  17.368  0.00  0.00    +0.000 A 
ATOM      5  C   UNL     1       3.548   4.382  18.127  0.00  0.00    +0.000 A 
ATOM      6  N   UNL     1       2.919   3.341  17.479  0.00  0.00    +0.000 NA
ATOM      7  N   UNL     1       3.536   3.139  16.320  0.00  0.00    +0.000 NA
ATOM      8  N   UNL     1       4.530   4.041  16.230  0.00  0.00    +0.000 N 
ATOM      9  C   UNL     1       5.446   4.221  15.178  0.00  0.00    +0.000 A 
ATOM     10  C   UNL     1       5.590   3.520  13.960  0.00  0.00    +0.000 A 
ATOM     11  C   UNL     1       6.658   4.026  13.239  0.00  0.00    +0.000 A 
ATOM     12  S   UNL     1       7.431   5.340  14.039  0.00  0.00    +0.000 S 
ATOM     13  C   UNL     1       6.366   5.227  15.352  0.00  0.00    +0.000 A 
ATOM     14  H   UNL     1       8.082   7.078  16.007  0.00  0.00    +0.000 HD
ENDROOT
BRANCH   5  15
ATOM     15  S   UNL     1       3.013   4.982  19.651  0.00  0.00    +0.000 S 
ATOM     16  O   UNL     1       1.944   4.100  20.072  0.00  0.00    +0.000 OA
ATOM     17  O   UNL     1       4.217   5.140  20.450  0.00  0.00    +0.000 OA
BRANCH  15  18
ATOM     18  C   UNL     1       2.343   6.604  19.386  0.00  0.00    +0.000 A 
ATOM     19  C   UNL     1       2.492   7.213  18.141  0.00  0.00    +0.000 A 
ATOM     20  C   UNL     1       2.047   8.526  17.963  0.00  0.00    +0.000 A 
ATOM     21  C   UNL     1       1.457   9.245  19.019  0.00  0.00    +0.000 A 
ATOM     22  C   UNL     1       1.006  10.660  18.771  0.00  0.00    +0.000 C 
ATOM     23  C   UNL     1       1.315   8.628  20.279  0.00  0.00    +0.000 A 
ATOM     24  C   UNL     1       0.720   9.331  21.471  0.00  0.00    +0.000 C 
ATOM     25  C   UNL     1       1.767   7.304  20.451  0.00  0.00    +0.000 A 
ENDBRANCH  15  18
ENDBRANCH   5  15
BRANCH   1  26
ATOM     26  C   UNL     1       7.834   7.461  18.019  0.00  0.00    +0.000 C 
BRANCH  26  27
ATOM     27  C   UNL     1       8.274   8.928  17.981  0.00  0.00    +0.000 C 
BRANCH  27  29
ATOM     28  C   UNL     1       9.327  10.619  19.243  0.00  0.00    +0.000 C 
ATOM     29  O   UNL     1       8.961   9.245  19.198  0.00  0.00    +0.000 OA
ENDBRANCH  27  29
ENDBRANCH  26  27
ENDBRANCH   1  26
TORSDOF 5
ENDMDL
MODEL 8
REMARK VINA RESULT:      -7.1      5.118      8.633
REMARK  Name = 
REMARK  8 active torsions:
REMARK  status: ('A' for Active; 'I' for Inactive)
REMARK    1  A    between atoms: C_1  and  O_2
REMARK    2  A    between atoms: O_2  and  C_3
REMARK    3  A    between atoms: C_3  and  C_4
REMARK    4  A    between atoms: C_4  and  N_5
REMARK    5  A    between atoms: C_9  and  S_10
REMARK    6  A    between atoms: S_10  and  C_13
REMARK    7  A    between atoms: C_16  and  C_17
REMARK    8  A    between atoms: C_18  and  C_19
REMARK                            x       y       z     vdW  Elec       q    Type
REMARK                         _______ _______ _______ _____ _____    ______ ____
ROOT
ATOM      1  N   UNL     1      -3.608  11.275  17.543  0.00  0.00    +0.000 N 
ATOM      2  C   UNL     1      -3.920  11.875  18.741  0.00  0.00    +0.000 A 
ATOM      3  N   UNL     1      -2.958  12.111  19.612  0.00  0.00    +0.000 NA
ATOM      4  C   UNL     1      -3.255  12.750  20.794  0.00  0.00    +0.000 A 
ATOM      5  C   UNL     1      -2.511  13.200  21.867  0.00  0.00    +0.000 A 
ATOM      6  N   UNL     1      -3.341  13.764  22.811  0.00  0.00    +0.000 NA
ATOM      7  N   UNL     1      -4.588  13.705  22.357  0.00  0.00    +0.000 NA
ATOM      8  N   UNL     1      -4.548  13.126  21.144  0.00  0.00    +0.000 N 
ATOM      9  C   UNL     1      -5.621  12.860  20.272  0.00  0.00    +0.000 A 
ATOM     10  C   UNL     1      -7.004  13.106  20.423  0.00  0.00    +0.000 A 
ATOM     11  C   UNL     1      -7.696  12.645  19.316  0.00  0.00    +0.000 A 
ATOM     12  S   UNL     1      -6.656  11.958  18.127  0.00  0.00    +0.000 S 
ATOM     13  C   UNL     1      -5.290  12.251  19.087  0.00  0.00    +0.000 A 
ATOM     14  H   UNL     1      -4.409  10.959  16.999  0.00  0.00    +0.000 HD
ENDROOT
BRANCH   5  15
ATOM     15  S   UNL     1      -0.801  13.126  22.064  0.00  0.00    +0.000 S 
ATOM     16  O   UNL     1      -0.246  14.007  21.056  0.00  0.00    +0.000 OA
ATOM     17  O   UNL     1      -0.563  13.357  23.479  0.00  0.00    +0.000 OA
BRANCH  15  18
ATOM     18  C   UNL     1      -0.290  11.463  21.711  0.00  0.00    +0.000 A 
ATOM     19  C   UNL     1      -0.341  10.501  22.718  0.00  0.00    +0.000 A 
ATOM     20  C   UNL     1       0.149   9.216  22.465  0.00  0.00    +0.000 A 
ATOM     21  C   UNL     1       0.700   8.880  21.214  0.00  0.00    +0.000 A 
ATOM     22  C   UNL     1       1.222   7.484  21.003  0.00  0.00    +0.000 C 
ATOM     23  C   UNL     1       0.757   9.859  20.200  0.00  0.00    +0.000 A 
ATOM     24  C   UNL     1       1.352   9.594  18.842  0.00  0.00    +0.000 C 
ATOM     25  C   UNL     1       0.261  11.151  20.463  0.00  0.00    +0.000 A 
ENDBRANCH  15  18
ENDBRANCH   5  15
BRANCH   1  26
ATOM     26  C   UNL     1      -2.479  10.364  17.414  0.00  0.00    +0.000 C 
BRANCH  26  27
ATOM     27  C   UNL     1      -2.509   9.701  16.034  0.00  0.00    +0.000 C 
BRANCH  27  29
ATOM     28  C   UNL     1      -3.573  10.090  13.965  0.00  0.00    +0.000 C 
ATOM     29  O   UNL     1      -2.864  10.680  15.049  0.00  0.00    +0.000 OA
ENDBRANCH  27  29
ENDBRANCH  26  27
ENDBRANCH   1  26
TORSDOF 5
ENDMDL
MODEL 9
REMARK VINA RESULT:      -7.1      1.800      2.655
REMARK  Name = 
REMARK  8 active torsions:
REMARK  status: ('A' for Active; 'I' for Inactive)
REMARK    1  A    between atoms: C_1  and  O_2
REMARK    2  A    between atoms: O_2  and  C_3
REMARK    3  A    between atoms: C_3  and  C_4
REMARK    4  A    between atoms: C_4  and  N_5
REMARK    5  A    between atoms: C_9  and  S_10
REMARK    6  A    between atoms: S_10  and  C_13
REMARK    7  A    between atoms: C_16  and  C_17
REMARK    8  A    between atoms: C_18  and  C_19
REMARK                            x       y       z     vdW  Elec       q    Type
REMARK                         _______ _______ _______ _____ _____    ______ ____
ROOT
ATOM      1  N   UNL     1       3.102   4.483  20.552  0.00  0.00    +0.000 N 
ATOM      2  C   UNL     1       3.020   5.579  19.724  0.00  0.00    +0.000 A 
ATOM      3  N   UNL     1       2.243   6.588  20.067  0.00  0.00    +0.000 NA
ATOM      4  C   UNL     1       2.190   7.705  19.266  0.00  0.00    +0.000 A 
ATOM      5  C   UNL     1       1.557   8.930  19.351  0.00  0.00    +0.000 A 
ATOM      6  N   UNL     1       1.841   9.684  18.232  0.00  0.00    +0.000 NA
ATOM      7  N   UNL     1       2.654   8.980  17.452  0.00  0.00    +0.000 NA
ATOM      8  N   UNL     1       2.890   7.808  18.068  0.00  0.00    +0.000 N 
ATOM      9  C   UNL     1       3.700   6.745  17.630  0.00  0.00    +0.000 A 
ATOM     10  C   UNL     1       4.463   6.602  16.449  0.00  0.00    +0.000 A 
ATOM     11  C   UNL     1       5.080   5.363  16.424  0.00  0.00    +0.000 A 
ATOM     12  S   UNL     1       4.742   4.429  17.831  0.00  0.00    +0.000 S 
ATOM     13  C   UNL     1       3.760   5.656  18.465  0.00  0.00    +0.000 A 
ATOM     14  H   UNL     1       3.569   3.673  20.149  0.00  0.00    +0.000 HD
ENDROOT
BRANCH   5  15
ATOM     15  S   UNL     1       0.567   9.514  20.634  0.00  0.00    +0.000 S 
ATOM     16  O   UNL     1      -0.681   8.783  20.537  0.00  0.00    +0.000 OA
ATOM     17  O   UNL     1       1.393   9.437  21.827  0.00  0.00    +0.000 OA
BRANCH  15  18
ATOM     18  C   UNL     1       0.247  11.232  20.327  0.00  0.00    +0.000 A 
ATOM     19  C   UNL     1      -0.899  11.603  19.626  0.00  0.00    +0.000 A 
ATOM     20  C   UNL     1      -1.102  12.949  19.305  0.00  0.00    +0.000 A 
ATOM     21  C   UNL     1      -0.166  13.934  19.671  0.00  0.00    +0.000 A 
ATOM     22  C   UNL     1      -0.431  15.365  19.289  0.00  0.00    +0.000 C 
ATOM     23  C   UNL     1       0.997  13.553  20.374  0.00  0.00    +0.000 A 
ATOM     24  C   UNL     1       2.063  14.537  20.783  0.00  0.00    +0.000 C 
ATOM     25  C   UNL     1       1.193  12.196  20.694  0.00  0.00    +0.000 A 
ENDBRANCH  15  18
ENDBRANCH   5  15
BRANCH   1  26
ATOM     26  C   UNL     1       1.995   4.091  21.414  0.00  0.00    +0.000 C 
BRANCH  26  27
ATOM     27  C   UNL     1       1.446   2.735  20.960  0.00  0.00    +0.000 C 
BRANCH  27  29
ATOM     28  C   UNL     1       1.071   2.339  18.666  0.00  0.00    +0.000 C 
ATOM     29  O   UNL     1       2.042   2.382  19.705  0.00  0.00    +0.000 OA
ENDBRANCH  27  29
ENDBRANCH  26  27
ENDBRANCH   1  26
TORSDOF 5
ENDMDL
