MODEL 1
REMARK VINA RESULT:      -8.0      0.000      0.000
REMARK  Name = 
REMARK  8 active torsions:
REMARK  status: ('A' for Active; 'I' for Inactive)
REMARK    1  A    between atoms: C_1  and  O_2
REMARK    2  A    between atoms: O_2  and  C_3
REMARK    3  A    between atoms: C_6  and  S_7
REMARK    4  A    between atoms: S_7  and  N_10
REMARK    5  A    between atoms: C_17  and  N_18
REMARK    6  A    between atoms: C_19  and  C_21
REMARK    7  A    between atoms: C_26  and  S_27
REMARK    8  A    between atoms: S_27  and  C_28
REMARK                            x       y       z     vdW  Elec       q    Type
REMARK                         _______ _______ _______ _____ _____    ______ ____
ROOT
ATOM      1  C   UNL     1       2.803   4.843  18.040  0.00  0.00    +0.000 A 
ATOM      2  C   UNL     1       3.645   3.748  17.821  0.00  0.00    +0.000 A 
ATOM      3  C   UNL     1       4.911   3.923  17.268  0.00  0.00    +0.000 A 
ATOM      4  C   UNL     1       5.358   5.200  16.934  0.00  0.00    +0.000 A 
ATOM      5  C   UNL     1       4.556   6.315  17.194  0.00  0.00    +0.000 A 
ATOM      6  C   UNL     1       3.261   6.136  17.718  0.00  0.00    +0.000 A 
ENDROOT
BRANCH   6   7
ATOM      7  N   UNL     1       2.402   7.249  17.906  0.00  0.00    +0.000 N 
ATOM      8  C   UNL     1       2.144   7.775  19.163  0.00  0.00    +0.000 C 
ATOM      9  O   UNL     1       2.679   7.351  20.190  0.00  0.00    +0.000 OA
ATOM     10  H   UNL     1       2.299   7.874  17.109  0.00  0.00    +0.000 HD
BRANCH   8  11
ATOM     11  C   UNL     1       1.172   8.905  19.297  0.00  0.00    +0.000 A 
ATOM     12  C   UNL     1       0.676   9.405  18.074  0.00  0.00    +0.000 A 
ATOM     13  C   UNL     1      -0.180  10.498  18.041  0.00  0.00    +0.000 A 
ATOM     14  C   UNL     1      -0.537  11.064  19.245  0.00  0.00    +0.000 A 
ATOM     15  N   UNL     1      -0.117  10.600  20.443  0.00  0.00    +0.000 NA
ATOM     16  C   UNL     1       0.726   9.528  20.471  0.00  0.00    +0.000 A 
BRANCH  16  17
ATOM     17  S   UNL     1       1.171   8.975  22.119  0.00  0.00    +0.000 S 
ATOM     18  C   UNL     1      -0.182   9.649  23.136  0.00  0.00    +0.000 C 
ENDBRANCH  16  17
ENDBRANCH   8  11
ENDBRANCH   6   7
BRANCH   4  19
ATOM     19  S   UNL     1       7.003   5.376  16.257  0.00  0.00    +0.000 S 
ATOM     20  O   UNL     1       7.394   6.766  16.424  0.00  0.00    +0.000 OA
ATOM     21  O   UNL     1       7.806   4.312  16.823  0.00  0.00    +0.000 OA
BRANCH  19  22
ATOM     22  N   UNL     1       6.814   5.056  14.583  0.00  0.00    +0.000 NA
ATOM     23  C   UNL     1       7.968   5.429  13.724  0.00  0.00    +0.000 C 
ATOM     24  C   UNL     1       7.647   5.271  12.239  0.00  0.00    +0.000 C 
ATOM     25  C   UNL     1       7.101   3.884  11.934  0.00  0.00    +0.000 C 
ATOM     26  C   UNL     1       5.859   3.636  12.776  0.00  0.00    +0.000 C 
ATOM     27  C   UNL     1       6.170   3.755  14.265  0.00  0.00    +0.000 C 
ENDBRANCH  19  22
ENDBRANCH   4  19
BRANCH   1  29
ATOM     28  C   UNL     1       1.430   4.024  19.780  0.00  0.00    +0.000 C 
ATOM     29  O   UNL     1       1.525   4.719  18.535  0.00  0.00    +0.000 OA
ENDBRANCH   1  29
TORSDOF 6
ENDMDL
MODEL 2
REMARK VINA RESULT:      -7.8      1.363      1.957
REMARK  Name = 
REMARK  8 active torsions:
REMARK  status: ('A' for Active; 'I' for Inactive)
REMARK    1  A    between atoms: C_1  and  O_2
REMARK    2  A    between atoms: O_2  and  C_3
REMARK    3  A    between atoms: C_6  and  S_7
REMARK    4  A    between atoms: S_7  and  N_10
REMARK    5  A    between atoms: C_17  and  N_18
REMARK    6  A    between atoms: C_19  and  C_21
REMARK    7  A    between atoms: C_26  and  S_27
REMARK    8  A    between atoms: S_27  and  C_28
REMARK                            x       y       z     vdW  Elec       q    Type
REMARK                         _______ _______ _______ _____ _____    ______ ____
ROOT
ATOM      1  C   UNL     1       2.860   4.528  18.337  0.00  0.00    +0.000 A 
ATOM      2  C   UNL     1       3.482   3.617  17.478  0.00  0.00    +0.000 A 
ATOM      3  C   UNL     1       4.713   3.912  16.897  0.00  0.00    +0.000 A 
ATOM      4  C   UNL     1       5.346   5.122  17.176  0.00  0.00    +0.000 A 
ATOM      5  C   UNL     1       4.769   6.025  18.075  0.00  0.00    +0.000 A 
ATOM      6  C   UNL     1       3.507   5.744  18.633  0.00  0.00    +0.000 A 
ENDROOT
BRANCH   6   7
ATOM      7  N   UNL     1       2.870   6.688  19.479  0.00  0.00    +0.000 N 
ATOM      8  C   UNL     1       2.152   7.761  18.972  0.00  0.00    +0.000 C 
ATOM      9  O   UNL     1       1.973   7.938  17.766  0.00  0.00    +0.000 OA
ATOM     10  H   UNL     1       2.624   6.361  20.411  0.00  0.00    +0.000 HD
BRANCH   8  11
ATOM     11  C   UNL     1       1.566   8.761  19.920  0.00  0.00    +0.000 A 
ATOM     12  C   UNL     1       1.161   8.229  21.163  0.00  0.00    +0.000 A 
ATOM     13  C   UNL     1       0.537   9.025  22.114  0.00  0.00    +0.000 A 
ATOM     14  C   UNL     1       0.342  10.353  21.805  0.00  0.00    +0.000 A 
ATOM     15  N   UNL     1       0.744  10.916  20.643  0.00  0.00    +0.000 NA
ATOM     16  C   UNL     1       1.354  10.131  19.711  0.00  0.00    +0.000 A 
BRANCH  16  17
ATOM     17  S   UNL     1       1.886  11.003  18.236  0.00  0.00    +0.000 S 
ATOM     18  C   UNL     1       1.464  12.731  18.631  0.00  0.00    +0.000 C 
ENDBRANCH  16  17
ENDBRANCH   8  11
ENDBRANCH   6   7
BRANCH   4  19
ATOM     19  S   UNL     1       6.939   5.441  16.432  0.00  0.00    +0.000 S 
ATOM     20  O   UNL     1       7.198   6.866  16.556  0.00  0.00    +0.000 OA
ATOM     21  O   UNL     1       7.863   4.474  16.987  0.00  0.00    +0.000 OA
BRANCH  19  22
ATOM     22  N   UNL     1       6.721   5.064  14.774  0.00  0.00    +0.000 NA
ATOM     23  C   UNL     1       7.869   5.386  13.885  0.00  0.00    +0.000 C 
ATOM     24  C   UNL     1       7.524   5.180  12.412  0.00  0.00    +0.000 C 
ATOM     25  C   UNL     1       6.949   3.792  12.165  0.00  0.00    +0.000 C 
ATOM     26  C   UNL     1       5.716   3.597  13.033  0.00  0.00    +0.000 C 
ATOM     27  C   UNL     1       6.050   3.765  14.512  0.00  0.00    +0.000 C 
ENDBRANCH  19  22
ENDBRANCH   4  19
BRANCH   1  29
ATOM     28  C   UNL     1       1.531   3.134  19.706  0.00  0.00    +0.000 C 
ATOM     29  O   UNL     1       1.622   4.307  18.896  0.00  0.00    +0.000 OA
ENDBRANCH   1  29
TORSDOF 6
ENDMDL
MODEL 3
REMARK VINA RESULT:      -7.7      1.082      1.082
REMARK  Name = 
REMARK  8 active torsions:
REMARK  status: ('A' for Active; 'I' for Inactive)
REMARK    1  A    between atoms: C_1  and  O_2
REMARK    2  A    between atoms: O_2  and  C_3
REMARK    3  A    between atoms: C_6  and  S_7
REMARK    4  A    between atoms: S_7  and  N_10
REMARK    5  A    between atoms: C_17  and  N_18
REMARK    6  A    between atoms: C_19  and  C_21
REMARK    7  A    between atoms: C_26  and  S_27
REMARK    8  A    between atoms: S_27  and  C_28
REMARK                            x       y       z     vdW  Elec       q    Type
REMARK                         _______ _______ _______ _____ _____    ______ ____
ROOT
ATOM      1  C   UNL     1       2.915   4.865  18.234  0.00  0.00    +0.000 A 
ATOM      2  C   UNL     1       3.572   3.791  17.626  0.00  0.00    +0.000 A 
ATOM      3  C   UNL     1       4.823   3.963  17.038  0.00  0.00    +0.000 A 
ATOM      4  C   UNL     1       5.440   5.212  17.059  0.00  0.00    +0.000 A 
ATOM      5  C   UNL     1       4.827   6.287  17.709  0.00  0.00    +0.000 A 
ATOM      6  C   UNL     1       3.545   6.124  18.271  0.00  0.00    +0.000 A 
ENDROOT
BRANCH   6   7
ATOM      7  N   UNL     1       2.873   7.227  18.857  0.00  0.00    +0.000 N 
ATOM      8  C   UNL     1       2.433   8.305  18.104  0.00  0.00    +0.000 C 
ATOM      9  O   UNL     1       2.545   8.356  16.878  0.00  0.00    +0.000 OA
ATOM     10  H   UNL     1       2.389   7.042  19.734  0.00  0.00    +0.000 HD
BRANCH   8  11
ATOM     11  C   UNL     1       1.795   9.469  18.796  0.00  0.00    +0.000 A 
ATOM     12  C   UNL     1       1.857  10.685  18.084  0.00  0.00    +0.000 A 
ATOM     13  C   UNL     1       1.369  11.863  18.635  0.00  0.00    +0.000 A 
ATOM     14  C   UNL     1       0.810  11.795  19.892  0.00  0.00    +0.000 A 
ATOM     15  N   UNL     1       0.695  10.648  20.598  0.00  0.00    +0.000 NA
ATOM     16  C   UNL     1       1.178   9.494  20.055  0.00  0.00    +0.000 A 
BRANCH  16  17
ATOM     17  S   UNL     1       0.922   8.034  21.065  0.00  0.00    +0.000 S 
ATOM     18  C   UNL     1      -0.395   8.571  22.202  0.00  0.00    +0.000 C 
ENDBRANCH  16  17
ENDBRANCH   8  11
ENDBRANCH   6   7
BRANCH   4  19
ATOM     19  S   UNL     1       7.059   5.374  16.320  0.00  0.00    +0.000 S 
ATOM     20  O   UNL     1       7.468   6.762  16.472  0.00  0.00    +0.000 OA
ATOM     21  O   UNL     1       7.875   4.304  16.856  0.00  0.00    +0.000 OA
BRANCH  19  22
ATOM     22  N   UNL     1       6.805   5.055  14.655  0.00  0.00    +0.000 NA
ATOM     23  C   UNL     1       7.937   5.398  13.755  0.00  0.00    +0.000 C 
ATOM     24  C   UNL     1       7.561   5.244  12.283  0.00  0.00    +0.000 C 
ATOM     25  C   UNL     1       6.971   3.870  12.001  0.00  0.00    +0.000 C 
ATOM     26  C   UNL     1       5.754   3.654  12.887  0.00  0.00    +0.000 C 
ATOM     27  C   UNL     1       6.119   3.770  14.364  0.00  0.00    +0.000 C 
ENDBRANCH  19  22
ENDBRANCH   4  19
BRANCH   1  29
ATOM     28  C   UNL     1       1.354   3.485  19.350  0.00  0.00    +0.000 C 
ATOM     29  O   UNL     1       1.657   4.760  18.783  0.00  0.00    +0.000 OA
ENDBRANCH   1  29
TORSDOF 6
ENDMDL
MODEL 4
REMARK VINA RESULT:      -7.7      2.078      8.325
REMARK  Name = 
REMARK  8 active torsions:
REMARK  status: ('A' for Active; 'I' for Inactive)
REMARK    1  A    between atoms: C_1  and  O_2
REMARK    2  A    between atoms: O_2  and  C_3
REMARK    3  A    between atoms: C_6  and  S_7
REMARK    4  A    between atoms: S_7  and  N_10
REMARK    5  A    between atoms: C_17  and  N_18
REMARK    6  A    between atoms: C_19  and  C_21
REMARK    7  A    between atoms: C_26  and  S_27
REMARK    8  A    between atoms: S_27  and  C_28
REMARK                            x       y       z     vdW  Elec       q    Type
REMARK                         _______ _______ _______ _____ _____    ______ ____
ROOT
ATOM      1  C   UNL     1       1.955   6.226  19.926  0.00  0.00    +0.000 A 
ATOM      2  C   UNL     1       1.165   6.778  20.939  0.00  0.00    +0.000 A 
ATOM      3  C   UNL     1       0.870   8.140  20.949  0.00  0.00    +0.000 A 
ATOM      4  C   UNL     1       1.353   8.968  19.939  0.00  0.00    +0.000 A 
ATOM      5  C   UNL     1       2.100   8.429  18.887  0.00  0.00    +0.000 A 
ATOM      6  C   UNL     1       2.430   7.060  18.895  0.00  0.00    +0.000 A 
ENDROOT
BRANCH   6   7
ATOM      7  N   UNL     1       3.260   6.515  17.881  0.00  0.00    +0.000 N 
ATOM      8  C   UNL     1       4.528   6.024  18.152  0.00  0.00    +0.000 C 
ATOM      9  O   UNL     1       4.998   5.977  19.290  0.00  0.00    +0.000 OA
ATOM     10  H   UNL     1       2.781   6.143  17.063  0.00  0.00    +0.000 HD
BRANCH   8  11
ATOM     11  C   UNL     1       5.378   5.531  17.023  0.00  0.00    +0.000 A 
ATOM     12  C   UNL     1       4.848   4.424  16.326  0.00  0.00    +0.000 A 
ATOM     13  C   UNL     1       5.559   3.816  15.300  0.00  0.00    +0.000 A 
ATOM     14  C   UNL     1       6.791   4.343  14.980  0.00  0.00    +0.000 A 
ATOM     15  N   UNL     1       7.325   5.422  15.594  0.00  0.00    +0.000 NA
ATOM     16  C   UNL     1       6.625   6.015  16.603  0.00  0.00    +0.000 A 
BRANCH  16  17
ATOM     17  S   UNL     1       7.413   7.466  17.303  0.00  0.00    +0.000 S 
ATOM     18  C   UNL     1       8.201   6.798  18.803  0.00  0.00    +0.000 C 
ENDBRANCH  16  17
ENDBRANCH   8  11
ENDBRANCH   6   7
BRANCH   4  19
ATOM     19  S   UNL     1       0.921  10.701  19.979  0.00  0.00    +0.000 S 
ATOM     20  O   UNL     1       0.940  11.121  21.371  0.00  0.00    +0.000 OA
ATOM     21  O   UNL     1       1.755  11.365  18.999  0.00  0.00    +0.000 OA
BRANCH  19  22
ATOM     22  N   UNL     1      -0.696  10.753  19.411  0.00  0.00    +0.000 NA
ATOM     23  C   UNL     1      -1.420  12.030  19.648  0.00  0.00    +0.000 C 
ATOM     24  C   UNL     1      -2.895  11.927  19.268  0.00  0.00    +0.000 C 
ATOM     25  C   UNL     1      -3.070  11.396  17.853  0.00  0.00    +0.000 C 
ATOM     26  C   UNL     1      -2.395  10.039  17.739  0.00  0.00    +0.000 C 
ATOM     27  C   UNL     1      -0.910  10.130  18.080  0.00  0.00    +0.000 C 
ENDBRANCH  19  22
ENDBRANCH   4  19
BRANCH   1  29
ATOM     28  C   UNL     1       1.228   3.978  19.966  0.00  0.00    +0.000 C 
ATOM     29  O   UNL     1       2.318   4.899  19.898  0.00  0.00    +0.000 OA
ENDBRANCH   1  29
TORSDOF 6
ENDMDL
MODEL 5
REMARK VINA RESULT:      -7.6      2.617      8.407
REMARK  Name = 
REMARK  8 active torsions:
REMARK  status: ('A' for Active; 'I' for Inactive)
REMARK    1  A    between atoms: C_1  and  O_2
REMARK    2  A    between atoms: O_2  and  C_3
REMARK    3  A    between atoms: C_6  and  S_7
REMARK    4  A    between atoms: S_7  and  N_10
REMARK    5  A    between atoms: C_17  and  N_18
REMARK    6  A    between atoms: C_19  and  C_21
REMARK    7  A    between atoms: C_26  and  S_27
REMARK    8  A    between atoms: S_27  and  C_28
REMARK                            x       y       z     vdW  Elec       q    Type
REMARK                         _______ _______ _______ _____ _____    ______ ____
ROOT
ATOM      1  C   UNL     1       1.643   6.899  20.678  0.00  0.00    +0.000 A 
ATOM      2  C   UNL     1       0.642   7.536  21.417  0.00  0.00    +0.000 A 
ATOM      3  C   UNL     1       0.229   8.826  21.091  0.00  0.00    +0.000 A 
ATOM      4  C   UNL     1       0.805   9.494  20.013  0.00  0.00    +0.000 A 
ATOM      5  C   UNL     1       1.770   8.856  19.226  0.00  0.00    +0.000 A 
ATOM      6  C   UNL     1       2.215   7.567  19.577  0.00  0.00    +0.000 A 
ENDROOT
BRANCH   6   7
ATOM      7  N   UNL     1       3.253   6.941  18.841  0.00  0.00    +0.000 N 
ATOM      8  C   UNL     1       2.995   5.978  17.877  0.00  0.00    +0.000 C 
ATOM      9  O   UNL     1       1.853   5.640  17.557  0.00  0.00    +0.000 OA
ATOM     10  H   UNL     1       4.119   7.469  18.753  0.00  0.00    +0.000 HD
BRANCH   8  11
ATOM     11  C   UNL     1       4.142   5.307  17.189  0.00  0.00    +0.000 A 
ATOM     12  C   UNL     1       4.814   6.109  16.242  0.00  0.00    +0.000 A 
ATOM     13  C   UNL     1       5.853   5.596  15.477  0.00  0.00    +0.000 A 
ATOM     14  C   UNL     1       6.211   4.283  15.687  0.00  0.00    +0.000 A 
ATOM     15  N   UNL     1       5.622   3.486  16.606  0.00  0.00    +0.000 NA
ATOM     16  C   UNL     1       4.600   3.992  17.354  0.00  0.00    +0.000 A 
BRANCH  16  17
ATOM     17  S   UNL     1       3.935   2.855  18.572  0.00  0.00    +0.000 S 
ATOM     18  C   UNL     1       2.452   2.209  17.735  0.00  0.00    +0.000 C 
ENDBRANCH  16  17
ENDBRANCH   8  11
ENDBRANCH   6   7
BRANCH   4  19
ATOM     19  S   UNL     1       0.219  11.135  19.615  0.00  0.00    +0.000 S 
ATOM     20  O   UNL     1       0.097  11.866  20.866  0.00  0.00    +0.000 OA
ATOM     21  O   UNL     1       1.062  11.635  18.549  0.00  0.00    +0.000 OA
BRANCH  19  22
ATOM     22  N   UNL     1      -1.349  10.884  18.970  0.00  0.00    +0.000 NA
ATOM     23  C   UNL     1      -2.279  12.040  19.074  0.00  0.00    +0.000 C 
ATOM     24  C   UNL     1      -3.695  11.674  18.634  0.00  0.00    +0.000 C 
ATOM     25  C   UNL     1      -3.699  11.028  17.256  0.00  0.00    +0.000 C 
ATOM     26  C   UNL     1      -2.811   9.793  17.277  0.00  0.00    +0.000 C 
ATOM     27  C   UNL     1      -1.383  10.147  17.680  0.00  0.00    +0.000 C 
ENDBRANCH  19  22
ENDBRANCH   4  19
BRANCH   1  29
ATOM     28  C   UNL     1       1.229   4.572  20.695  0.00  0.00    +0.000 C 
ATOM     29  O   UNL     1       2.123   5.647  20.989  0.00  0.00    +0.000 OA
ENDBRANCH   1  29
TORSDOF 6
ENDMDL
MODEL 6
REMARK VINA RESULT:      -7.6      2.224      8.286
REMARK  Name = 
REMARK  8 active torsions:
REMARK  status: ('A' for Active; 'I' for Inactive)
REMARK    1  A    between atoms: C_1  and  O_2
REMARK    2  A    between atoms: O_2  and  C_3
REMARK    3  A    between atoms: C_6  and  S_7
REMARK    4  A    between atoms: S_7  and  N_10
REMARK    5  A    between atoms: C_17  and  N_18
REMARK    6  A    between atoms: C_19  and  C_21
REMARK    7  A    between atoms: C_26  and  S_27
REMARK    8  A    between atoms: S_27  and  C_28
REMARK                            x       y       z     vdW  Elec       q    Type
REMARK                         _______ _______ _______ _____ _____    ______ ____
ROOT
ATOM      1  C   UNL     1       1.900   6.457  20.230  0.00  0.00    +0.000 A 
ATOM      2  C   UNL     1       1.278   7.253  21.196  0.00  0.00    +0.000 A 
ATOM      3  C   UNL     1       1.005   8.596  20.944  0.00  0.00    +0.000 A 
ATOM      4  C   UNL     1       1.341   9.159  19.715  0.00  0.00    +0.000 A 
ATOM      5  C   UNL     1       1.914   8.368  18.714  0.00  0.00    +0.000 A 
ATOM      6  C   UNL     1       2.225   7.021  18.981  0.00  0.00    +0.000 A 
ENDROOT
BRANCH   6   7
ATOM      7  N   UNL     1       2.885   6.230  18.006  0.00  0.00    +0.000 N 
ATOM      8  C   UNL     1       4.245   5.964  18.072  0.00  0.00    +0.000 C 
ATOM      9  O   UNL     1       4.958   6.348  19.001  0.00  0.00    +0.000 OA
ATOM     10  H   UNL     1       2.304   5.563  17.502  0.00  0.00    +0.000 HD
BRANCH   8  11
ATOM     11  C   UNL     1       4.891   5.183  16.971  0.00  0.00    +0.000 A 
ATOM     12  C   UNL     1       5.546   5.966  15.997  0.00  0.00    +0.000 A 
ATOM     13  C   UNL     1       6.130   5.381  14.881  0.00  0.00    +0.000 A 
ATOM     14  C   UNL     1       6.058   4.010  14.769  0.00  0.00    +0.000 A 
ATOM     15  N   UNL     1       5.473   3.215  15.692  0.00  0.00    +0.000 NA
ATOM     16  C   UNL     1       4.898   3.793  16.785  0.00  0.00    +0.000 A 
BRANCH  16  17
ATOM     17  S   UNL     1       4.200   2.631  17.960  0.00  0.00    +0.000 S 
ATOM     18  C   UNL     1       2.433   2.643  17.520  0.00  0.00    +0.000 C 
ENDBRANCH  16  17
ENDBRANCH   8  11
ENDBRANCH   6   7
BRANCH   4  19
ATOM     19  S   UNL     1       0.941  10.877  19.427  0.00  0.00    +0.000 S 
ATOM     20  O   UNL     1       1.136  11.583  20.683  0.00  0.00    +0.000 OA
ATOM     21  O   UNL     1       1.658  11.281  18.236  0.00  0.00    +0.000 OA
BRANCH  19  22
ATOM     22  N   UNL     1      -0.732  10.870  19.054  0.00  0.00    +0.000 NA
ATOM     23  C   UNL     1      -1.447  12.153  19.287  0.00  0.00    +0.000 C 
ATOM     24  C   UNL     1      -2.955  12.007  19.094  0.00  0.00    +0.000 C 
ATOM     25  C   UNL     1      -3.285  11.378  17.749  0.00  0.00    +0.000 C 
ATOM     26  C   UNL     1      -2.602  10.023  17.647  0.00  0.00    +0.000 C 
ATOM     27  C   UNL     1      -1.090  10.154  17.802  0.00  0.00    +0.000 C 
ENDBRANCH  19  22
ENDBRANCH   4  19
BRANCH   1  29
ATOM     28  C   UNL     1       1.129   4.245  20.542  0.00  0.00    +0.000 C 
ATOM     29  O   UNL     1       2.238   5.140  20.448  0.00  0.00    +0.000 OA
ENDBRANCH   1  29
TORSDOF 6
ENDMDL
MODEL 7
REMARK VINA RESULT:      -7.5      2.708      3.489
REMARK  Name = 
REMARK  8 active torsions:
REMARK  status: ('A' for Active; 'I' for Inactive)
REMARK    1  A    between atoms: C_1  and  O_2
REMARK    2  A    between atoms: O_2  and  C_3
REMARK    3  A    between atoms: C_6  and  S_7
REMARK    4  A    between atoms: S_7  and  N_10
REMARK    5  A    between atoms: C_17  and  N_18
REMARK    6  A    between atoms: C_19  and  C_21
REMARK    7  A    between atoms: C_26  and  S_27
REMARK    8  A    between atoms: S_27  and  C_28
REMARK                            x       y       z     vdW  Elec       q    Type
REMARK                         _______ _______ _______ _____ _____    ______ ____
ROOT
ATOM      1  C   UNL     1       2.007   4.520  18.927  0.00  0.00    +0.000 A 
ATOM      2  C   UNL     1       2.539   3.571  18.049  0.00  0.00    +0.000 A 
ATOM      3  C   UNL     1       3.553   3.914  17.157  0.00  0.00    +0.000 A 
ATOM      4  C   UNL     1       4.058   5.212  17.138  0.00  0.00    +0.000 A 
ATOM      5  C   UNL     1       3.580   6.164  18.045  0.00  0.00    +0.000 A 
ATOM      6  C   UNL     1       2.529   5.828  18.921  0.00  0.00    +0.000 A 
ENDROOT
BRANCH   6   7
ATOM      7  N   UNL     1       1.975   6.807  19.785  0.00  0.00    +0.000 N 
ATOM      8  C   UNL     1       1.599   8.062  19.330  0.00  0.00    +0.000 C 
ATOM      9  O   UNL     1       1.668   8.393  18.145  0.00  0.00    +0.000 OA
ATOM     10  H   UNL     1       1.512   6.455  20.620  0.00  0.00    +0.000 HD
BRANCH   8  11
ATOM     11  C   UNL     1       1.089   9.072  20.310  0.00  0.00    +0.000 A 
ATOM     12  C   UNL     1       0.694   8.539  21.555  0.00  0.00    +0.000 A 
ATOM     13  C   UNL     1       0.136   9.348  22.536  0.00  0.00    +0.000 A 
ATOM     14  C   UNL     1      -0.004  10.688  22.254  0.00  0.00    +0.000 A 
ATOM     15  N   UNL     1       0.391  11.252  21.090  0.00  0.00    +0.000 NA
ATOM     16  C   UNL     1       0.937  10.454  20.128  0.00  0.00    +0.000 A 
BRANCH  16  17
ATOM     17  S   UNL     1       1.467  11.325  18.652  0.00  0.00    +0.000 S 
ATOM     18  C   UNL     1       0.621  12.929  18.820  0.00  0.00    +0.000 C 
ENDBRANCH  16  17
ENDBRANCH   8  11
ENDBRANCH   6   7
BRANCH   4  19
ATOM     19  S   UNL     1       5.380   5.595  15.999  0.00  0.00    +0.000 S 
ATOM     20  O   UNL     1       5.691   4.375  15.270  0.00  0.00    +0.000 OA
ATOM     21  O   UNL     1       4.990   6.796  15.292  0.00  0.00    +0.000 OA
BRANCH  19  22
ATOM     22  N   UNL     1       6.712   5.988  17.005  0.00  0.00    +0.000 NA
ATOM     23  C   UNL     1       6.870   7.431  17.325  0.00  0.00    +0.000 C 
ATOM     24  C   UNL     1       8.170   7.708  18.077  0.00  0.00    +0.000 C 
ATOM     25  C   UNL     1       8.311   6.808  19.295  0.00  0.00    +0.000 C 
ATOM     26  C   UNL     1       8.249   5.354  18.856  0.00  0.00    +0.000 C 
ATOM     27  C   UNL     1       6.940   5.051  18.134  0.00  0.00    +0.000 C 
ENDBRANCH  19  22
ENDBRANCH   4  19
BRANCH   1  29
ATOM     28  C   UNL     1       1.145   3.069  20.581  0.00  0.00    +0.000 C 
ATOM     29  O   UNL     1       0.971   4.246  19.790  0.00  0.00    +0.000 OA
ENDBRANCH   1  29
TORSDOF 6
ENDMDL
MODEL 8
REMARK VINA RESULT:      -7.4      2.277      8.151
REMARK  Name = 
REMARK  8 active torsions:
REMARK  status: ('A' for Active; 'I' for Inactive)
REMARK    1  A    between atoms: C_1  and  O_2
REMARK    2  A    between atoms: O_2  and  C_3
REMARK    3  A    between atoms: C_6  and  S_7
REMARK    4  A    between atoms: S_7  and  N_10
REMARK    5  A    between atoms: C_17  and  N_18
REMARK    6  A    between atoms: C_19  and  C_21
REMARK    7  A    between atoms: C_26  and  S_27
REMARK    8  A    between atoms: S_27  and  C_28
REMARK                            x       y       z     vdW  Elec       q    Type
REMARK                         _______ _______ _______ _____ _____    ______ ____
ROOT
ATOM      1  C   UNL     1       1.887   6.635  20.188  0.00  0.00    +0.000 A 
ATOM      2  C   UNL     1       1.250   7.480  21.101  0.00  0.00    +0.000 A 
ATOM      3  C   UNL     1       1.016   8.818  20.791  0.00  0.00    +0.000 A 
ATOM      4  C   UNL     1       1.408   9.328  19.555  0.00  0.00    +0.000 A 
ATOM      5  C   UNL     1       1.998   8.489  18.604  0.00  0.00    +0.000 A 
ATOM      6  C   UNL     1       2.269   7.146  18.931  0.00  0.00    +0.000 A 
ENDROOT
BRANCH   6   7
ATOM      7  N   UNL     1       2.945   6.305  18.010  0.00  0.00    +0.000 N 
ATOM      8  C   UNL     1       4.295   6.013  18.134  0.00  0.00    +0.000 C 
ATOM      9  O   UNL     1       4.983   6.415  19.074  0.00  0.00    +0.000 OA
ATOM     10  H   UNL     1       2.366   5.633  17.510  0.00  0.00    +0.000 HD
BRANCH   8  11
ATOM     11  C   UNL     1       4.961   5.178  17.086  0.00  0.00    +0.000 A 
ATOM     12  C   UNL     1       5.893   5.871  16.284  0.00  0.00    +0.000 A 
ATOM     13  C   UNL     1       6.537   5.241  15.227  0.00  0.00    +0.000 A 
ATOM     14  C   UNL     1       6.242   3.914  15.001  0.00  0.00    +0.000 A 
ATOM     15  N   UNL     1       5.384   3.200  15.762  0.00  0.00    +0.000 NA
ATOM     16  C   UNL     1       4.752   3.822  16.798  0.00  0.00    +0.000 A 
BRANCH  16  17
ATOM     17  S   UNL     1       3.680   2.756  17.763  0.00  0.00    +0.000 S 
ATOM     18  C   UNL     1       4.476   2.780  19.401  0.00  0.00    +0.000 C 
ENDBRANCH  16  17
ENDBRANCH   8  11
ENDBRANCH   6   7
BRANCH   4  19
ATOM     19  S   UNL     1       1.057  11.042  19.191  0.00  0.00    +0.000 S 
ATOM     20  O   UNL     1       0.966  11.744  20.461  0.00  0.00    +0.000 OA
ATOM     21  O   UNL     1       2.009  11.461  18.184  0.00  0.00    +0.000 OA
BRANCH  19  22
ATOM     22  N   UNL     1      -0.496  11.016  18.465  0.00  0.00    +0.000 NA
ATOM     23  C   UNL     1      -0.796   9.822  17.631  0.00  0.00    +0.000 C 
ATOM     24  C   UNL     1      -2.123   9.964  16.889  0.00  0.00    +0.000 C 
ATOM     25  C   UNL     1      -3.255  10.328  17.839  0.00  0.00    +0.000 C 
ATOM     26  C   UNL     1      -2.908  11.619  18.563  0.00  0.00    +0.000 C 
ATOM     27  C   UNL     1      -1.602  11.483  19.339  0.00  0.00    +0.000 C 
ENDBRANCH  19  22
ENDBRANCH   4  19
BRANCH   1  29
ATOM     28  C   UNL     1       1.078   4.425  20.393  0.00  0.00    +0.000 C 
ATOM     29  O   UNL     1       2.188   5.321  20.464  0.00  0.00    +0.000 OA
ENDBRANCH   1  29
TORSDOF 6
ENDMDL
MODEL 9
REMARK VINA RESULT:      -7.4      1.815      2.611
REMARK  Name = 
REMARK  8 active torsions:
REMARK  status: ('A' for Active; 'I' for Inactive)
REMARK    1  A    between atoms: C_1  and  O_2
REMARK    2  A    between atoms: O_2  and  C_3
REMARK    3  A    between atoms: C_6  and  S_7
REMARK    4  A    between atoms: S_7  and  N_10
REMARK    5  A    between atoms: C_17  and  N_18
REMARK    6  A    between atoms: C_19  and  C_21
REMARK    7  A    between atoms: C_26  and  S_27
REMARK    8  A    between atoms: S_27  and  C_28
REMARK                            x       y       z     vdW  Elec       q    Type
REMARK                         _______ _______ _______ _____ _____    ______ ____
ROOT
ATOM      1  C   UNL     1       2.559   4.238  19.873  0.00  0.00    +0.000 A 
ATOM      2  C   UNL     1       3.371   3.288  19.245  0.00  0.00    +0.000 A 
ATOM      3  C   UNL     1       4.603   3.650  18.704  0.00  0.00    +0.000 A 
ATOM      4  C   UNL     1       5.046   4.968  18.794  0.00  0.00    +0.000 A 
ATOM      5  C   UNL     1       4.277   5.923  19.466  0.00  0.00    +0.000 A 
ATOM      6  C   UNL     1       3.014   5.567  19.980  0.00  0.00    +0.000 A 
ENDROOT
BRANCH   6   7
ATOM      7  N   UNL     1       2.185   6.544  20.587  0.00  0.00    +0.000 N 
ATOM      8  C   UNL     1       1.874   7.739  19.956  0.00  0.00    +0.000 C 
ATOM      9  O   UNL     1       2.248   8.011  18.813  0.00  0.00    +0.000 OA
ATOM     10  H   UNL     1       1.530   6.203  21.287  0.00  0.00    +0.000 HD
BRANCH   8  11
ATOM     11  C   UNL     1       1.052   8.758  20.683  0.00  0.00    +0.000 A 
ATOM     12  C   UNL     1       1.093   8.653  22.090  0.00  0.00    +0.000 A 
ATOM     13  C   UNL     1       0.325   9.487  22.893  0.00  0.00    +0.000 A 
ATOM     14  C   UNL     1      -0.464  10.426  22.266  0.00  0.00    +0.000 A 
ATOM     15  N   UNL     1      -0.510  10.587  20.925  0.00  0.00    +0.000 NA
ATOM     16  C   UNL     1       0.243   9.765  20.139  0.00  0.00    +0.000 A 
BRANCH  16  17
ATOM     17  S   UNL     1       0.136  10.112  18.382  0.00  0.00    +0.000 S 
ATOM     18  C   UNL     1      -1.208  11.338  18.307  0.00  0.00    +0.000 C 
ENDBRANCH  16  17
ENDBRANCH   8  11
ENDBRANCH   6   7
BRANCH   4  19
ATOM     19  S   UNL     1       6.648   5.376  18.115  0.00  0.00    +0.000 S 
ATOM     20  O   UNL     1       6.921   6.764  18.452  0.00  0.00    +0.000 OA
ATOM     21  O   UNL     1       7.557   4.326  18.525  0.00  0.00    +0.000 OA
BRANCH  19  22
ATOM     22  N   UNL     1       6.438   5.253  16.418  0.00  0.00    +0.000 NA
ATOM     23  C   UNL     1       6.815   3.947  15.817  0.00  0.00    +0.000 C 
ATOM     24  C   UNL     1       6.760   3.985  14.291  0.00  0.00    +0.000 C 
ATOM     25  C   UNL     1       5.417   4.503  13.796  0.00  0.00    +0.000 C 
ATOM     26  C   UNL     1       5.169   5.888  14.373  0.00  0.00    +0.000 C 
ATOM     27  C   UNL     1       5.186   5.861  15.899  0.00  0.00    +0.000 C 
ENDBRANCH  19  22
ENDBRANCH   4  19
BRANCH   1  29
ATOM     28  C   UNL     1       1.275   2.828  21.268  0.00  0.00    +0.000 C 
ATOM     29  O   UNL     1       1.313   3.943  20.377  0.00  0.00    +0.000 OA
ENDBRANCH   1  29
TORSDOF 6
ENDMDL
