MODEL 1
REMARK VINA RESULT:      -8.8      0.000      0.000
REMARK  Name = 
REMARK  5 active torsions:
REMARK  status: ('A' for Active; 'I' for Inactive)
REMARK    1  A    between atoms: C_3  and  C_4
REMARK    2  A    between atoms: C_4  and  C_5
REMARK    3  A    between atoms: C_12  and  C_13
REMARK    4  A    between atoms: N_25  and  C_26
REMARK    5  A    between atoms: C_26  and  C_27
REMARK                            x       y       z     vdW  Elec       q    Type
REMARK                         _______ _______ _______ _____ _____    ______ ____
ROOT
ATOM      1  O   UNL     1       1.595  13.721  19.694  0.00  0.00    +0.000 OA
ATOM      2  C   UNL     1       0.393  13.562  19.464  0.00  0.00    +0.000 C 
ATOM      3  C   UNL     1      -0.618  14.680  19.703  0.00  0.00    +0.000 C 
ATOM      4  N   UNL     1      -1.426  14.309  20.873  0.00  0.00    +0.000 NA
ATOM      5  C   UNL     1      -2.320  13.385  20.747  0.00  0.00    +0.000 C 
ATOM      6  C   UNL     1      -2.552  12.607  19.482  0.00  0.00    +0.000 A 
ATOM      7  C   UNL     1      -3.891  12.299  19.149  0.00  0.00    +0.000 A 
ATOM      8  C   UNL     1      -4.200  11.522  18.036  0.00  0.00    +0.000 A 
ATOM      9  C   UNL     1      -3.184  11.118  17.188  0.00  0.00    +0.000 A 
ATOM     10  C   UNL     1      -1.860  11.447  17.484  0.00  0.00    +0.000 A 
ATOM     11  C   UNL     1      -1.506  12.154  18.651  0.00  0.00    +0.000 A 
ATOM     12  N   UNL     1      -0.112  12.378  18.917  0.00  0.00    +0.000 N 
ENDROOT
BRANCH   5  13
ATOM     13  C   UNL     1      -3.215  13.149  21.936  0.00  0.00    +0.000 A 
ATOM     14  C   UNL     1      -2.787  12.266  22.938  0.00  0.00    +0.000 A 
ATOM     15  C   UNL     1      -3.541  12.097  24.101  0.00  0.00    +0.000 A 
ATOM     16  C   UNL     1      -4.722  12.815  24.274  0.00  0.00    +0.000 A 
ATOM     17  C   UNL     1      -5.167  13.678  23.272  0.00  0.00    +0.000 A 
ATOM     18  C   UNL     1      -4.430  13.827  22.096  0.00  0.00    +0.000 A 
ENDBRANCH   5  13
BRANCH   3  19
ATOM     19  C   UNL     1       0.110  16.012  19.985  0.00  0.00    +0.000 C 
BRANCH  19  20
ATOM     20  C   UNL     1       0.218  16.866  18.736  0.00  0.00    +0.000 A 
ATOM     21  C   UNL     1       1.478  17.090  18.167  0.00  0.00    +0.000 A 
ATOM     22  C   UNL     1       1.626  17.968  17.095  0.00  0.00    +0.000 A 
ATOM     23  C   UNL     1       0.510  18.621  16.579  0.00  0.00    +0.000 A 
ATOM     24  C   UNL     1      -0.752  18.379  17.120  0.00  0.00    +0.000 A 
ATOM     25  C   UNL     1      -0.899  17.500  18.196  0.00  0.00    +0.000 A 
ENDBRANCH  19  20
ENDBRANCH   3  19
BRANCH  12  26
ATOM     26  C   UNL     1       0.858  11.310  18.613  0.00  0.00    +0.000 C 
BRANCH  26  27
ATOM     27  C   UNL     1       0.864  10.175  19.625  0.00  0.00    +0.000 A 
ATOM     28  C   UNL     1       0.330  10.402  20.910  0.00  0.00    +0.000 A 
ATOM     29  C   UNL     1       0.368   9.414  21.886  0.00  0.00    +0.000 A 
ATOM     30  C   UNL     1       0.985   8.203  21.608  0.00  0.00    +0.000 A 
ATOM     31  C   UNL     1       1.566   7.980  20.351  0.00  0.00    +0.000 A 
ATOM     32  C   UNL     1       2.275   6.797  20.104  0.00  0.00    +0.000 A 
ATOM     33  C   UNL     1       2.852   6.582  18.862  0.00  0.00    +0.000 A 
ATOM     34  C   UNL     1       2.668   7.549  17.895  0.00  0.00    +0.000 A 
ATOM     35  N   UNL     1       2.011   8.713  18.102  0.00  0.00    +0.000 NA
ATOM     36  C   UNL     1       1.480   8.952  19.323  0.00  0.00    +0.000 A 
ENDBRANCH  26  27
ENDBRANCH  12  26
TORSDOF 5
ENDMDL
MODEL 2
REMARK VINA RESULT:      -8.6      0.869      1.371
REMARK  Name = 
REMARK  5 active torsions:
REMARK  status: ('A' for Active; 'I' for Inactive)
REMARK    1  A    between atoms: C_3  and  C_4
REMARK    2  A    between atoms: C_4  and  C_5
REMARK    3  A    between atoms: C_12  and  C_13
REMARK    4  A    between atoms: N_25  and  C_26
REMARK    5  A    between atoms: C_26  and  C_27
REMARK                            x       y       z     vdW  Elec       q    Type
REMARK                         _______ _______ _______ _____ _____    ______ ____
ROOT
ATOM      1  O   UNL     1       2.380  12.994  19.091  0.00  0.00    +0.000 OA
ATOM      2  C   UNL     1       1.148  12.999  19.021  0.00  0.00    +0.000 C 
ATOM      3  C   UNL     1       0.339  14.259  19.311  0.00  0.00    +0.000 C 
ATOM      4  N   UNL     1      -0.353  14.063  20.593  0.00  0.00    +0.000 NA
ATOM      5  C   UNL     1      -1.372  13.271  20.637  0.00  0.00    +0.000 C 
ATOM      6  C   UNL     1      -1.872  12.477  19.463  0.00  0.00    +0.000 A 
ATOM      7  C   UNL     1      -3.272  12.348  19.317  0.00  0.00    +0.000 A 
ATOM      8  C   UNL     1      -3.826  11.572  18.303  0.00  0.00    +0.000 A 
ATOM      9  C   UNL     1      -2.995  10.988  17.364  0.00  0.00    +0.000 A 
ATOM     10  C   UNL     1      -1.611  11.138  17.473  0.00  0.00    +0.000 A 
ATOM     11  C   UNL     1      -1.014  11.841  18.541  0.00  0.00    +0.000 A 
ATOM     12  N   UNL     1       0.419  11.875  18.618  0.00  0.00    +0.000 N 
ENDROOT
BRANCH   5  13
ATOM     13  C   UNL     1      -2.128  13.221  21.940  0.00  0.00    +0.000 A 
ATOM     14  C   UNL     1      -2.764  14.384  22.397  0.00  0.00    +0.000 A 
ATOM     15  C   UNL     1      -3.556  14.352  23.547  0.00  0.00    +0.000 A 
ATOM     16  C   UNL     1      -3.724  13.156  24.242  0.00  0.00    +0.000 A 
ATOM     17  C   UNL     1      -3.076  11.999  23.807  0.00  0.00    +0.000 A 
ATOM     18  C   UNL     1      -2.261  12.036  22.674  0.00  0.00    +0.000 A 
ENDBRANCH   5  13
BRANCH   3  19
ATOM     19  C   UNL     1       1.271  15.485  19.415  0.00  0.00    +0.000 C 
BRANCH  19  20
ATOM     20  C   UNL     1       0.774  16.641  18.567  0.00  0.00    +0.000 A 
ATOM     21  C   UNL     1      -0.584  16.980  18.602  0.00  0.00    +0.000 A 
ATOM     22  C   UNL     1      -1.093  17.954  17.744  0.00  0.00    +0.000 A 
ATOM     23  C   UNL     1      -0.242  18.600  16.851  0.00  0.00    +0.000 A 
ATOM     24  C   UNL     1       1.117  18.290  16.833  0.00  0.00    +0.000 A 
ATOM     25  C   UNL     1       1.626  17.312  17.691  0.00  0.00    +0.000 A 
ENDBRANCH  19  20
ENDBRANCH   3  19
BRANCH  12  26
ATOM     26  C   UNL     1       1.187  10.667  18.266  0.00  0.00    +0.000 C 
BRANCH  26  27
ATOM     27  C   UNL     1       1.111   9.562  19.308  0.00  0.00    +0.000 A 
ATOM     28  C   UNL     1       0.403   9.798  20.505  0.00  0.00    +0.000 A 
ATOM     29  C   UNL     1       0.357   8.841  21.511  0.00  0.00    +0.000 A 
ATOM     30  C   UNL     1       1.059   7.654  21.356  0.00  0.00    +0.000 A 
ATOM     31  C   UNL     1       1.811   7.425  20.194  0.00  0.00    +0.000 A 
ATOM     32  C   UNL     1       2.598   6.272  20.083  0.00  0.00    +0.000 A 
ATOM     33  C   UNL     1       3.343   6.051  18.934  0.00  0.00    +0.000 A 
ATOM     34  C   UNL     1       3.245   6.981  17.919  0.00  0.00    +0.000 A 
ATOM     35  N   UNL     1       2.514   8.116  17.999  0.00  0.00    +0.000 NA
ATOM     36  C   UNL     1       1.817   8.363  19.131  0.00  0.00    +0.000 A 
ENDBRANCH  26  27
ENDBRANCH  12  26
TORSDOF 5
ENDMDL
MODEL 3
REMARK VINA RESULT:      -8.1      1.052      1.282
REMARK  Name = 
REMARK  5 active torsions:
REMARK  status: ('A' for Active; 'I' for Inactive)
REMARK    1  A    between atoms: C_3  and  C_4
REMARK    2  A    between atoms: C_4  and  C_5
REMARK    3  A    between atoms: C_12  and  C_13
REMARK    4  A    between atoms: N_25  and  C_26
REMARK    5  A    between atoms: C_26  and  C_27
REMARK                            x       y       z     vdW  Elec       q    Type
REMARK                         _______ _______ _______ _____ _____    ______ ____
ROOT
ATOM      1  O   UNL     1       2.224  12.798  18.852  0.00  0.00    +0.000 OA
ATOM      2  C   UNL     1       1.006  12.644  18.720  0.00  0.00    +0.000 C 
ATOM      3  C   UNL     1       0.035  13.812  18.864  0.00  0.00    +0.000 C 
ATOM      4  N   UNL     1      -0.703  13.630  20.121  0.00  0.00    +0.000 NA
ATOM      5  C   UNL     1      -1.621  12.723  20.179  0.00  0.00    +0.000 C 
ATOM      6  C   UNL     1      -1.950  11.785  19.053  0.00  0.00    +0.000 A 
ATOM      7  C   UNL     1      -3.313  11.473  18.848  0.00  0.00    +0.000 A 
ATOM      8  C   UNL     1      -3.709  10.559  17.875  0.00  0.00    +0.000 A 
ATOM      9  C   UNL     1      -2.759  10.013  17.031  0.00  0.00    +0.000 A 
ATOM     10  C   UNL     1      -1.412  10.342  17.196  0.00  0.00    +0.000 A 
ATOM     11  C   UNL     1      -0.969  11.193  18.230  0.00  0.00    +0.000 A 
ATOM     12  N   UNL     1       0.443  11.411  18.376  0.00  0.00    +0.000 N 
ENDROOT
BRANCH   5  13
ATOM     13  C   UNL     1      -2.441  12.678  21.443  0.00  0.00    +0.000 A 
ATOM     14  C   UNL     1      -2.049  11.811  22.473  0.00  0.00    +0.000 A 
ATOM     15  C   UNL     1      -2.724  11.813  23.695  0.00  0.00    +0.000 A 
ATOM     16  C   UNL     1      -3.789  12.688  23.899  0.00  0.00    +0.000 A 
ATOM     17  C   UNL     1      -4.201  13.538  22.872  0.00  0.00    +0.000 A 
ATOM     18  C   UNL     1      -3.546  13.516  21.639  0.00  0.00    +0.000 A 
ENDBRANCH   5  13
BRANCH   3  19
ATOM     19  C   UNL     1       0.806  15.149  18.912  0.00  0.00    +0.000 C 
BRANCH  19  20
ATOM     20  C   UNL     1      -0.081  16.321  18.537  0.00  0.00    +0.000 A 
ATOM     21  C   UNL     1       0.335  17.198  17.528  0.00  0.00    +0.000 A 
ATOM     22  C   UNL     1      -0.396  18.351  17.246  0.00  0.00    +0.000 A 
ATOM     23  C   UNL     1      -1.554  18.628  17.968  0.00  0.00    +0.000 A 
ATOM     24  C   UNL     1      -1.991  17.743  18.953  0.00  0.00    +0.000 A 
ATOM     25  C   UNL     1      -1.256  16.589  19.237  0.00  0.00    +0.000 A 
ENDBRANCH  19  20
ENDBRANCH   3  19
BRANCH  12  26
ATOM     26  C   UNL     1       1.370  10.284  18.164  0.00  0.00    +0.000 C 
BRANCH  26  27
ATOM     27  C   UNL     1       1.301   9.217  19.245  0.00  0.00    +0.000 A 
ATOM     28  C   UNL     1       0.642   9.512  20.457  0.00  0.00    +0.000 A 
ATOM     29  C   UNL     1       0.606   8.590  21.495  0.00  0.00    +0.000 A 
ATOM     30  C   UNL     1       1.271   7.380  21.358  0.00  0.00    +0.000 A 
ATOM     31  C   UNL     1       1.974   7.092  20.179  0.00  0.00    +0.000 A 
ATOM     32  C   UNL     1       2.727   5.914  20.080  0.00  0.00    +0.000 A 
ATOM     33  C   UNL     1       3.424   5.635  18.914  0.00  0.00    +0.000 A 
ATOM     34  C   UNL     1       3.315   6.533  17.872  0.00  0.00    +0.000 A 
ATOM     35  N   UNL     1       2.618   7.690  17.939  0.00  0.00    +0.000 NA
ATOM     36  C   UNL     1       1.968   7.993  19.085  0.00  0.00    +0.000 A 
ENDBRANCH  26  27
ENDBRANCH  12  26
TORSDOF 5
ENDMDL
MODEL 4
REMARK VINA RESULT:      -8.1      1.513      7.171
REMARK  Name = 
REMARK  5 active torsions:
REMARK  status: ('A' for Active; 'I' for Inactive)
REMARK    1  A    between atoms: C_3  and  C_4
REMARK    2  A    between atoms: C_4  and  C_5
REMARK    3  A    between atoms: C_12  and  C_13
REMARK    4  A    between atoms: N_25  and  C_26
REMARK    5  A    between atoms: C_26  and  C_27
REMARK                            x       y       z     vdW  Elec       q    Type
REMARK                         _______ _______ _______ _____ _____    ______ ____
ROOT
ATOM      1  O   UNL     1       1.018  13.458  18.352  0.00  0.00    +0.000 OA
ATOM      2  C   UNL     1       0.220  13.082  19.216  0.00  0.00    +0.000 C 
ATOM      3  C   UNL     1      -0.376  11.678  19.193  0.00  0.00    +0.000 C 
ATOM      4  N   UNL     1      -1.791  11.798  18.819  0.00  0.00    +0.000 NA
ATOM      5  C   UNL     1      -2.630  12.253  19.689  0.00  0.00    +0.000 C 
ATOM      6  C   UNL     1      -2.243  12.734  21.059  0.00  0.00    +0.000 A 
ATOM      7  C   UNL     1      -3.120  12.426  22.124  0.00  0.00    +0.000 A 
ATOM      8  C   UNL     1      -2.882  12.890  23.415  0.00  0.00    +0.000 A 
ATOM      9  C   UNL     1      -1.718  13.589  23.681  0.00  0.00    +0.000 A 
ATOM     10  C   UNL     1      -0.823  13.867  22.646  0.00  0.00    +0.000 A 
ATOM     11  C   UNL     1      -1.080  13.491  21.311  0.00  0.00    +0.000 A 
ATOM     12  N   UNL     1      -0.143  13.890  20.298  0.00  0.00    +0.000 N 
ENDROOT
BRANCH   5  13
ATOM     13  C   UNL     1      -4.086  12.219  19.301  0.00  0.00    +0.000 A 
ATOM     14  C   UNL     1      -4.507  11.288  18.340  0.00  0.00    +0.000 A 
ATOM     15  C   UNL     1      -5.862  11.158  18.027  0.00  0.00    +0.000 A 
ATOM     16  C   UNL     1      -6.805  11.949  18.679  0.00  0.00    +0.000 A 
ATOM     17  C   UNL     1      -6.393  12.894  19.620  0.00  0.00    +0.000 A 
ATOM     18  C   UNL     1      -5.036  13.046  19.913  0.00  0.00    +0.000 A 
ENDBRANCH   5  13
BRANCH   3  19
ATOM     19  C   UNL     1       0.356  10.801  18.154  0.00  0.00    +0.000 C 
BRANCH  19  20
ATOM     20  C   UNL     1       1.060   9.627  18.808  0.00  0.00    +0.000 A 
ATOM     21  C   UNL     1       1.849   8.778  18.022  0.00  0.00    +0.000 A 
ATOM     22  C   UNL     1       2.408   7.624  18.567  0.00  0.00    +0.000 A 
ATOM     23  C   UNL     1       2.186   7.316  19.907  0.00  0.00    +0.000 A 
ATOM     24  C   UNL     1       1.427   8.172  20.703  0.00  0.00    +0.000 A 
ATOM     25  C   UNL     1       0.866   9.328  20.155  0.00  0.00    +0.000 A 
ENDBRANCH  19  20
ENDBRANCH   3  19
BRANCH  12  26
ATOM     26  C   UNL     1       0.475  15.226  20.377  0.00  0.00    +0.000 C 
BRANCH  26  27
ATOM     27  C   UNL     1      -0.346  16.327  19.723  0.00  0.00    +0.000 A 
ATOM     28  C   UNL     1      -1.672  16.539  20.156  0.00  0.00    +0.000 A 
ATOM     29  C   UNL     1      -2.480  17.491  19.548  0.00  0.00    +0.000 A 
ATOM     30  C   UNL     1      -1.992  18.211  18.467  0.00  0.00    +0.000 A 
ATOM     31  C   UNL     1      -0.693  17.976  17.992  0.00  0.00    +0.000 A 
ATOM     32  C   UNL     1      -0.237  18.631  16.840  0.00  0.00    +0.000 A 
ATOM     33  C   UNL     1       1.047  18.393  16.371  0.00  0.00    +0.000 A 
ATOM     34  C   UNL     1       1.843  17.530  17.096  0.00  0.00    +0.000 A 
ATOM     35  N   UNL     1       1.430  16.862  18.198  0.00  0.00    +0.000 NA
ATOM     36  C   UNL     1       0.167  17.054  18.640  0.00  0.00    +0.000 A 
ENDBRANCH  26  27
ENDBRANCH  12  26
TORSDOF 5
ENDMDL
MODEL 5
REMARK VINA RESULT:      -8.1      1.468      7.299
REMARK  Name = 
REMARK  5 active torsions:
REMARK  status: ('A' for Active; 'I' for Inactive)
REMARK    1  A    between atoms: C_3  and  C_4
REMARK    2  A    between atoms: C_4  and  C_5
REMARK    3  A    between atoms: C_12  and  C_13
REMARK    4  A    between atoms: N_25  and  C_26
REMARK    5  A    between atoms: C_26  and  C_27
REMARK                            x       y       z     vdW  Elec       q    Type
REMARK                         _______ _______ _______ _____ _____    ______ ____
ROOT
ATOM      1  O   UNL     1       1.738  13.510  18.324  0.00  0.00    +0.000 OA
ATOM      2  C   UNL     1       0.913  13.083  19.137  0.00  0.00    +0.000 C 
ATOM      3  C   UNL     1       0.430  11.636  19.095  0.00  0.00    +0.000 C 
ATOM      4  N   UNL     1      -0.961  11.642  18.622  0.00  0.00    +0.000 NA
ATOM      5  C   UNL     1      -1.892  12.040  19.425  0.00  0.00    +0.000 C 
ATOM      6  C   UNL     1      -1.640  12.565  20.811  0.00  0.00    +0.000 A 
ATOM      7  C   UNL     1      -2.562  12.202  21.818  0.00  0.00    +0.000 A 
ATOM      8  C   UNL     1      -2.452  12.697  23.114  0.00  0.00    +0.000 A 
ATOM      9  C   UNL     1      -1.366  13.487  23.448  0.00  0.00    +0.000 A 
ATOM     10  C   UNL     1      -0.425  13.822  22.473  0.00  0.00    +0.000 A 
ATOM     11  C   UNL     1      -0.558  13.413  21.130  0.00  0.00    +0.000 A 
ATOM     12  N   UNL     1       0.413  13.872  20.178  0.00  0.00    +0.000 N 
ENDROOT
BRANCH   5  13
ATOM     13  C   UNL     1      -3.310  11.888  18.939  0.00  0.00    +0.000 A 
ATOM     14  C   UNL     1      -4.332  12.577  19.609  0.00  0.00    +0.000 A 
ATOM     15  C   UNL     1      -5.642  12.541  19.128  0.00  0.00    +0.000 A 
ATOM     16  C   UNL     1      -5.939  11.824  17.971  0.00  0.00    +0.000 A 
ATOM     17  C   UNL     1      -4.933  11.117  17.311  0.00  0.00    +0.000 A 
ATOM     18  C   UNL     1      -3.628  11.128  17.806  0.00  0.00    +0.000 A 
ENDBRANCH   5  13
BRANCH   3  19
ATOM     19  C   UNL     1       1.297  10.808  18.124  0.00  0.00    +0.000 C 
BRANCH  19  20
ATOM     20  C   UNL     1       1.554   9.410  18.655  0.00  0.00    +0.000 A 
ATOM     21  C   UNL     1       1.260   9.123  19.994  0.00  0.00    +0.000 A 
ATOM     22  C   UNL     1       1.598   7.888  20.544  0.00  0.00    +0.000 A 
ATOM     23  C   UNL     1       2.225   6.928  19.753  0.00  0.00    +0.000 A 
ATOM     24  C   UNL     1       2.492   7.195  18.412  0.00  0.00    +0.000 A 
ATOM     25  C   UNL     1       2.155   8.435  17.861  0.00  0.00    +0.000 A 
ENDBRANCH  19  20
ENDBRANCH   3  19
BRANCH  12  26
ATOM     26  C   UNL     1       0.920  15.253  20.277  0.00  0.00    +0.000 C 
BRANCH  26  27
ATOM     27  C   UNL     1      -0.014  16.298  19.687  0.00  0.00    +0.000 A 
ATOM     28  C   UNL     1      -1.319  16.421  20.209  0.00  0.00    +0.000 A 
ATOM     29  C   UNL     1      -2.227  17.319  19.662  0.00  0.00    +0.000 A 
ATOM     30  C   UNL     1      -1.861  18.072  18.556  0.00  0.00    +0.000 A 
ATOM     31  C   UNL     1      -0.584  17.924  17.993  0.00  0.00    +0.000 A 
ATOM     32  C   UNL     1      -0.251  18.609  16.817  0.00  0.00    +0.000 A 
ATOM     33  C   UNL     1       1.011  18.458  16.262  0.00  0.00    +0.000 A 
ATOM     34  C   UNL     1       1.909  17.648  16.926  0.00  0.00    +0.000 A 
ATOM     35  N   UNL     1       1.616  16.952  18.049  0.00  0.00    +0.000 NA
ATOM     36  C   UNL     1       0.376  17.060  18.576  0.00  0.00    +0.000 A 
ENDBRANCH  26  27
ENDBRANCH  12  26
TORSDOF 5
ENDMDL
MODEL 6
REMARK VINA RESULT:      -8.0      2.339      6.742
REMARK  Name = 
REMARK  5 active torsions:
REMARK  status: ('A' for Active; 'I' for Inactive)
REMARK    1  A    between atoms: C_3  and  C_4
REMARK    2  A    between atoms: C_4  and  C_5
REMARK    3  A    between atoms: C_12  and  C_13
REMARK    4  A    between atoms: N_25  and  C_26
REMARK    5  A    between atoms: C_26  and  C_27
REMARK                            x       y       z     vdW  Elec       q    Type
REMARK                         _______ _______ _______ _____ _____    ______ ____
ROOT
ATOM      1  O   UNL     1      -1.218  15.466  21.731  0.00  0.00    +0.000 OA
ATOM      2  C   UNL     1      -0.922  14.335  21.332  0.00  0.00    +0.000 C 
ATOM      3  C   UNL     1      -0.214  14.121  19.998  0.00  0.00    +0.000 C 
ATOM      4  N   UNL     1      -1.180  13.522  19.069  0.00  0.00    +0.000 NA
ATOM      5  C   UNL     1      -1.502  12.279  19.217  0.00  0.00    +0.000 C 
ATOM      6  C   UNL     1      -0.994  11.407  20.330  0.00  0.00    +0.000 A 
ATOM      7  C   UNL     1      -0.689  10.064  20.012  0.00  0.00    +0.000 A 
ATOM      8  C   UNL     1      -0.281   9.162  20.991  0.00  0.00    +0.000 A 
ATOM      9  C   UNL     1      -0.082   9.609  22.285  0.00  0.00    +0.000 A 
ATOM     10  C   UNL     1      -0.343  10.943  22.606  0.00  0.00    +0.000 A 
ATOM     11  C   UNL     1      -0.845  11.859  21.658  0.00  0.00    +0.000 A 
ATOM     12  N   UNL     1      -1.161  13.189  22.097  0.00  0.00    +0.000 N 
ENDROOT
BRANCH   5  13
ATOM     13  C   UNL     1      -2.383  11.681  18.152  0.00  0.00    +0.000 A 
ATOM     14  C   UNL     1      -3.764  11.598  18.385  0.00  0.00    +0.000 A 
ATOM     15  C   UNL     1      -4.624  11.142  17.384  0.00  0.00    +0.000 A 
ATOM     16  C   UNL     1      -4.112  10.776  16.141  0.00  0.00    +0.000 A 
ATOM     17  C   UNL     1      -2.738  10.833  15.908  0.00  0.00    +0.000 A 
ATOM     18  C   UNL     1      -1.873  11.261  16.917  0.00  0.00    +0.000 A 
ENDBRANCH   5  13
BRANCH   3  19
ATOM     19  C   UNL     1       0.278  15.469  19.428  0.00  0.00    +0.000 C 
BRANCH  19  20
ATOM     20  C   UNL     1       1.642  15.338  18.778  0.00  0.00    +0.000 A 
ATOM     21  C   UNL     1       2.271  14.087  18.754  0.00  0.00    +0.000 A 
ATOM     22  C   UNL     1       3.574  13.958  18.276  0.00  0.00    +0.000 A 
ATOM     23  C   UNL     1       4.253  15.081  17.809  0.00  0.00    +0.000 A 
ATOM     24  C   UNL     1       3.621  16.324  17.801  0.00  0.00    +0.000 A 
ATOM     25  C   UNL     1       2.316  16.453  18.283  0.00  0.00    +0.000 A 
ENDBRANCH  19  20
ENDBRANCH   3  19
BRANCH  12  26
ATOM     26  C   UNL     1      -1.783  13.381  23.420  0.00  0.00    +0.000 C 
BRANCH  26  27
ATOM     27  C   UNL     1      -3.282  13.634  23.368  0.00  0.00    +0.000 A 
ATOM     28  C   UNL     1      -4.100  12.747  22.638  0.00  0.00    +0.000 A 
ATOM     29  C   UNL     1      -5.465  12.972  22.512  0.00  0.00    +0.000 A 
ATOM     30  C   UNL     1      -6.023  14.112  23.070  0.00  0.00    +0.000 A 
ATOM     31  C   UNL     1      -5.215  15.031  23.756  0.00  0.00    +0.000 A 
ATOM     32  C   UNL     1      -5.761  16.230  24.232  0.00  0.00    +0.000 A 
ATOM     33  C   UNL     1      -4.958  17.137  24.906  0.00  0.00    +0.000 A 
ATOM     34  C   UNL     1      -3.636  16.795  25.109  0.00  0.00    +0.000 A 
ATOM     35  N   UNL     1      -3.068  15.659  24.643  0.00  0.00    +0.000 NA
ATOM     36  C   UNL     1      -3.832  14.786  23.949  0.00  0.00    +0.000 A 
ENDBRANCH  26  27
ENDBRANCH  12  26
TORSDOF 5
ENDMDL
MODEL 7
REMARK VINA RESULT:      -7.9      1.245      1.683
REMARK  Name = 
REMARK  5 active torsions:
REMARK  status: ('A' for Active; 'I' for Inactive)
REMARK    1  A    between atoms: C_3  and  C_4
REMARK    2  A    between atoms: C_4  and  C_5
REMARK    3  A    between atoms: C_12  and  C_13
REMARK    4  A    between atoms: N_25  and  C_26
REMARK    5  A    between atoms: C_26  and  C_27
REMARK                            x       y       z     vdW  Elec       q    Type
REMARK                         _______ _______ _______ _____ _____    ______ ____
ROOT
ATOM      1  O   UNL     1       2.514  12.683  18.738  0.00  0.00    +0.000 OA
ATOM      2  C   UNL     1       1.282  12.638  18.669  0.00  0.00    +0.000 C 
ATOM      3  C   UNL     1       0.428  13.890  18.846  0.00  0.00    +0.000 C 
ATOM      4  N   UNL     1      -0.258  13.784  20.141  0.00  0.00    +0.000 NA
ATOM      5  C   UNL     1      -1.249  12.964  20.256  0.00  0.00    +0.000 C 
ATOM      6  C   UNL     1      -1.718  12.051  19.159  0.00  0.00    +0.000 A 
ATOM      7  C   UNL     1      -3.112  11.860  19.026  0.00  0.00    +0.000 A 
ATOM      8  C   UNL     1      -3.636  10.978  18.086  0.00  0.00    +0.000 A 
ATOM      9  C   UNL     1      -2.783  10.343  17.202  0.00  0.00    +0.000 A 
ATOM     10  C   UNL     1      -1.405  10.551  17.296  0.00  0.00    +0.000 A 
ATOM     11  C   UNL     1      -0.836  11.366  18.296  0.00  0.00    +0.000 A 
ATOM     12  N   UNL     1       0.595  11.458  18.368  0.00  0.00    +0.000 N 
ENDROOT
BRANCH   5  13
ATOM     13  C   UNL     1      -2.005  13.003  21.559  0.00  0.00    +0.000 A 
ATOM     14  C   UNL     1      -2.802  14.122  21.845  0.00  0.00    +0.000 A 
ATOM     15  C   UNL     1      -3.594  14.151  22.994  0.00  0.00    +0.000 A 
ATOM     16  C   UNL     1      -3.603  13.060  23.860  0.00  0.00    +0.000 A 
ATOM     17  C   UNL     1      -2.796  11.952  23.596  0.00  0.00    +0.000 A 
ATOM     18  C   UNL     1      -1.981  11.933  22.463  0.00  0.00    +0.000 A 
ENDBRANCH   5  13
BRANCH   3  19
ATOM     19  C   UNL     1       1.317  15.152  18.839  0.00  0.00    +0.000 C 
BRANCH  19  20
ATOM     20  C   UNL     1       0.502  16.412  19.064  0.00  0.00    +0.000 A 
ATOM     21  C   UNL     1       0.753  17.196  20.198  0.00  0.00    +0.000 A 
ATOM     22  C   UNL     1      -0.058  18.289  20.498  0.00  0.00    +0.000 A 
ATOM     23  C   UNL     1      -1.122  18.610  19.658  0.00  0.00    +0.000 A 
ATOM     24  C   UNL     1      -1.358  17.853  18.511  0.00  0.00    +0.000 A 
ATOM     25  C   UNL     1      -0.546  16.756  18.212  0.00  0.00    +0.000 A 
ENDBRANCH  19  20
ENDBRANCH   3  19
BRANCH  12  26
ATOM     26  C   UNL     1       1.406  10.251  18.125  0.00  0.00    +0.000 C 
BRANCH  26  27
ATOM     27  C   UNL     1       1.283   9.195  19.212  0.00  0.00    +0.000 A 
ATOM     28  C   UNL     1       0.555   9.498  20.381  0.00  0.00    +0.000 A 
ATOM     29  C   UNL     1       0.466   8.587  21.426  0.00  0.00    +0.000 A 
ATOM     30  C   UNL     1       1.144   7.380  21.338  0.00  0.00    +0.000 A 
ATOM     31  C   UNL     1       1.914   7.084  20.204  0.00  0.00    +0.000 A 
ATOM     32  C   UNL     1       2.677   5.910  20.160  0.00  0.00    +0.000 A 
ATOM     33  C   UNL     1       3.440   5.622  19.038  0.00  0.00    +0.000 A 
ATOM     34  C   UNL     1       3.385   6.509  17.982  0.00  0.00    +0.000 A 
ATOM     35  N   UNL     1       2.679   7.662  17.997  0.00  0.00    +0.000 NA
ATOM     36  C   UNL     1       1.964   7.973  19.102  0.00  0.00    +0.000 A 
ENDBRANCH  26  27
ENDBRANCH  12  26
TORSDOF 5
ENDMDL
MODEL 8
REMARK VINA RESULT:      -7.9      1.490      7.262
REMARK  Name = 
REMARK  5 active torsions:
REMARK  status: ('A' for Active; 'I' for Inactive)
REMARK    1  A    between atoms: C_3  and  C_4
REMARK    2  A    between atoms: C_4  and  C_5
REMARK    3  A    between atoms: C_12  and  C_13
REMARK    4  A    between atoms: N_25  and  C_26
REMARK    5  A    between atoms: C_26  and  C_27
REMARK                            x       y       z     vdW  Elec       q    Type
REMARK                         _______ _______ _______ _____ _____    ______ ____
ROOT
ATOM      1  O   UNL     1       2.063  12.918  18.400  0.00  0.00    +0.000 OA
ATOM      2  C   UNL     1       1.142  12.566  19.143  0.00  0.00    +0.000 C 
ATOM      3  C   UNL     1       0.541  11.167  19.057  0.00  0.00    +0.000 C 
ATOM      4  N   UNL     1      -0.803  11.291  18.475  0.00  0.00    +0.000 NA
ATOM      5  C   UNL     1      -1.756  11.771  19.203  0.00  0.00    +0.000 C 
ATOM      6  C   UNL     1      -1.571  12.276  20.606  0.00  0.00    +0.000 A 
ATOM      7  C   UNL     1      -2.599  11.997  21.535  0.00  0.00    +0.000 A 
ATOM      8  C   UNL     1      -2.550  12.485  22.838  0.00  0.00    +0.000 A 
ATOM      9  C   UNL     1      -1.430  13.179  23.261  0.00  0.00    +0.000 A 
ATOM     10  C   UNL     1      -0.389  13.429  22.365  0.00  0.00    +0.000 A 
ATOM     11  C   UNL     1      -0.449  13.028  21.014  0.00  0.00    +0.000 A 
ATOM     12  N   UNL     1       0.631  13.399  20.144  0.00  0.00    +0.000 N 
ENDROOT
BRANCH   5  13
ATOM     13  C   UNL     1      -3.139  11.741  18.604  0.00  0.00    +0.000 A 
ATOM     14  C   UNL     1      -4.204  12.286  19.336  0.00  0.00    +0.000 A 
ATOM     15  C   UNL     1      -5.480  12.366  18.775  0.00  0.00    +0.000 A 
ATOM     16  C   UNL     1      -5.698  11.911  17.476  0.00  0.00    +0.000 A 
ATOM     17  C   UNL     1      -4.650  11.346  16.750  0.00  0.00    +0.000 A 
ATOM     18  C   UNL     1      -3.379  11.238  17.320  0.00  0.00    +0.000 A 
ENDBRANCH   5  13
BRANCH   3  19
ATOM     19  C   UNL     1       1.408  10.263  18.155  0.00  0.00    +0.000 C 
BRANCH  19  20
ATOM     20  C   UNL     1       1.740   8.947  18.834  0.00  0.00    +0.000 A 
ATOM     21  C   UNL     1       2.339   7.925  18.087  0.00  0.00    +0.000 A 
ATOM     22  C   UNL     1       2.544   6.665  18.647  0.00  0.00    +0.000 A 
ATOM     23  C   UNL     1       2.157   6.424  19.963  0.00  0.00    +0.000 A 
ATOM     24  C   UNL     1       1.588   7.446  20.722  0.00  0.00    +0.000 A 
ATOM     25  C   UNL     1       1.382   8.708  20.159  0.00  0.00    +0.000 A 
ENDBRANCH  19  20
ENDBRANCH   3  19
BRANCH  12  26
ATOM     26  C   UNL     1       1.246  14.731  20.289  0.00  0.00    +0.000 C 
BRANCH  26  27
ATOM     27  C   UNL     1       0.455  15.851  19.631  0.00  0.00    +0.000 A 
ATOM     28  C   UNL     1      -0.880  16.070  20.028  0.00  0.00    +0.000 A 
ATOM     29  C   UNL     1      -1.660  17.041  19.413  0.00  0.00    +0.000 A 
ATOM     30  C   UNL     1      -1.133  17.774  18.360  0.00  0.00    +0.000 A 
ATOM     31  C   UNL     1       0.177  17.534  17.919  0.00  0.00    +0.000 A 
ATOM     32  C   UNL     1       0.673  18.204  16.793  0.00  0.00    +0.000 A 
ATOM     33  C   UNL     1       1.968  17.961  16.358  0.00  0.00    +0.000 A 
ATOM     34  C   UNL     1       2.733  17.077  17.091  0.00  0.00    +0.000 A 
ATOM     35  N   UNL     1       2.282  16.394  18.168  0.00  0.00    +0.000 NA
ATOM     36  C   UNL     1       1.008  16.592  18.576  0.00  0.00    +0.000 A 
ENDBRANCH  26  27
ENDBRANCH  12  26
TORSDOF 5
ENDMDL
MODEL 9
REMARK VINA RESULT:      -7.8      2.575      6.783
REMARK  Name = 
REMARK  5 active torsions:
REMARK  status: ('A' for Active; 'I' for Inactive)
REMARK    1  A    between atoms: C_3  and  C_4
REMARK    2  A    between atoms: C_4  and  C_5
REMARK    3  A    between atoms: C_12  and  C_13
REMARK    4  A    between atoms: N_25  and  C_26
REMARK    5  A    between atoms: C_26  and  C_27
REMARK                            x       y       z     vdW  Elec       q    Type
REMARK                         _______ _______ _______ _____ _____    ______ ____
ROOT
ATOM      1  O   UNL     1      -0.233  13.962  18.366  0.00  0.00    +0.000 OA
ATOM      2  C   UNL     1       0.056  13.143  19.243  0.00  0.00    +0.000 C 
ATOM      3  C   UNL     1       1.506  12.770  19.539  0.00  0.00    +0.000 C 
ATOM      4  N   UNL     1       1.724  11.400  19.055  0.00  0.00    +0.000 NA
ATOM      5  C   UNL     1       1.224  10.415  19.724  0.00  0.00    +0.000 C 
ATOM      6  C   UNL     1       0.369  10.578  20.949  0.00  0.00    +0.000 A 
ATOM      7  C   UNL     1       0.557   9.650  21.998  0.00  0.00    +0.000 A 
ATOM      8  C   UNL     1      -0.238   9.677  23.141  0.00  0.00    +0.000 A 
ATOM      9  C   UNL     1      -1.169  10.688  23.295  0.00  0.00    +0.000 A 
ATOM     10  C   UNL     1      -1.340  11.636  22.284  0.00  0.00    +0.000 A 
ATOM     11  C   UNL     1      -0.615  11.581  21.075  0.00  0.00    +0.000 A 
ATOM     12  N   UNL     1      -0.914  12.549  20.057  0.00  0.00    +0.000 N 
ENDROOT
BRANCH   5  13
ATOM     13  C   UNL     1       1.600   9.031  19.264  0.00  0.00    +0.000 A 
ATOM     14  C   UNL     1       1.810   8.807  17.895  0.00  0.00    +0.000 A 
ATOM     15  C   UNL     1       2.256   7.564  17.441  0.00  0.00    +0.000 A 
ATOM     16  C   UNL     1       2.505   6.540  18.352  0.00  0.00    +0.000 A 
ATOM     17  C   UNL     1       2.277   6.746  19.713  0.00  0.00    +0.000 A 
ATOM     18  C   UNL     1       1.803   7.979  20.166  0.00  0.00    +0.000 A 
ENDBRANCH   5  13
BRANCH   3  19
ATOM     19  C   UNL     1       2.468  13.731  18.807  0.00  0.00    +0.000 C 
BRANCH  19  20
ATOM     20  C   UNL     1       3.498  14.320  19.753  0.00  0.00    +0.000 A 
ATOM     21  C   UNL     1       4.575  15.043  19.227  0.00  0.00    +0.000 A 
ATOM     22  C   UNL     1       5.601  15.490  20.057  0.00  0.00    +0.000 A 
ATOM     23  C   UNL     1       5.550  15.223  21.423  0.00  0.00    +0.000 A 
ATOM     24  C   UNL     1       4.465  14.531  21.958  0.00  0.00    +0.000 A 
ATOM     25  C   UNL     1       3.438  14.081  21.125  0.00  0.00    +0.000 A 
ENDBRANCH  19  20
ENDBRANCH   3  19
BRANCH  12  26
ATOM     26  C   UNL     1      -2.316  12.948  19.833  0.00  0.00    +0.000 C 
BRANCH  26  27
ATOM     27  C   UNL     1      -3.131  11.928  19.054  0.00  0.00    +0.000 A 
ATOM     28  C   UNL     1      -2.458  10.989  18.245  0.00  0.00    +0.000 A 
ATOM     29  C   UNL     1      -3.163  10.077  17.469  0.00  0.00    +0.000 A 
ATOM     30  C   UNL     1      -4.549  10.124  17.452  0.00  0.00    +0.000 A 
ATOM     31  C   UNL     1      -5.233  11.085  18.211  0.00  0.00    +0.000 A 
ATOM     32  C   UNL     1      -6.626  11.196  18.116  0.00  0.00    +0.000 A 
ATOM     33  C   UNL     1      -7.298  12.150  18.865  0.00  0.00    +0.000 A 
ATOM     34  C   UNL     1      -6.549  12.941  19.713  0.00  0.00    +0.000 A 
ATOM     35  N   UNL     1      -5.202  12.879  19.814  0.00  0.00    +0.000 NA
ATOM     36  C   UNL     1      -4.533  11.981  19.058  0.00  0.00    +0.000 A 
ENDBRANCH  26  27
ENDBRANCH  12  26
TORSDOF 5
ENDMDL
