MODEL 1
REMARK VINA RESULT:      -8.7      0.000      0.000
REMARK  Name = 
REMARK  9 active torsions:
REMARK  status: ('A' for Active; 'I' for Inactive)
REMARK    1  A    between atoms: C_1  and  O_2
REMARK    2  A    between atoms: O_2  and  C_3
REMARK    3  A    between atoms: C_6  and  S_7
REMARK    4  A    between atoms: S_7  and  N_10
REMARK    5  A    between atoms: C_15  and  O_16
REMARK    6  A    between atoms: O_16  and  C_17
REMARK    7  A    between atoms: C_17  and  C_18
REMARK    8  A    between atoms: C_27  and  C_28
REMARK    9  A    between atoms: N_30  and  O_31
REMARK                            x       y       z     vdW  Elec       q    Type
REMARK                         _______ _______ _______ _____ _____    ______ ____
ROOT
ATOM      1  N   UNL     1       3.473   5.829  18.493  0.00  0.00    +0.000 NA
ATOM      2  C   UNL     1       3.795   7.209  18.062  0.00  0.00    +0.000 C 
ATOM      3  C   UNL     1       2.496   7.901  17.616  0.00  0.00    +0.000 C 
ATOM      4  C   UNL     1       1.695   8.132  18.872  0.00  0.00    +0.000 A 
ATOM      5  C   UNL     1       1.047   9.354  19.057  0.00  0.00    +0.000 A 
ATOM      6  C   UNL     1       0.871   9.874  20.334  0.00  0.00    +0.000 A 
ATOM      7  C   UNL     1       1.299   9.097  21.415  0.00  0.00    +0.000 A 
ATOM      8  C   UNL     1       1.762   7.747  21.218  0.00  0.00    +0.000 A 
ATOM      9  C   UNL     1       1.894   7.213  19.924  0.00  0.00    +0.000 A 
ATOM     10  C   UNL     1       2.298   5.722  19.505  0.00  0.00    +0.000 C 
ENDROOT
BRANCH  10  11
ATOM     11  C   UNL     1       1.665   4.476  18.706  0.00  0.00    +0.000 C 
ATOM     12  O   UNL     1       1.464   4.460  17.479  0.00  0.00    +0.000 OA
ATOM     13  N   UNL     1       1.335   3.355  19.453  0.00  0.00    +0.000 N 
ATOM     14  H   UNL     1       2.056   3.035  20.104  0.00  0.00    +0.000 HD
BRANCH  13  15
ATOM     15  O   UNL     1       0.812   2.302  18.638  0.00  0.00    +0.000 OA
ATOM     16  H   UNL     1       1.267   1.503  18.991  0.00  0.00    +0.000 HD
ENDBRANCH  13  15
ENDBRANCH  10  11
BRANCH   1  17
ATOM     17  S   UNL     1       4.784   4.778  18.770  0.00  0.00    +0.000 S 
ATOM     18  O   UNL     1       4.248   3.495  19.174  0.00  0.00    +0.000 OA
ATOM     19  O   UNL     1       5.722   5.474  19.627  0.00  0.00    +0.000 OA
BRANCH  17  23
ATOM     20  C   UNL     1       6.689   4.457  14.560  0.00  0.00    +0.000 A 
ATOM     21  C   UNL     1       5.372   4.063  14.789  0.00  0.00    +0.000 A 
ATOM     22  C   UNL     1       4.806   4.115  16.076  0.00  0.00    +0.000 A 
ATOM     23  C   UNL     1       5.573   4.554  17.155  0.00  0.00    +0.000 A 
ATOM     24  C   UNL     1       6.898   4.948  16.941  0.00  0.00    +0.000 A 
ATOM     25  C   UNL     1       7.460   4.895  15.641  0.00  0.00    +0.000 A 
BRANCH  20  27
ATOM     26  C   UNL     1       6.329   3.507  12.396  0.00  0.00    +0.000 C 
ATOM     27  O   UNL     1       7.099   4.340  13.262  0.00  0.00    +0.000 OA
ENDBRANCH  20  27
ENDBRANCH  17  23
ENDBRANCH   1  17
BRANCH   6  28
ATOM     28  O   UNL     1       0.482  11.179  20.284  0.00  0.00    +0.000 OA
BRANCH  28  29
ATOM     29  C   UNL     1       0.104  11.880  19.099  0.00  0.00    +0.000 C 
BRANCH  29  30
ATOM     30  C   UNL     1      -1.432  11.839  18.948  0.00  0.00    +0.000 A 
ATOM     31  C   UNL     1      -2.296  12.474  19.873  0.00  0.00    +0.000 A 
ATOM     32  C   UNL     1      -3.675  12.438  19.723  0.00  0.00    +0.000 A 
ATOM     33  C   UNL     1      -4.260  11.763  18.659  0.00  0.00    +0.000 A 
ATOM     34  C   UNL     1      -3.433  11.132  17.729  0.00  0.00    +0.000 A 
ATOM     35  C   UNL     1      -2.031  11.172  17.868  0.00  0.00    +0.000 A 
ENDBRANCH  29  30
ENDBRANCH  28  29
ENDBRANCH   6  28
TORSDOF 8
ENDMDL
MODEL 2
REMARK VINA RESULT:      -8.6      1.195      1.671
REMARK  Name = 
REMARK  9 active torsions:
REMARK  status: ('A' for Active; 'I' for Inactive)
REMARK    1  A    between atoms: C_1  and  O_2
REMARK    2  A    between atoms: O_2  and  C_3
REMARK    3  A    between atoms: C_6  and  S_7
REMARK    4  A    between atoms: S_7  and  N_10
REMARK    5  A    between atoms: C_15  and  O_16
REMARK    6  A    between atoms: O_16  and  C_17
REMARK    7  A    between atoms: C_17  and  C_18
REMARK    8  A    between atoms: C_27  and  C_28
REMARK    9  A    between atoms: N_30  and  O_31
REMARK                            x       y       z     vdW  Elec       q    Type
REMARK                         _______ _______ _______ _____ _____    ______ ____
ROOT
ATOM      1  N   UNL     1       3.475   5.922  18.487  0.00  0.00    +0.000 NA
ATOM      2  C   UNL     1       3.786   7.298  18.038  0.00  0.00    +0.000 C 
ATOM      3  C   UNL     1       2.482   7.971  17.575  0.00  0.00    +0.000 C 
ATOM      4  C   UNL     1       1.672   8.211  18.822  0.00  0.00    +0.000 A 
ATOM      5  C   UNL     1       1.010   9.429  18.986  0.00  0.00    +0.000 A 
ATOM      6  C   UNL     1       0.821   9.966  20.254  0.00  0.00    +0.000 A 
ATOM      7  C   UNL     1       1.251   9.209  21.349  0.00  0.00    +0.000 A 
ATOM      8  C   UNL     1       1.730   7.861  21.174  0.00  0.00    +0.000 A 
ATOM      9  C   UNL     1       1.874   7.310  19.889  0.00  0.00    +0.000 A 
ATOM     10  C   UNL     1       2.296   5.817  19.494  0.00  0.00    +0.000 C 
ENDROOT
BRANCH  10  11
ATOM     11  C   UNL     1       1.679   4.553  18.710  0.00  0.00    +0.000 C 
ATOM     12  O   UNL     1       1.506   4.509  17.479  0.00  0.00    +0.000 OA
ATOM     13  N   UNL     1       1.334   3.449  19.475  0.00  0.00    +0.000 N 
ATOM     14  H   UNL     1       2.040   3.144  20.148  0.00  0.00    +0.000 HD
BRANCH  13  15
ATOM     15  O   UNL     1       0.828   2.378  18.673  0.00  0.00    +0.000 OA
ATOM     16  H   UNL     1       0.932   2.720  17.755  0.00  0.00    +0.000 HD
ENDBRANCH  13  15
ENDBRANCH  10  11
BRANCH   1  17
ATOM     17  S   UNL     1       4.795   4.888  18.786  0.00  0.00    +0.000 S 
ATOM     18  O   UNL     1       4.271   3.620  19.249  0.00  0.00    +0.000 OA
ATOM     19  O   UNL     1       5.742   5.622  19.602  0.00  0.00    +0.000 OA
BRANCH  17  23
ATOM     20  C   UNL     1       6.660   4.418  14.572  0.00  0.00    +0.000 A 
ATOM     21  C   UNL     1       5.321   4.109  14.809  0.00  0.00    +0.000 A 
ATOM     22  C   UNL     1       4.764   4.206  16.097  0.00  0.00    +0.000 A 
ATOM     23  C   UNL     1       5.562   4.603  17.170  0.00  0.00    +0.000 A 
ATOM     24  C   UNL     1       6.909   4.911  16.948  0.00  0.00    +0.000 A 
ATOM     25  C   UNL     1       7.461   4.813  15.647  0.00  0.00    +0.000 A 
BRANCH  20  27
ATOM     26  C   UNL     1       6.213   3.506  12.408  0.00  0.00    +0.000 C 
ATOM     27  O   UNL     1       7.055   4.266  13.274  0.00  0.00    +0.000 OA
ENDBRANCH  20  27
ENDBRANCH  17  23
ENDBRANCH   1  17
BRANCH   6  28
ATOM     28  O   UNL     1       0.419  11.265  20.183  0.00  0.00    +0.000 OA
BRANCH  28  29
ATOM     29  C   UNL     1       0.337  12.163  21.291  0.00  0.00    +0.000 C 
BRANCH  29  30
ATOM     30  C   UNL     1      -1.142  12.339  21.698  0.00  0.00    +0.000 A 
ATOM     31  C   UNL     1      -2.119  12.821  20.793  0.00  0.00    +0.000 A 
ATOM     32  C   UNL     1      -3.448  12.966  21.167  0.00  0.00    +0.000 A 
ATOM     33  C   UNL     1      -3.865  12.653  22.455  0.00  0.00    +0.000 A 
ATOM     34  C   UNL     1      -2.925  12.171  23.365  0.00  0.00    +0.000 A 
ATOM     35  C   UNL     1      -1.575  12.011  22.991  0.00  0.00    +0.000 A 
ENDBRANCH  29  30
ENDBRANCH  28  29
ENDBRANCH   6  28
TORSDOF 8
ENDMDL
MODEL 3
REMARK VINA RESULT:      -8.6      1.399      2.410
REMARK  Name = 
REMARK  9 active torsions:
REMARK  status: ('A' for Active; 'I' for Inactive)
REMARK    1  A    between atoms: C_1  and  O_2
REMARK    2  A    between atoms: O_2  and  C_3
REMARK    3  A    between atoms: C_6  and  S_7
REMARK    4  A    between atoms: S_7  and  N_10
REMARK    5  A    between atoms: C_15  and  O_16
REMARK    6  A    between atoms: O_16  and  C_17
REMARK    7  A    between atoms: C_17  and  C_18
REMARK    8  A    between atoms: C_27  and  C_28
REMARK    9  A    between atoms: N_30  and  O_31
REMARK                            x       y       z     vdW  Elec       q    Type
REMARK                         _______ _______ _______ _____ _____    ______ ____
ROOT
ATOM      1  N   UNL     1       3.450   5.859  18.485  0.00  0.00    +0.000 NA
ATOM      2  C   UNL     1       3.771   7.236  18.044  0.00  0.00    +0.000 C 
ATOM      3  C   UNL     1       2.472   7.925  17.595  0.00  0.00    +0.000 C 
ATOM      4  C   UNL     1       1.672   8.164  18.850  0.00  0.00    +0.000 A 
ATOM      5  C   UNL     1       1.025   9.388  19.028  0.00  0.00    +0.000 A 
ATOM      6  C   UNL     1       0.850   9.916  20.302  0.00  0.00    +0.000 A 
ATOM      7  C   UNL     1       1.280   9.146  21.388  0.00  0.00    +0.000 A 
ATOM      8  C   UNL     1       1.743   7.795  21.199  0.00  0.00    +0.000 A 
ATOM      9  C   UNL     1       1.873   7.253  19.909  0.00  0.00    +0.000 A 
ATOM     10  C   UNL     1       2.276   5.759  19.498  0.00  0.00    +0.000 C 
ENDROOT
BRANCH  10  11
ATOM     11  C   UNL     1       1.641   4.507  18.709  0.00  0.00    +0.000 C 
ATOM     12  O   UNL     1       1.451   4.478  17.481  0.00  0.00    +0.000 OA
ATOM     13  N   UNL     1       1.300   3.397  19.466  0.00  0.00    +0.000 N 
ATOM     14  H   UNL     1       2.013   3.080  20.126  0.00  0.00    +0.000 HD
BRANCH  13  15
ATOM     15  O   UNL     1       0.776   2.338  18.660  0.00  0.00    +0.000 OA
ATOM     16  H   UNL     1       0.099   1.928  19.245  0.00  0.00    +0.000 HD
ENDBRANCH  13  15
ENDBRANCH  10  11
BRANCH   1  17
ATOM     17  S   UNL     1       4.761   4.810  18.766  0.00  0.00    +0.000 S 
ATOM     18  O   UNL     1       4.225   3.528  19.177  0.00  0.00    +0.000 OA
ATOM     19  O   UNL     1       5.699   5.510  19.621  0.00  0.00    +0.000 OA
BRANCH  17  23
ATOM     20  C   UNL     1       6.666   4.468  14.558  0.00  0.00    +0.000 A 
ATOM     21  C   UNL     1       5.349   4.075  14.789  0.00  0.00    +0.000 A 
ATOM     22  C   UNL     1       4.783   4.133  16.076  0.00  0.00    +0.000 A 
ATOM     23  C   UNL     1       5.550   4.577  17.152  0.00  0.00    +0.000 A 
ATOM     24  C   UNL     1       6.875   4.971  16.936  0.00  0.00    +0.000 A 
ATOM     25  C   UNL     1       7.437   4.911  15.637  0.00  0.00    +0.000 A 
BRANCH  20  27
ATOM     26  C   UNL     1       6.302   3.513  12.397  0.00  0.00    +0.000 C 
ATOM     27  O   UNL     1       7.075   4.345  13.261  0.00  0.00    +0.000 OA
ENDBRANCH  20  27
ENDBRANCH  17  23
ENDBRANCH   1  17
BRANCH   6  28
ATOM     28  O   UNL     1       0.461  11.221  20.244  0.00  0.00    +0.000 OA
BRANCH  28  29
ATOM     29  C   UNL     1       0.048  11.905  19.060  0.00  0.00    +0.000 C 
BRANCH  29  30
ATOM     30  C   UNL     1       0.976  13.115  18.819  0.00  0.00    +0.000 A 
ATOM     31  C   UNL     1       0.534  14.449  18.994  0.00  0.00    +0.000 A 
ATOM     32  C   UNL     1       1.379  15.529  18.784  0.00  0.00    +0.000 A 
ATOM     33  C   UNL     1       2.694  15.338  18.379  0.00  0.00    +0.000 A 
ATOM     34  C   UNL     1       3.159  14.035  18.203  0.00  0.00    +0.000 A 
ATOM     35  C   UNL     1       2.310  12.931  18.425  0.00  0.00    +0.000 A 
ENDBRANCH  29  30
ENDBRANCH  28  29
ENDBRANCH   6  28
TORSDOF 8
ENDMDL
MODEL 4
REMARK VINA RESULT:      -8.3      4.167      9.030
REMARK  Name = 
REMARK  9 active torsions:
REMARK  status: ('A' for Active; 'I' for Inactive)
REMARK    1  A    between atoms: C_1  and  O_2
REMARK    2  A    between atoms: O_2  and  C_3
REMARK    3  A    between atoms: C_6  and  S_7
REMARK    4  A    between atoms: S_7  and  N_10
REMARK    5  A    between atoms: C_15  and  O_16
REMARK    6  A    between atoms: O_16  and  C_17
REMARK    7  A    between atoms: C_17  and  C_18
REMARK    8  A    between atoms: C_27  and  C_28
REMARK    9  A    between atoms: N_30  and  O_31
REMARK                            x       y       z     vdW  Elec       q    Type
REMARK                         _______ _______ _______ _____ _____    ______ ____
ROOT
ATOM      1  N   UNL     1       0.049  12.395  19.891  0.00  0.00    +0.000 NA
ATOM      2  C   UNL     1       0.974  11.843  20.908  0.00  0.00    +0.000 C 
ATOM      3  C   UNL     1       0.495  10.433  21.294  0.00  0.00    +0.000 C 
ATOM      4  C   UNL     1       0.768   9.558  20.098  0.00  0.00    +0.000 A 
ATOM      5  C   UNL     1       1.312   8.287  20.287  0.00  0.00    +0.000 A 
ATOM      6  C   UNL     1       2.149   7.726  19.330  0.00  0.00    +0.000 A 
ATOM      7  C   UNL     1       2.361   8.450  18.151  0.00  0.00    +0.000 A 
ATOM      8  C   UNL     1       1.619   9.654  17.879  0.00  0.00    +0.000 A 
ATOM      9  C   UNL     1       0.740  10.189  18.836  0.00  0.00    +0.000 A 
ATOM     10  C   UNL     1      -0.234  11.451  18.690  0.00  0.00    +0.000 C 
ENDROOT
BRANCH  10  11
ATOM     11  C   UNL     1      -1.810  11.777  18.747  0.00  0.00    +0.000 C 
ATOM     12  O   UNL     1      -2.467  11.877  19.798  0.00  0.00    +0.000 OA
ATOM     13  N   UNL     1      -2.455  11.962  17.533  0.00  0.00    +0.000 N 
ATOM     14  H   UNL     1      -1.984  12.587  16.876  0.00  0.00    +0.000 HD
BRANCH  13  15
ATOM     15  O   UNL     1      -3.841  12.276  17.705  0.00  0.00    +0.000 OA
ATOM     16  H   UNL     1      -4.069  11.815  18.545  0.00  0.00    +0.000 HD
ENDBRANCH  13  15
ENDBRANCH  10  11
BRANCH   1  17
ATOM     17  S   UNL     1       0.212  14.046  19.511  0.00  0.00    +0.000 S 
ATOM     18  O   UNL     1      -0.298  14.813  20.629  0.00  0.00    +0.000 OA
ATOM     19  O   UNL     1      -0.340  14.242  18.186  0.00  0.00    +0.000 OA
BRANCH  17  23
ATOM     20  C   UNL     1       4.718  15.042  19.100  0.00  0.00    +0.000 A 
ATOM     21  C   UNL     1       4.051  14.295  18.131  0.00  0.00    +0.000 A 
ATOM     22  C   UNL     1       2.695  13.950  18.276  0.00  0.00    +0.000 A 
ATOM     23  C   UNL     1       1.996  14.346  19.416  0.00  0.00    +0.000 A 
ATOM     24  C   UNL     1       2.654  15.093  20.400  0.00  0.00    +0.000 A 
ATOM     25  C   UNL     1       4.019  15.438  20.245  0.00  0.00    +0.000 A 
BRANCH  20  27
ATOM     26  C   UNL     1       6.655  14.499  17.809  0.00  0.00    +0.000 C 
ATOM     27  O   UNL     1       6.032  15.287  18.823  0.00  0.00    +0.000 OA
ENDBRANCH  20  27
ENDBRANCH  17  23
ENDBRANCH   1  17
BRANCH   6  28
ATOM     28  O   UNL     1       2.790   6.628  19.819  0.00  0.00    +0.000 OA
BRANCH  28  29
ATOM     29  C   UNL     1       2.155   5.528  20.473  0.00  0.00    +0.000 C 
BRANCH  29  30
ATOM     30  C   UNL     1       2.194   4.292  19.549  0.00  0.00    +0.000 A 
ATOM     31  C   UNL     1       1.139   3.348  19.511  0.00  0.00    +0.000 A 
ATOM     32  C   UNL     1       1.180   2.245  18.670  0.00  0.00    +0.000 A 
ATOM     33  C   UNL     1       2.271   2.021  17.839  0.00  0.00    +0.000 A 
ATOM     34  C   UNL     1       3.322   2.938  17.851  0.00  0.00    +0.000 A 
ATOM     35  C   UNL     1       3.285   4.067  18.695  0.00  0.00    +0.000 A 
ENDBRANCH  29  30
ENDBRANCH  28  29
ENDBRANCH   6  28
TORSDOF 8
ENDMDL
MODEL 5
REMARK VINA RESULT:      -8.2      4.135      9.208
REMARK  Name = 
REMARK  9 active torsions:
REMARK  status: ('A' for Active; 'I' for Inactive)
REMARK    1  A    between atoms: C_1  and  O_2
REMARK    2  A    between atoms: O_2  and  C_3
REMARK    3  A    between atoms: C_6  and  S_7
REMARK    4  A    between atoms: S_7  and  N_10
REMARK    5  A    between atoms: C_15  and  O_16
REMARK    6  A    between atoms: O_16  and  C_17
REMARK    7  A    between atoms: C_17  and  C_18
REMARK    8  A    between atoms: C_27  and  C_28
REMARK    9  A    between atoms: N_30  and  O_31
REMARK                            x       y       z     vdW  Elec       q    Type
REMARK                         _______ _______ _______ _____ _____    ______ ____
ROOT
ATOM      1  N   UNL     1       0.109  12.257  19.907  0.00  0.00    +0.000 NA
ATOM      2  C   UNL     1       1.037  11.662  20.896  0.00  0.00    +0.000 C 
ATOM      3  C   UNL     1       0.574  10.228  21.205  0.00  0.00    +0.000 C 
ATOM      4  C   UNL     1       0.861   9.422  19.964  0.00  0.00    +0.000 A 
ATOM      5  C   UNL     1       1.420   8.149  20.088  0.00  0.00    +0.000 A 
ATOM      6  C   UNL     1       2.266   7.650  19.104  0.00  0.00    +0.000 A 
ATOM      7  C   UNL     1       2.473   8.438  17.967  0.00  0.00    +0.000 A 
ATOM      8  C   UNL     1       1.717   9.646  17.757  0.00  0.00    +0.000 A 
ATOM      9  C   UNL     1       0.829  10.119  18.738  0.00  0.00    +0.000 A 
ATOM     10  C   UNL     1      -0.160  11.375  18.656  0.00  0.00    +0.000 C 
ENDROOT
BRANCH  10  11
ATOM     11  C   UNL     1      -1.739  11.679  18.725  0.00  0.00    +0.000 C 
ATOM     12  O   UNL     1      -2.405  11.690  19.775  0.00  0.00    +0.000 OA
ATOM     13  N   UNL     1      -2.378  11.951  17.524  0.00  0.00    +0.000 N 
ATOM     14  H   UNL     1      -1.908  12.631  16.922  0.00  0.00    +0.000 HD
BRANCH  13  15
ATOM     15  O   UNL     1      -3.767  12.236  17.708  0.00  0.00    +0.000 OA
ATOM     16  H   UNL     1      -3.914  13.012  17.119  0.00  0.00    +0.000 HD
ENDBRANCH  13  15
ENDBRANCH  10  11
BRANCH   1  17
ATOM     17  S   UNL     1       0.254  13.928  19.616  0.00  0.00    +0.000 S 
ATOM     18  O   UNL     1      -0.263  14.628  20.774  0.00  0.00    +0.000 OA
ATOM     19  O   UNL     1      -0.304  14.188  18.304  0.00  0.00    +0.000 OA
BRANCH  17  23
ATOM     20  C   UNL     1       4.748  14.986  19.242  0.00  0.00    +0.000 A 
ATOM     21  C   UNL     1       4.098  14.235  18.264  0.00  0.00    +0.000 A 
ATOM     22  C   UNL     1       2.746  13.872  18.398  0.00  0.00    +0.000 A 
ATOM     23  C   UNL     1       2.034  14.252  19.535  0.00  0.00    +0.000 A 
ATOM     24  C   UNL     1       2.674  15.003  20.528  0.00  0.00    +0.000 A 
ATOM     25  C   UNL     1       4.036  15.366  20.384  0.00  0.00    +0.000 A 
BRANCH  20  27
ATOM     26  C   UNL     1       6.608  14.735  17.762  0.00  0.00    +0.000 C 
ATOM     27  O   UNL     1       6.061  15.250  18.975  0.00  0.00    +0.000 OA
ENDBRANCH  20  27
ENDBRANCH  17  23
ENDBRANCH   1  17
BRANCH   6  28
ATOM     28  O   UNL     1       2.918   6.535  19.537  0.00  0.00    +0.000 OA
BRANCH  28  29
ATOM     29  C   UNL     1       3.480   5.530  18.691  0.00  0.00    +0.000 C 
BRANCH  29  30
ATOM     30  C   UNL     1       4.975   5.834  18.459  0.00  0.00    +0.000 A 
ATOM     31  C   UNL     1       5.422   6.626  17.372  0.00  0.00    +0.000 A 
ATOM     32  C   UNL     1       6.768   6.900  17.178  0.00  0.00    +0.000 A 
ATOM     33  C   UNL     1       7.733   6.395  18.042  0.00  0.00    +0.000 A 
ATOM     34  C   UNL     1       7.321   5.617  19.124  0.00  0.00    +0.000 A 
ATOM     35  C   UNL     1       5.954   5.341  19.335  0.00  0.00    +0.000 A 
ENDBRANCH  29  30
ENDBRANCH  28  29
ENDBRANCH   6  28
TORSDOF 8
ENDMDL
MODEL 6
REMARK VINA RESULT:      -8.2      4.140      8.992
REMARK  Name = 
REMARK  9 active torsions:
REMARK  status: ('A' for Active; 'I' for Inactive)
REMARK    1  A    between atoms: C_1  and  O_2
REMARK    2  A    between atoms: O_2  and  C_3
REMARK    3  A    between atoms: C_6  and  S_7
REMARK    4  A    between atoms: S_7  and  N_10
REMARK    5  A    between atoms: C_15  and  O_16
REMARK    6  A    between atoms: O_16  and  C_17
REMARK    7  A    between atoms: C_17  and  C_18
REMARK    8  A    between atoms: C_27  and  C_28
REMARK    9  A    between atoms: N_30  and  O_31
REMARK                            x       y       z     vdW  Elec       q    Type
REMARK                         _______ _______ _______ _____ _____    ______ ____
ROOT
ATOM      1  N   UNL     1      -0.061  12.422  19.854  0.00  0.00    +0.000 NA
ATOM      2  C   UNL     1       0.866  11.888  20.879  0.00  0.00    +0.000 C 
ATOM      3  C   UNL     1       0.429  10.458  21.240  0.00  0.00    +0.000 C 
ATOM      4  C   UNL     1       0.750   9.608  20.038  0.00  0.00    +0.000 A 
ATOM      5  C   UNL     1       1.333   8.354  20.221  0.00  0.00    +0.000 A 
ATOM      6  C   UNL     1       2.203   7.834  19.270  0.00  0.00    +0.000 A 
ATOM      7  C   UNL     1       2.410   8.578  18.104  0.00  0.00    +0.000 A 
ATOM      8  C   UNL     1       1.633   9.761  17.834  0.00  0.00    +0.000 A 
ATOM      9  C   UNL     1       0.720  10.254  18.783  0.00  0.00    +0.000 A 
ATOM     10  C   UNL     1      -0.293  11.485  18.637  0.00  0.00    +0.000 C 
ENDROOT
BRANCH  10  11
ATOM     11  C   UNL     1      -1.879  11.757  18.672  0.00  0.00    +0.000 C 
ATOM     12  O   UNL     1      -2.554  11.831  19.714  0.00  0.00    +0.000 OA
ATOM     13  N   UNL     1      -2.513  11.924  17.450  0.00  0.00    +0.000 N 
ATOM     14  H   UNL     1      -2.054  12.567  16.802  0.00  0.00    +0.000 HD
BRANCH  13  15
ATOM     15  O   UNL     1      -3.911  12.190  17.603  0.00  0.00    +0.000 OA
ATOM     16  H   UNL     1      -4.093  11.893  18.524  0.00  0.00    +0.000 HD
ENDBRANCH  13  15
ENDBRANCH  10  11
BRANCH   1  17
ATOM     17  S   UNL     1       0.053  14.083  19.497  0.00  0.00    +0.000 S 
ATOM     18  O   UNL     1      -0.432  14.820  20.645  0.00  0.00    +0.000 OA
ATOM     19  O   UNL     1      -0.551  14.287  18.196  0.00  0.00    +0.000 OA
BRANCH  17  23
ATOM     20  C   UNL     1       4.636  14.721  19.263  0.00  0.00    +0.000 A 
ATOM     21  C   UNL     1       3.896  15.183  20.350  0.00  0.00    +0.000 A 
ATOM     22  C   UNL     1       2.498  15.033  20.402  0.00  0.00    +0.000 A 
ATOM     23  C   UNL     1       1.826  14.424  19.343  0.00  0.00    +0.000 A 
ATOM     24  C   UNL     1       2.555  13.959  18.242  0.00  0.00    +0.000 A 
ATOM     25  C   UNL     1       3.963  14.112  18.199  0.00  0.00    +0.000 A 
BRANCH  20  27
ATOM     26  C   UNL     1       6.746  14.885  18.151  0.00  0.00    +0.000 C 
ATOM     27  O   UNL     1       5.979  14.949  19.353  0.00  0.00    +0.000 OA
ENDBRANCH  20  27
ENDBRANCH  17  23
ENDBRANCH   1  17
BRANCH   6  28
ATOM     28  O   UNL     1       2.873   6.751  19.757  0.00  0.00    +0.000 OA
BRANCH  28  29
ATOM     29  C   UNL     1       3.544   5.773  18.962  0.00  0.00    +0.000 C 
BRANCH  29  30
ATOM     30  C   UNL     1       2.692   4.487  18.906  0.00  0.00    +0.000 A 
ATOM     31  C   UNL     1       1.630   4.248  19.813  0.00  0.00    +0.000 A 
ATOM     32  C   UNL     1       0.865   3.093  19.749  0.00  0.00    +0.000 A 
ATOM     33  C   UNL     1       1.124   2.117  18.794  0.00  0.00    +0.000 A 
ATOM     34  C   UNL     1       2.160   2.328  17.885  0.00  0.00    +0.000 A 
ATOM     35  C   UNL     1       2.936   3.504  17.936  0.00  0.00    +0.000 A 
ENDBRANCH  29  30
ENDBRANCH  28  29
ENDBRANCH   6  28
TORSDOF 8
ENDMDL
MODEL 7
REMARK VINA RESULT:      -8.1      1.365      2.862
REMARK  Name = 
REMARK  9 active torsions:
REMARK  status: ('A' for Active; 'I' for Inactive)
REMARK    1  A    between atoms: C_1  and  O_2
REMARK    2  A    between atoms: O_2  and  C_3
REMARK    3  A    between atoms: C_6  and  S_7
REMARK    4  A    between atoms: S_7  and  N_10
REMARK    5  A    between atoms: C_15  and  O_16
REMARK    6  A    between atoms: O_16  and  C_17
REMARK    7  A    between atoms: C_17  and  C_18
REMARK    8  A    between atoms: C_27  and  C_28
REMARK    9  A    between atoms: N_30  and  O_31
REMARK                            x       y       z     vdW  Elec       q    Type
REMARK                         _______ _______ _______ _____ _____    ______ ____
ROOT
ATOM      1  N   UNL     1       3.171   4.576  18.765  0.00  0.00    +0.000 NA
ATOM      2  C   UNL     1       1.771   4.718  19.225  0.00  0.00    +0.000 C 
ATOM      3  C   UNL     1       1.752   5.611  20.477  0.00  0.00    +0.000 C 
ATOM      4  C   UNL     1       2.079   7.003  20.000  0.00  0.00    +0.000 A 
ATOM      5  C   UNL     1       1.355   8.087  20.498  0.00  0.00    +0.000 A 
ATOM      6  C   UNL     1       1.130   9.209  19.710  0.00  0.00    +0.000 A 
ATOM      7  C   UNL     1       1.716   9.236  18.440  0.00  0.00    +0.000 A 
ATOM      8  C   UNL     1       2.640   8.210  18.029  0.00  0.00    +0.000 A 
ATOM      9  C   UNL     1       2.896   7.101  18.853  0.00  0.00    +0.000 A 
ATOM     10  C   UNL     1       3.946   5.915  18.621  0.00  0.00    +0.000 C 
ENDROOT
BRANCH  10  11
ATOM     11  C   UNL     1       5.246   5.293  19.338  0.00  0.00    +0.000 C 
ATOM     12  O   UNL     1       5.213   4.359  20.158  0.00  0.00    +0.000 OA
ATOM     13  N   UNL     1       6.473   5.843  18.998  0.00  0.00    +0.000 N 
ATOM     14  H   UNL     1       6.638   5.961  17.996  0.00  0.00    +0.000 HD
BRANCH  13  15
ATOM     15  O   UNL     1       7.556   5.193  19.669  0.00  0.00    +0.000 OA
ATOM     16  H   UNL     1       7.365   5.368  20.619  0.00  0.00    +0.000 HD
ENDBRANCH  13  15
ENDBRANCH  10  11
BRANCH   1  17
ATOM     17  S   UNL     1       3.476   3.413  17.560  0.00  0.00    +0.000 S 
ATOM     18  O   UNL     1       2.288   3.299  16.740  0.00  0.00    +0.000 OA
ATOM     19  O   UNL     1       4.017   2.241  18.219  0.00  0.00    +0.000 OA
BRANCH  17  23
ATOM     20  C   UNL     1       6.734   5.047  14.701  0.00  0.00    +0.000 A 
ATOM     21  C   UNL     1       6.932   3.874  15.427  0.00  0.00    +0.000 A 
ATOM     22  C   UNL     1       5.964   3.401  16.332  0.00  0.00    +0.000 A 
ATOM     23  C   UNL     1       4.785   4.119  16.526  0.00  0.00    +0.000 A 
ATOM     24  C   UNL     1       4.574   5.302  15.807  0.00  0.00    +0.000 A 
ATOM     25  C   UNL     1       5.553   5.770  14.896  0.00  0.00    +0.000 A 
BRANCH  20  27
ATOM     26  C   UNL     1       7.618   5.106  12.480  0.00  0.00    +0.000 C 
ATOM     27  O   UNL     1       7.767   5.382  13.872  0.00  0.00    +0.000 OA
ENDBRANCH  20  27
ENDBRANCH  17  23
ENDBRANCH   1  17
BRANCH   6  28
ATOM     28  O   UNL     1       0.182  10.017  20.263  0.00  0.00    +0.000 OA
BRANCH  28  29
ATOM     29  C   UNL     1      -0.240  11.273  19.731  0.00  0.00    +0.000 C 
BRANCH  29  30
ATOM     30  C   UNL     1      -1.550  11.078  18.937  0.00  0.00    +0.000 A 
ATOM     31  C   UNL     1      -1.674  10.100  17.919  0.00  0.00    +0.000 A 
ATOM     32  C   UNL     1      -2.859   9.927  17.218  0.00  0.00    +0.000 A 
ATOM     33  C   UNL     1      -3.968  10.721  17.483  0.00  0.00    +0.000 A 
ATOM     34  C   UNL     1      -3.876  11.688  18.484  0.00  0.00    +0.000 A 
ATOM     35  C   UNL     1      -2.680  11.864  19.209  0.00  0.00    +0.000 A 
ENDBRANCH  29  30
ENDBRANCH  28  29
ENDBRANCH   6  28
TORSDOF 8
ENDMDL
MODEL 8
REMARK VINA RESULT:      -8.1      1.185      1.676
REMARK  Name = 
REMARK  9 active torsions:
REMARK  status: ('A' for Active; 'I' for Inactive)
REMARK    1  A    between atoms: C_1  and  O_2
REMARK    2  A    between atoms: O_2  and  C_3
REMARK    3  A    between atoms: C_6  and  S_7
REMARK    4  A    between atoms: S_7  and  N_10
REMARK    5  A    between atoms: C_15  and  O_16
REMARK    6  A    between atoms: O_16  and  C_17
REMARK    7  A    between atoms: C_17  and  C_18
REMARK    8  A    between atoms: C_27  and  C_28
REMARK    9  A    between atoms: N_30  and  O_31
REMARK                            x       y       z     vdW  Elec       q    Type
REMARK                         _______ _______ _______ _____ _____    ______ ____
ROOT
ATOM      1  N   UNL     1       3.454   5.879  18.468  0.00  0.00    +0.000 NA
ATOM      2  C   UNL     1       3.768   7.257  18.024  0.00  0.00    +0.000 C 
ATOM      3  C   UNL     1       2.465   7.936  17.569  0.00  0.00    +0.000 C 
ATOM      4  C   UNL     1       1.660   8.174  18.822  0.00  0.00    +0.000 A 
ATOM      5  C   UNL     1       1.004   9.394  18.994  0.00  0.00    +0.000 A 
ATOM      6  C   UNL     1       0.823   9.926  20.265  0.00  0.00    +0.000 A 
ATOM      7  C   UNL     1       1.255   9.162  21.355  0.00  0.00    +0.000 A 
ATOM      8  C   UNL     1       1.727   7.813  21.172  0.00  0.00    +0.000 A 
ATOM      9  C   UNL     1       1.864   7.267  19.884  0.00  0.00    +0.000 A 
ATOM     10  C   UNL     1       2.278   5.775  19.479  0.00  0.00    +0.000 C 
ENDROOT
BRANCH  10  11
ATOM     11  C   UNL     1       1.654   4.517  18.692  0.00  0.00    +0.000 C 
ATOM     12  O   UNL     1       1.459   4.486  17.464  0.00  0.00    +0.000 OA
ATOM     13  N   UNL     1       1.326   3.403  19.451  0.00  0.00    +0.000 N 
ATOM     14  H   UNL     1       2.045   3.093  20.109  0.00  0.00    +0.000 HD
BRANCH  13  15
ATOM     15  O   UNL     1       0.811   2.339  18.646  0.00  0.00    +0.000 OA
ATOM     16  H   UNL     1       0.370   2.815  17.906  0.00  0.00    +0.000 HD
ENDBRANCH  13  15
ENDBRANCH  10  11
BRANCH   1  17
ATOM     17  S   UNL     1       4.771   4.840  18.757  0.00  0.00    +0.000 S 
ATOM     18  O   UNL     1       4.243   3.561  19.186  0.00  0.00    +0.000 OA
ATOM     19  O   UNL     1       5.710   5.555  19.597  0.00  0.00    +0.000 OA
BRANCH  17  23
ATOM     20  C   UNL     1       6.661   4.455  14.545  0.00  0.00    +0.000 A 
ATOM     21  C   UNL     1       5.341   4.076  14.782  0.00  0.00    +0.000 A 
ATOM     22  C   UNL     1       4.778   4.147  16.070  0.00  0.00    +0.000 A 
ATOM     23  C   UNL     1       5.553   4.590  17.142  0.00  0.00    +0.000 A 
ATOM     24  C   UNL     1       6.882   4.969  16.920  0.00  0.00    +0.000 A 
ATOM     25  C   UNL     1       7.439   4.897  15.619  0.00  0.00    +0.000 A 
BRANCH  20  27
ATOM     26  C   UNL     1       6.279   3.493  12.390  0.00  0.00    +0.000 C 
ATOM     27  O   UNL     1       7.065   4.320  13.248  0.00  0.00    +0.000 OA
ENDBRANCH  20  27
ENDBRANCH  17  23
ENDBRANCH   1  17
BRANCH   6  28
ATOM     28  O   UNL     1       0.426  11.227  20.202  0.00  0.00    +0.000 OA
BRANCH  28  29
ATOM     29  C   UNL     1      -0.193  11.845  19.073  0.00  0.00    +0.000 C 
BRANCH  29  30
ATOM     30  C   UNL     1      -0.574  13.298  19.430  0.00  0.00    +0.000 A 
ATOM     31  C   UNL     1      -1.538  13.601  20.423  0.00  0.00    +0.000 A 
ATOM     32  C   UNL     1      -1.866  14.911  20.742  0.00  0.00    +0.000 A 
ATOM     33  C   UNL     1      -1.265  15.978  20.085  0.00  0.00    +0.000 A 
ATOM     34  C   UNL     1      -0.309  15.709  19.107  0.00  0.00    +0.000 A 
ATOM     35  C   UNL     1       0.039  14.382  18.783  0.00  0.00    +0.000 A 
ENDBRANCH  29  30
ENDBRANCH  28  29
ENDBRANCH   6  28
TORSDOF 8
ENDMDL
MODEL 9
REMARK VINA RESULT:      -8.0      4.092      9.274
REMARK  Name = 
REMARK  9 active torsions:
REMARK  status: ('A' for Active; 'I' for Inactive)
REMARK    1  A    between atoms: C_1  and  O_2
REMARK    2  A    between atoms: O_2  and  C_3
REMARK    3  A    between atoms: C_6  and  S_7
REMARK    4  A    between atoms: S_7  and  N_10
REMARK    5  A    between atoms: C_15  and  O_16
REMARK    6  A    between atoms: O_16  and  C_17
REMARK    7  A    between atoms: C_17  and  C_18
REMARK    8  A    between atoms: C_27  and  C_28
REMARK    9  A    between atoms: N_30  and  O_31
REMARK                            x       y       z     vdW  Elec       q    Type
REMARK                         _______ _______ _______ _____ _____    ______ ____
ROOT
ATOM      1  N   UNL     1       0.107  12.204  19.814  0.00  0.00    +0.000 NA
ATOM      2  C   UNL     1       1.027  11.657  20.838  0.00  0.00    +0.000 C 
ATOM      3  C   UNL     1       0.570  10.233  21.198  0.00  0.00    +0.000 C 
ATOM      4  C   UNL     1       0.879   9.379  19.995  0.00  0.00    +0.000 A 
ATOM      5  C   UNL     1       1.445   8.117  20.176  0.00  0.00    +0.000 A 
ATOM      6  C   UNL     1       2.307   7.585  19.225  0.00  0.00    +0.000 A 
ATOM      7  C   UNL     1       2.524   8.328  18.060  0.00  0.00    +0.000 A 
ATOM      8  C   UNL     1       1.763   9.522  17.791  0.00  0.00    +0.000 A 
ATOM      9  C   UNL     1       0.858  10.027  18.741  0.00  0.00    +0.000 A 
ATOM     10  C   UNL     1      -0.138  11.271  18.596  0.00  0.00    +0.000 C 
ENDROOT
BRANCH  10  11
ATOM     11  C   UNL     1      -1.721  11.565  18.632  0.00  0.00    +0.000 C 
ATOM     12  O   UNL     1      -2.413  11.546  19.664  0.00  0.00    +0.000 OA
ATOM     13  N   UNL     1      -2.330  11.865  17.422  0.00  0.00    +0.000 N 
ATOM     14  H   UNL     1      -1.849  12.562  16.850  0.00  0.00    +0.000 HD
BRANCH  13  15
ATOM     15  O   UNL     1      -3.725  12.138  17.578  0.00  0.00    +0.000 OA
ATOM     16  H   UNL     1      -4.101  11.254  17.795  0.00  0.00    +0.000 HD
ENDBRANCH  13  15
ENDBRANCH  10  11
BRANCH   1  17
ATOM     17  S   UNL     1       0.244  13.863  19.458  0.00  0.00    +0.000 S 
ATOM     18  O   UNL     1      -0.311  14.605  20.571  0.00  0.00    +0.000 OA
ATOM     19  O   UNL     1      -0.279  14.063  18.122  0.00  0.00    +0.000 OA
BRANCH  17  23
ATOM     20  C   UNL     1       4.734  14.972  19.190  0.00  0.00    +0.000 A 
ATOM     21  C   UNL     1       4.095  14.288  18.157  0.00  0.00    +0.000 A 
ATOM     22  C   UNL     1       2.744  13.908  18.255  0.00  0.00    +0.000 A 
ATOM     23  C   UNL     1       2.023  14.203  19.412  0.00  0.00    +0.000 A 
ATOM     24  C   UNL     1       2.652  14.885  20.459  0.00  0.00    +0.000 A 
ATOM     25  C   UNL     1       4.013  15.266  20.351  0.00  0.00    +0.000 A 
BRANCH  20  27
ATOM     26  C   UNL     1       6.416  16.637  18.853  0.00  0.00    +0.000 C 
ATOM     27  O   UNL     1       6.047  15.262  18.951  0.00  0.00    +0.000 OA
ENDBRANCH  20  27
ENDBRANCH  17  23
ENDBRANCH   1  17
BRANCH   6  28
ATOM     28  O   UNL     1       2.962   6.493  19.710  0.00  0.00    +0.000 OA
BRANCH  28  29
ATOM     29  C   UNL     1       2.959   5.198  19.110  0.00  0.00    +0.000 C 
BRANCH  29  30
ATOM     30  C   UNL     1       4.278   4.991  18.334  0.00  0.00    +0.000 A 
ATOM     31  C   UNL     1       5.545   5.155  18.947  0.00  0.00    +0.000 A 
ATOM     32  C   UNL     1       6.724   4.958  18.243  0.00  0.00    +0.000 A 
ATOM     33  C   UNL     1       6.703   4.603  16.900  0.00  0.00    +0.000 A 
ATOM     34  C   UNL     1       5.470   4.429  16.272  0.00  0.00    +0.000 A 
ATOM     35  C   UNL     1       4.266   4.617  16.982  0.00  0.00    +0.000 A 
ENDBRANCH  29  30
ENDBRANCH  28  29
ENDBRANCH   6  28
TORSDOF 8
ENDMDL
