MODEL 1
REMARK VINA RESULT:      -8.1      0.000      0.000
REMARK  Name = 
REMARK  7 active torsions:
REMARK  status: ('A' for Active; 'I' for Inactive)
REMARK    1  A    between atoms: C_2  and  C_3
REMARK    2  A    between atoms: C_3  and  N_4
REMARK    3  A    between atoms: C_5  and  S_6
REMARK    4  A    between atoms: S_6  and  C_7
REMARK    5  A    between atoms: C_7  and  C_8
REMARK    6  A    between atoms: C_8  and  O_9
REMARK    7  A    between atoms: O_9  and  C_10
REMARK                            x       y       z     vdW  Elec       q    Type
REMARK                         _______ _______ _______ _____ _____    ______ ____
ROOT
ATOM      1  N   UNL     1       6.326   4.520  16.282  0.00  0.00    +0.000 N 
ATOM      2  C   UNL     1       7.102   5.628  16.525  0.00  0.00    +0.000 A 
ATOM      3  N   UNL     1       7.672   6.068  15.430  0.00  0.00    +0.000 NA
ATOM      4  C   UNL     1       7.253   5.233  14.432  0.00  0.00    +0.000 A 
ATOM      5  C   UNL     1       7.551   5.269  13.062  0.00  0.00    +0.000 A 
ATOM      6  C   UNL     1       6.966   4.316  12.220  0.00  0.00    +0.000 A 
ATOM      7  C   UNL     1       6.108   3.344  12.734  0.00  0.00    +0.000 A 
ATOM      8  C   UNL     1       5.807   3.288  14.100  0.00  0.00    +0.000 A 
ATOM      9  C   UNL     1       6.397   4.255  14.925  0.00  0.00    +0.000 A 
ENDROOT
BRANCH   1  10
ATOM     10  C   UNL     1       5.479   3.790  17.211  0.00  0.00    +0.000 C 
BRANCH  10  12
ATOM     11  O   UNL     1       3.940   5.642  17.369  0.00  0.00    +0.000 OA
ATOM     12  C   UNL     1       4.112   4.425  17.420  0.00  0.00    +0.000 C 
ATOM     13  N   UNL     1       3.048   3.552  17.628  0.00  0.00    +0.000 N 
ATOM     14  C   UNL     1       1.671   4.062  17.639  0.00  0.00    +0.000 C 
ATOM     15  C   UNL     1       1.007   3.830  19.001  0.00  0.00    +0.000 C 
ATOM     16  O   UNL     1       1.109   2.452  19.404  0.00  0.00    +0.000 OA
ATOM     17  C   UNL     1       2.482   2.039  19.472  0.00  0.00    +0.000 C 
ATOM     18  C   UNL     1       3.152   2.165  18.097  0.00  0.00    +0.000 C 
ENDBRANCH  10  12
ENDBRANCH   1  10
BRANCH   2  19
ATOM     19  S   UNL     1       7.193   6.432  18.059  0.00  0.00    +0.000 S 
BRANCH  19  20
ATOM     20  C   UNL     1       7.703   8.133  17.609  0.00  0.00    +0.000 C 
BRANCH  20  21
ATOM     21  C   UNL     1       8.744   8.779  18.525  0.00  0.00    +0.000 C 
BRANCH  21  22
ATOM     22  O   UNL     1       8.595  10.210  18.484  0.00  0.00    +0.000 OA
BRANCH  22  23
ATOM     23  C   UNL     1       9.728  10.956  18.720  0.00  0.00    +0.000 A 
ATOM     24  C   UNL     1      10.633  11.352  17.726  0.00  0.00    +0.000 A 
ATOM     25  C   UNL     1      11.763  12.114  18.041  0.00  0.00    +0.000 A 
ATOM     26  C   UNL     1      12.002  12.495  19.361  0.00  0.00    +0.000 A 
ATOM     27  C   UNL     1      11.113  12.111  20.363  0.00  0.00    +0.000 A 
ATOM     28  C   UNL     1       9.983  11.346  20.046  0.00  0.00    +0.000 A 
ATOM     29 CL   UNL     1       8.925  10.900  21.340  0.00  0.00    +0.000 Cl
ENDBRANCH  22  23
ENDBRANCH  21  22
ENDBRANCH  20  21
ENDBRANCH  19  20
ENDBRANCH   2  19
TORSDOF 7
ENDMDL
MODEL 2
REMARK VINA RESULT:      -8.1      4.365      7.349
REMARK  Name = 
REMARK  7 active torsions:
REMARK  status: ('A' for Active; 'I' for Inactive)
REMARK    1  A    between atoms: C_2  and  C_3
REMARK    2  A    between atoms: C_3  and  N_4
REMARK    3  A    between atoms: C_5  and  S_6
REMARK    4  A    between atoms: S_6  and  C_7
REMARK    5  A    between atoms: C_7  and  C_8
REMARK    6  A    between atoms: C_8  and  O_9
REMARK    7  A    between atoms: O_9  and  C_10
REMARK                            x       y       z     vdW  Elec       q    Type
REMARK                         _______ _______ _______ _____ _____    ______ ____
ROOT
ATOM      1  N   UNL     1       3.289   5.613  18.292  0.00  0.00    +0.000 N 
ATOM      2  C   UNL     1       4.634   5.331  18.271  0.00  0.00    +0.000 A 
ATOM      3  N   UNL     1       4.863   4.052  18.451  0.00  0.00    +0.000 NA
ATOM      4  C   UNL     1       3.632   3.471  18.584  0.00  0.00    +0.000 A 
ATOM      5  C   UNL     1       3.306   2.121  18.776  0.00  0.00    +0.000 A 
ATOM      6  C   UNL     1       1.956   1.758  18.848  0.00  0.00    +0.000 A 
ATOM      7  C   UNL     1       0.954   2.721  18.737  0.00  0.00    +0.000 A 
ATOM      8  C   UNL     1       1.262   4.074  18.554  0.00  0.00    +0.000 A 
ATOM      9  C   UNL     1       2.618   4.417  18.478  0.00  0.00    +0.000 A 
ENDROOT
BRANCH   1  10
ATOM     10  C   UNL     1       2.631   6.888  18.055  0.00  0.00    +0.000 C 
BRANCH  10  12
ATOM     11  O   UNL     1       2.024   6.924  20.391  0.00  0.00    +0.000 OA
ATOM     12  C   UNL     1       2.051   7.518  19.313  0.00  0.00    +0.000 C 
ATOM     13  N   UNL     1       1.589   8.826  19.195  0.00  0.00    +0.000 N 
ATOM     14  C   UNL     1       1.200   9.577  20.394  0.00  0.00    +0.000 C 
ATOM     15  C   UNL     1      -0.283   9.961  20.349  0.00  0.00    +0.000 C 
ATOM     16  O   UNL     1      -0.611  10.636  19.120  0.00  0.00    +0.000 OA
ATOM     17  C   UNL     1      -0.302   9.813  17.986  0.00  0.00    +0.000 C 
ATOM     18  C   UNL     1       1.199   9.491  17.947  0.00  0.00    +0.000 C 
ENDBRANCH  10  12
ENDBRANCH   1  10
BRANCH   2  19
ATOM     19  S   UNL     1       5.865   6.495  17.902  0.00  0.00    +0.000 S 
BRANCH  19  20
ATOM     20  C   UNL     1       7.401   5.498  17.915  0.00  0.00    +0.000 C 
BRANCH  20  21
ATOM     21  C   UNL     1       7.711   4.736  16.626  0.00  0.00    +0.000 C 
BRANCH  21  22
ATOM     22  O   UNL     1       7.307   5.526  15.493  0.00  0.00    +0.000 OA
BRANCH  22  23
ATOM     23  C   UNL     1       6.834   4.837  14.398  0.00  0.00    +0.000 A 
ATOM     24  C   UNL     1       5.681   4.039  14.403  0.00  0.00    +0.000 A 
ATOM     25  C   UNL     1       5.260   3.373  13.249  0.00  0.00    +0.000 A 
ATOM     26  C   UNL     1       5.987   3.497  12.066  0.00  0.00    +0.000 A 
ATOM     27  C   UNL     1       7.135   4.287  12.040  0.00  0.00    +0.000 A 
ATOM     28  C   UNL     1       7.557   4.953  13.198  0.00  0.00    +0.000 A 
ATOM     29 CL   UNL     1       8.994   5.911  13.097  0.00  0.00    +0.000 Cl
ENDBRANCH  22  23
ENDBRANCH  21  22
ENDBRANCH  20  21
ENDBRANCH  19  20
ENDBRANCH   2  19
TORSDOF 7
ENDMDL
MODEL 3
REMARK VINA RESULT:      -7.9      1.728      2.133
REMARK  Name = 
REMARK  7 active torsions:
REMARK  status: ('A' for Active; 'I' for Inactive)
REMARK    1  A    between atoms: C_2  and  C_3
REMARK    2  A    between atoms: C_3  and  N_4
REMARK    3  A    between atoms: C_5  and  S_6
REMARK    4  A    between atoms: S_6  and  C_7
REMARK    5  A    between atoms: C_7  and  C_8
REMARK    6  A    between atoms: C_8  and  O_9
REMARK    7  A    between atoms: O_9  and  C_10
REMARK                            x       y       z     vdW  Elec       q    Type
REMARK                         _______ _______ _______ _____ _____    ______ ____
ROOT
ATOM      1  N   UNL     1       6.023   5.544  17.550  0.00  0.00    +0.000 N 
ATOM      2  C   UNL     1       7.283   6.088  17.477  0.00  0.00    +0.000 A 
ATOM      3  N   UNL     1       7.835   5.873  16.307  0.00  0.00    +0.000 NA
ATOM      4  C   UNL     1       6.908   5.176  15.582  0.00  0.00    +0.000 A 
ATOM      5  C   UNL     1       6.983   4.713  14.261  0.00  0.00    +0.000 A 
ATOM      6  C   UNL     1       5.878   4.046  13.718  0.00  0.00    +0.000 A 
ATOM      7  C   UNL     1       4.726   3.841  14.478  0.00  0.00    +0.000 A 
ATOM      8  C   UNL     1       4.639   4.290  15.801  0.00  0.00    +0.000 A 
ATOM      9  C   UNL     1       5.753   4.960  16.325  0.00  0.00    +0.000 A 
ENDROOT
BRANCH   1  10
ATOM     10  C   UNL     1       5.065   5.630  18.640  0.00  0.00    +0.000 C 
BRANCH  10  12
ATOM     11  O   UNL     1       5.485   3.414  19.498  0.00  0.00    +0.000 OA
ATOM     12  C   UNL     1       4.658   4.277  19.205  0.00  0.00    +0.000 C 
ATOM     13  N   UNL     1       3.297   4.076  19.415  0.00  0.00    +0.000 N 
ATOM     14  C   UNL     1       2.834   2.886  20.138  0.00  0.00    +0.000 C 
ATOM     15  C   UNL     1       1.949   2.007  19.246  0.00  0.00    +0.000 C 
ATOM     16  O   UNL     1       0.879   2.770  18.657  0.00  0.00    +0.000 OA
ATOM     17  C   UNL     1       1.396   3.862  17.881  0.00  0.00    +0.000 C 
ATOM     18  C   UNL     1       2.208   4.817  18.768  0.00  0.00    +0.000 C 
ENDBRANCH  10  12
ENDBRANCH   1  10
BRANCH   2  19
ATOM     19  S   UNL     1       7.993   7.065  18.721  0.00  0.00    +0.000 S 
BRANCH  19  20
ATOM     20  C   UNL     1       8.147   8.707  17.926  0.00  0.00    +0.000 C 
BRANCH  20  21
ATOM     21  C   UNL     1       8.868   9.779  18.746  0.00  0.00    +0.000 C 
BRANCH  21  22
ATOM     22  O   UNL     1       9.597  10.648  17.861  0.00  0.00    +0.000 OA
BRANCH  22  23
ATOM     23  C   UNL     1      10.103  11.805  18.411  0.00  0.00    +0.000 A 
ATOM     24  C   UNL     1      11.293  11.875  19.148  0.00  0.00    +0.000 A 
ATOM     25  C   UNL     1      11.747  13.089  19.673  0.00  0.00    +0.000 A 
ATOM     26  C   UNL     1      11.015  14.257  19.466  0.00  0.00    +0.000 A 
ATOM     27  C   UNL     1       9.828  14.208  18.735  0.00  0.00    +0.000 A 
ATOM     28  C   UNL     1       9.375  12.990  18.211  0.00  0.00    +0.000 A 
ATOM     29 CL   UNL     1       7.892  13.002  17.320  0.00  0.00    +0.000 Cl
ENDBRANCH  22  23
ENDBRANCH  21  22
ENDBRANCH  20  21
ENDBRANCH  19  20
ENDBRANCH   2  19
TORSDOF 7
ENDMDL
MODEL 4
REMARK VINA RESULT:      -7.9      1.284      1.415
REMARK  Name = 
REMARK  7 active torsions:
REMARK  status: ('A' for Active; 'I' for Inactive)
REMARK    1  A    between atoms: C_2  and  C_3
REMARK    2  A    between atoms: C_3  and  N_4
REMARK    3  A    between atoms: C_5  and  S_6
REMARK    4  A    between atoms: S_6  and  C_7
REMARK    5  A    between atoms: C_7  and  C_8
REMARK    6  A    between atoms: C_8  and  O_9
REMARK    7  A    between atoms: O_9  and  C_10
REMARK                            x       y       z     vdW  Elec       q    Type
REMARK                         _______ _______ _______ _____ _____    ______ ____
ROOT
ATOM      1  N   UNL     1       6.287   4.591  16.842  0.00  0.00    +0.000 N 
ATOM      2  C   UNL     1       7.168   5.645  16.885  0.00  0.00    +0.000 A 
ATOM      3  N   UNL     1       7.625   5.941  15.692  0.00  0.00    +0.000 NA
ATOM      4  C   UNL     1       7.018   5.065  14.834  0.00  0.00    +0.000 A 
ATOM      5  C   UNL     1       7.139   4.962  13.441  0.00  0.00    +0.000 A 
ATOM      6  C   UNL     1       6.381   3.996  12.770  0.00  0.00    +0.000 A 
ATOM      7  C   UNL     1       5.525   3.148  13.473  0.00  0.00    +0.000 A 
ATOM      8  C   UNL     1       5.400   3.232  14.864  0.00  0.00    +0.000 A 
ATOM      9  C   UNL     1       6.162   4.209  15.518  0.00  0.00    +0.000 A 
ENDROOT
BRANCH   1  10
ATOM     10  C   UNL     1       5.514   4.016  17.932  0.00  0.00    +0.000 C 
BRANCH  10  12
ATOM     11  O   UNL     1       3.758   5.630  17.566  0.00  0.00    +0.000 OA
ATOM     12  C   UNL     1       4.082   4.525  17.999  0.00  0.00    +0.000 C 
ATOM     13  N   UNL     1       3.139   3.655  18.541  0.00  0.00    +0.000 N 
ATOM     14  C   UNL     1       1.710   3.980  18.462  0.00  0.00    +0.000 C 
ATOM     15  C   UNL     1       1.103   4.137  19.861  0.00  0.00    +0.000 C 
ATOM     16  O   UNL     1       1.383   2.990  20.684  0.00  0.00    +0.000 OA
ATOM     17  C   UNL     1       2.798   2.780  20.805  0.00  0.00    +0.000 C 
ATOM     18  C   UNL     1       3.424   2.521  19.427  0.00  0.00    +0.000 C 
ENDBRANCH  10  12
ENDBRANCH   1  10
BRANCH   2  19
ATOM     19  S   UNL     1       7.517   6.562  18.314  0.00  0.00    +0.000 S 
BRANCH  19  20
ATOM     20  C   UNL     1       7.898   8.229  17.659  0.00  0.00    +0.000 C 
BRANCH  20  21
ATOM     21  C   UNL     1       8.669   9.155  18.601  0.00  0.00    +0.000 C 
BRANCH  21  22
ATOM     22  O   UNL     1       8.530  10.516  18.155  0.00  0.00    +0.000 OA
BRANCH  22  23
ATOM     23  C   UNL     1       9.389  11.438  18.710  0.00  0.00    +0.000 A 
ATOM     24  C   UNL     1      10.476  11.110  19.533  0.00  0.00    +0.000 A 
ATOM     25  C   UNL     1      11.309  12.103  20.057  0.00  0.00    +0.000 A 
ATOM     26  C   UNL     1      11.069  13.444  19.763  0.00  0.00    +0.000 A 
ATOM     27  C   UNL     1       9.994  13.790  18.945  0.00  0.00    +0.000 A 
ATOM     28  C   UNL     1       9.159  12.794  18.422  0.00  0.00    +0.000 A 
ATOM     29 CL   UNL     1       7.841  13.295  17.420  0.00  0.00    +0.000 Cl
ENDBRANCH  22  23
ENDBRANCH  21  22
ENDBRANCH  20  21
ENDBRANCH  19  20
ENDBRANCH   2  19
TORSDOF 7
ENDMDL
MODEL 5
REMARK VINA RESULT:      -7.9      1.633      2.168
REMARK  Name = 
REMARK  7 active torsions:
REMARK  status: ('A' for Active; 'I' for Inactive)
REMARK    1  A    between atoms: C_2  and  C_3
REMARK    2  A    between atoms: C_3  and  N_4
REMARK    3  A    between atoms: C_5  and  S_6
REMARK    4  A    between atoms: S_6  and  C_7
REMARK    5  A    between atoms: C_7  and  C_8
REMARK    6  A    between atoms: C_8  and  O_9
REMARK    7  A    between atoms: O_9  and  C_10
REMARK                            x       y       z     vdW  Elec       q    Type
REMARK                         _______ _______ _______ _____ _____    ______ ____
ROOT
ATOM      1  N   UNL     1       5.541   5.253  16.123  0.00  0.00    +0.000 N 
ATOM      2  C   UNL     1       6.669   5.949  16.486  0.00  0.00    +0.000 A 
ATOM      3  N   UNL     1       7.599   5.877  15.564  0.00  0.00    +0.000 NA
ATOM      4  C   UNL     1       7.065   5.120  14.557  0.00  0.00    +0.000 A 
ATOM      5  C   UNL     1       7.632   4.754  13.328  0.00  0.00    +0.000 A 
ATOM      6  C   UNL     1       6.868   3.994  12.435  0.00  0.00    +0.000 A 
ATOM      7  C   UNL     1       5.569   3.604  12.762  0.00  0.00    +0.000 A 
ATOM      8  C   UNL     1       4.992   3.954  13.987  0.00  0.00    +0.000 A 
ATOM      9  C   UNL     1       5.770   4.719  14.866  0.00  0.00    +0.000 A 
ENDROOT
BRANCH   1  10
ATOM     10  C   UNL     1       4.275   5.154  16.831  0.00  0.00    +0.000 C 
BRANCH  10  12
ATOM     11  O   UNL     1       4.207   2.773  17.218  0.00  0.00    +0.000 OA
ATOM     12  C   UNL     1       4.154   3.907  17.694  0.00  0.00    +0.000 C 
ATOM     13  N   UNL     1       4.021   4.111  19.064  0.00  0.00    +0.000 N 
ATOM     14  C   UNL     1       4.098   2.972  19.987  0.00  0.00    +0.000 C 
ATOM     15  C   UNL     1       2.785   2.794  20.756  0.00  0.00    +0.000 C 
ATOM     16  O   UNL     1       2.383   4.021  21.395  0.00  0.00    +0.000 OA
ATOM     17  C   UNL     1       2.228   5.073  20.431  0.00  0.00    +0.000 C 
ATOM     18  C   UNL     1       3.555   5.344  19.710  0.00  0.00    +0.000 C 
ENDBRANCH  10  12
ENDBRANCH   1  10
BRANCH   2  19
ATOM     19  S   UNL     1       6.792   6.924  17.915  0.00  0.00    +0.000 S 
BRANCH  19  20
ATOM     20  C   UNL     1       8.125   8.108  17.500  0.00  0.00    +0.000 C 
BRANCH  20  21
ATOM     21  C   UNL     1       8.116   9.422  18.282  0.00  0.00    +0.000 C 
BRANCH  21  22
ATOM     22  O   UNL     1       9.321   9.524  19.062  0.00  0.00    +0.000 OA
BRANCH  22  23
ATOM     23  C   UNL     1       9.516  10.704  19.745  0.00  0.00    +0.000 A 
ATOM     24  C   UNL     1       9.052  10.950  21.044  0.00  0.00    +0.000 A 
ATOM     25  C   UNL     1       9.293  12.174  21.676  0.00  0.00    +0.000 A 
ATOM     26  C   UNL     1      10.008  13.172  21.017  0.00  0.00    +0.000 A 
ATOM     27  C   UNL     1      10.479  12.946  19.725  0.00  0.00    +0.000 A 
ATOM     28  C   UNL     1      10.235  11.720  19.092  0.00  0.00    +0.000 A 
ATOM     29 CL   UNL     1      10.843  11.509  17.486  0.00  0.00    +0.000 Cl
ENDBRANCH  22  23
ENDBRANCH  21  22
ENDBRANCH  20  21
ENDBRANCH  19  20
ENDBRANCH   2  19
TORSDOF 7
ENDMDL
MODEL 6
REMARK VINA RESULT:      -7.9      1.742      1.912
REMARK  Name = 
REMARK  7 active torsions:
REMARK  status: ('A' for Active; 'I' for Inactive)
REMARK    1  A    between atoms: C_2  and  C_3
REMARK    2  A    between atoms: C_3  and  N_4
REMARK    3  A    between atoms: C_5  and  S_6
REMARK    4  A    between atoms: S_6  and  C_7
REMARK    5  A    between atoms: C_7  and  C_8
REMARK    6  A    between atoms: C_8  and  O_9
REMARK    7  A    between atoms: O_9  and  C_10
REMARK                            x       y       z     vdW  Elec       q    Type
REMARK                         _______ _______ _______ _____ _____    ______ ____
ROOT
ATOM      1  N   UNL     1       6.362   5.064  17.658  0.00  0.00    +0.000 N 
ATOM      2  C   UNL     1       7.330   6.026  17.493  0.00  0.00    +0.000 A 
ATOM      3  N   UNL     1       7.684   6.144  16.236  0.00  0.00    +0.000 NA
ATOM      4  C   UNL     1       6.920   5.242  15.549  0.00  0.00    +0.000 A 
ATOM      5  C   UNL     1       6.888   4.975  14.173  0.00  0.00    +0.000 A 
ATOM      6  C   UNL     1       5.985   4.019  13.694  0.00  0.00    +0.000 A 
ATOM      7  C   UNL     1       5.137   3.339  14.569  0.00  0.00    +0.000 A 
ATOM      8  C   UNL     1       5.163   3.587  15.946  0.00  0.00    +0.000 A 
ATOM      9  C   UNL     1       6.070   4.552  16.406  0.00  0.00    +0.000 A 
ENDROOT
BRANCH   1  10
ATOM     10  C   UNL     1       5.659   4.690  18.875  0.00  0.00    +0.000 C 
BRANCH  10  12
ATOM     11  O   UNL     1       3.840   6.258  18.642  0.00  0.00    +0.000 OA
ATOM     12  C   UNL     1       4.196   5.106  18.888  0.00  0.00    +0.000 C 
ATOM     13  N   UNL     1       3.268   4.103  19.152  0.00  0.00    +0.000 N 
ATOM     14  C   UNL     1       1.834   4.368  18.989  0.00  0.00    +0.000 C 
ATOM     15  C   UNL     1       1.089   4.218  20.320  0.00  0.00    +0.000 C 
ATOM     16  O   UNL     1       1.368   2.947  20.935  0.00  0.00    +0.000 OA
ATOM     17  C   UNL     1       2.777   2.785  21.160  0.00  0.00    +0.000 C 
ATOM     18  C   UNL     1       3.545   2.832  19.832  0.00  0.00    +0.000 C 
ENDBRANCH  10  12
ENDBRANCH   1  10
BRANCH   2  19
ATOM     19  S   UNL     1       7.900   7.057  18.765  0.00  0.00    +0.000 S 
BRANCH  19  20
ATOM     20  C   UNL     1       8.189   8.652  17.913  0.00  0.00    +0.000 C 
BRANCH  20  21
ATOM     21  C   UNL     1       8.845   9.748  18.755  0.00  0.00    +0.000 C 
BRANCH  21  22
ATOM     22  O   UNL     1       9.565  10.647  17.893  0.00  0.00    +0.000 OA
BRANCH  22  23
ATOM     23  C   UNL     1       9.444  11.992  18.166  0.00  0.00    +0.000 A 
ATOM     24  C   UNL     1       8.410  12.806  17.683  0.00  0.00    +0.000 A 
ATOM     25  C   UNL     1       8.351  14.165  18.006  0.00  0.00    +0.000 A 
ATOM     26  C   UNL     1       9.328  14.732  18.823  0.00  0.00    +0.000 A 
ATOM     27  C   UNL     1      10.363  13.938  19.314  0.00  0.00    +0.000 A 
ATOM     28  C   UNL     1      10.422  12.577  18.988  0.00  0.00    +0.000 A 
ATOM     29 CL   UNL     1      11.738  11.653  19.626  0.00  0.00    +0.000 Cl
ENDBRANCH  22  23
ENDBRANCH  21  22
ENDBRANCH  20  21
ENDBRANCH  19  20
ENDBRANCH   2  19
TORSDOF 7
ENDMDL
MODEL 7
REMARK VINA RESULT:      -7.8      0.938      1.244
REMARK  Name = 
REMARK  7 active torsions:
REMARK  status: ('A' for Active; 'I' for Inactive)
REMARK    1  A    between atoms: C_2  and  C_3
REMARK    2  A    between atoms: C_3  and  N_4
REMARK    3  A    between atoms: C_5  and  S_6
REMARK    4  A    between atoms: S_6  and  C_7
REMARK    5  A    between atoms: C_7  and  C_8
REMARK    6  A    between atoms: C_8  and  O_9
REMARK    7  A    between atoms: O_9  and  C_10
REMARK                            x       y       z     vdW  Elec       q    Type
REMARK                         _______ _______ _______ _____ _____    ______ ____
ROOT
ATOM      1  N   UNL     1       5.506   5.198  16.144  0.00  0.00    +0.000 N 
ATOM      2  C   UNL     1       6.593   5.945  16.530  0.00  0.00    +0.000 A 
ATOM      3  N   UNL     1       7.542   5.920  15.625  0.00  0.00    +0.000 NA
ATOM      4  C   UNL     1       7.062   5.143  14.607  0.00  0.00    +0.000 A 
ATOM      5  C   UNL     1       7.669   4.808  13.387  0.00  0.00    +0.000 A 
ATOM      6  C   UNL     1       6.958   4.017  12.477  0.00  0.00    +0.000 A 
ATOM      7  C   UNL     1       5.674   3.565  12.779  0.00  0.00    +0.000 A 
ATOM      8  C   UNL     1       5.058   3.883  13.995  0.00  0.00    +0.000 A 
ATOM      9  C   UNL     1       5.783   4.680  14.890  0.00  0.00    +0.000 A 
ENDROOT
BRANCH   1  10
ATOM     10  C   UNL     1       4.233   5.037  16.828  0.00  0.00    +0.000 C 
BRANCH  10  12
ATOM     11  O   UNL     1       5.379   3.714  18.489  0.00  0.00    +0.000 OA
ATOM     12  C   UNL     1       4.333   4.253  18.128  0.00  0.00    +0.000 C 
ATOM     13  N   UNL     1       3.187   4.210  18.918  0.00  0.00    +0.000 N 
ATOM     14  C   UNL     1       3.250   3.651  20.273  0.00  0.00    +0.000 C 
ATOM     15  C   UNL     1       2.345   2.420  20.405  0.00  0.00    +0.000 C 
ATOM     16  O   UNL     1       1.004   2.709  19.967  0.00  0.00    +0.000 OA
ATOM     17  C   UNL     1       0.996   3.157  18.604  0.00  0.00    +0.000 C 
ATOM     18  C   UNL     1       1.815   4.447  18.455  0.00  0.00    +0.000 C 
ENDBRANCH  10  12
ENDBRANCH   1  10
BRANCH   2  19
ATOM     19  S   UNL     1       6.642   6.919  17.964  0.00  0.00    +0.000 S 
BRANCH  19  20
ATOM     20  C   UNL     1       7.879   8.205  17.552  0.00  0.00    +0.000 C 
BRANCH  20  21
ATOM     21  C   UNL     1       8.606   8.834  18.742  0.00  0.00    +0.000 C 
BRANCH  21  22
ATOM     22  O   UNL     1       8.514  10.267  18.657  0.00  0.00    +0.000 OA
BRANCH  22  23
ATOM     23  C   UNL     1       9.689  10.971  18.799  0.00  0.00    +0.000 A 
ATOM     24  C   UNL     1      10.589  11.225  17.755  0.00  0.00    +0.000 A 
ATOM     25  C   UNL     1      11.762  11.953  17.975  0.00  0.00    +0.000 A 
ATOM     26  C   UNL     1      12.053  12.442  19.247  0.00  0.00    +0.000 A 
ATOM     27  C   UNL     1      11.170  12.201  20.299  0.00  0.00    +0.000 A 
ATOM     28  C   UNL     1       9.995  11.470  20.076  0.00  0.00    +0.000 A 
ATOM     29 CL   UNL     1       8.948  11.202  21.427  0.00  0.00    +0.000 Cl
ENDBRANCH  22  23
ENDBRANCH  21  22
ENDBRANCH  20  21
ENDBRANCH  19  20
ENDBRANCH   2  19
TORSDOF 7
ENDMDL
MODEL 8
REMARK VINA RESULT:      -7.8      4.544      7.621
REMARK  Name = 
REMARK  7 active torsions:
REMARK  status: ('A' for Active; 'I' for Inactive)
REMARK    1  A    between atoms: C_2  and  C_3
REMARK    2  A    between atoms: C_3  and  N_4
REMARK    3  A    between atoms: C_5  and  S_6
REMARK    4  A    between atoms: S_6  and  C_7
REMARK    5  A    between atoms: C_7  and  C_8
REMARK    6  A    between atoms: C_8  and  O_9
REMARK    7  A    between atoms: O_9  and  C_10
REMARK                            x       y       z     vdW  Elec       q    Type
REMARK                         _______ _______ _______ _____ _____    ______ ____
ROOT
ATOM      1  N   UNL     1       3.193   5.865  18.957  0.00  0.00    +0.000 N 
ATOM      2  C   UNL     1       4.523   5.540  18.847  0.00  0.00    +0.000 A 
ATOM      3  N   UNL     1       4.771   4.348  19.334  0.00  0.00    +0.000 NA
ATOM      4  C   UNL     1       3.566   3.868  19.768  0.00  0.00    +0.000 A 
ATOM      5  C   UNL     1       3.266   2.629  20.354  0.00  0.00    +0.000 A 
ATOM      6  C   UNL     1       1.936   2.347  20.686  0.00  0.00    +0.000 A 
ATOM      7  C   UNL     1       0.928   3.282  20.445  0.00  0.00    +0.000 A 
ATOM      8  C   UNL     1       1.213   4.525  19.869  0.00  0.00    +0.000 A 
ATOM      9  C   UNL     1       2.549   4.787  19.538  0.00  0.00    +0.000 A 
ENDROOT
BRANCH   1  10
ATOM     10  C   UNL     1       2.511   7.054  18.470  0.00  0.00    +0.000 C 
BRANCH  10  12
ATOM     11  O   UNL     1       1.989   7.601  20.762  0.00  0.00    +0.000 OA
ATOM     12  C   UNL     1       1.956   7.937  19.578  0.00  0.00    +0.000 C 
ATOM     13  N   UNL     1       1.443   9.172  19.190  0.00  0.00    +0.000 N 
ATOM     14  C   UNL     1       1.073  10.164  20.206  0.00  0.00    +0.000 C 
ATOM     15  C   UNL     1      -0.424  10.489  20.141  0.00  0.00    +0.000 C 
ATOM     16  O   UNL     1      -0.821  10.860  18.807  0.00  0.00    +0.000 OA
ATOM     17  C   UNL     1      -0.524   9.810  17.874  0.00  0.00    +0.000 C 
ATOM     18  C   UNL     1       0.985   9.528  17.842  0.00  0.00    +0.000 C 
ENDBRANCH  10  12
ENDBRANCH   1  10
BRANCH   2  19
ATOM     19  S   UNL     1       5.698   6.520  18.031  0.00  0.00    +0.000 S 
BRANCH  19  20
ATOM     20  C   UNL     1       7.201   5.473  18.051  0.00  0.00    +0.000 C 
BRANCH  20  21
ATOM     21  C   UNL     1       7.532   4.758  16.740  0.00  0.00    +0.000 C 
BRANCH  21  22
ATOM     22  O   UNL     1       7.165   5.598  15.630  0.00  0.00    +0.000 OA
BRANCH  22  23
ATOM     23  C   UNL     1       6.913   4.964  14.434  0.00  0.00    +0.000 A 
ATOM     24  C   UNL     1       7.733   5.059  13.301  0.00  0.00    +0.000 A 
ATOM     25  C   UNL     1       7.414   4.382  12.121  0.00  0.00    +0.000 A 
ATOM     26  C   UNL     1       6.266   3.594  12.055  0.00  0.00    +0.000 A 
ATOM     27  C   UNL     1       5.438   3.486  13.171  0.00  0.00    +0.000 A 
ATOM     28  C   UNL     1       5.758   4.167  14.354  0.00  0.00    +0.000 A 
ATOM     29 CL   UNL     1       4.683   3.993  15.697  0.00  0.00    +0.000 Cl
ENDBRANCH  22  23
ENDBRANCH  21  22
ENDBRANCH  20  21
ENDBRANCH  19  20
ENDBRANCH   2  19
TORSDOF 7
ENDMDL
MODEL 9
REMARK VINA RESULT:      -7.7      1.070      1.446
REMARK  Name = 
REMARK  7 active torsions:
REMARK  status: ('A' for Active; 'I' for Inactive)
REMARK    1  A    between atoms: C_2  and  C_3
REMARK    2  A    between atoms: C_3  and  N_4
REMARK    3  A    between atoms: C_5  and  S_6
REMARK    4  A    between atoms: S_6  and  C_7
REMARK    5  A    between atoms: C_7  and  C_8
REMARK    6  A    between atoms: C_8  and  O_9
REMARK    7  A    between atoms: O_9  and  C_10
REMARK                            x       y       z     vdW  Elec       q    Type
REMARK                         _______ _______ _______ _____ _____    ______ ____
ROOT
ATOM      1  N   UNL     1       6.263   4.441  16.122  0.00  0.00    +0.000 N 
ATOM      2  C   UNL     1       7.084   5.508  16.398  0.00  0.00    +0.000 A 
ATOM      3  N   UNL     1       7.681   5.951  15.318  0.00  0.00    +0.000 NA
ATOM      4  C   UNL     1       7.233   5.160  14.296  0.00  0.00    +0.000 A 
ATOM      5  C   UNL     1       7.542   5.218  12.930  0.00  0.00    +0.000 A 
ATOM      6  C   UNL     1       6.924   4.312  12.060  0.00  0.00    +0.000 A 
ATOM      7  C   UNL     1       6.021   3.365  12.544  0.00  0.00    +0.000 A 
ATOM      8  C   UNL     1       5.708   3.288  13.906  0.00  0.00    +0.000 A 
ATOM      9  C   UNL     1       6.333   4.207  14.759  0.00  0.00    +0.000 A 
ENDROOT
BRANCH   1  10
ATOM     10  C   UNL     1       5.379   3.724  17.027  0.00  0.00    +0.000 C 
BRANCH  10  12
ATOM     11  O   UNL     1       3.905   5.636  17.048  0.00  0.00    +0.000 OA
ATOM     12  C   UNL     1       4.060   4.437  17.284  0.00  0.00    +0.000 C 
ATOM     13  N   UNL     1       3.013   3.653  17.762  0.00  0.00    +0.000 N 
ATOM     14  C   UNL     1       1.658   4.211  17.847  0.00  0.00    +0.000 C 
ATOM     15  C   UNL     1       1.161   4.235  19.297  0.00  0.00    +0.000 C 
ATOM     16  O   UNL     1       1.287   2.941  19.914  0.00  0.00    +0.000 OA
ATOM     17  C   UNL     1       2.650   2.491  19.889  0.00  0.00    +0.000 C 
ATOM     18  C   UNL     1       3.148   2.361  18.443  0.00  0.00    +0.000 C 
ENDBRANCH  10  12
ENDBRANCH   1  10
BRANCH   2  19
ATOM     19  S   UNL     1       7.198   6.268  17.953  0.00  0.00    +0.000 S 
BRANCH  19  20
ATOM     20  C   UNL     1       7.842   7.936  17.556  0.00  0.00    +0.000 C 
BRANCH  20  21
ATOM     21  C   UNL     1       8.523   8.678  18.707  0.00  0.00    +0.000 C 
BRANCH  21  22
ATOM     22  O   UNL     1       9.047   9.930  18.227  0.00  0.00    +0.000 OA
BRANCH  22  23
ATOM     23  C   UNL     1       9.481  10.823  19.180  0.00  0.00    +0.000 A 
ATOM     24  C   UNL     1       9.100  10.786  20.529  0.00  0.00    +0.000 A 
ATOM     25  C   UNL     1       9.587  11.727  21.442  0.00  0.00    +0.000 A 
ATOM     26  C   UNL     1      10.467  12.721  21.018  0.00  0.00    +0.000 A 
ATOM     27  C   UNL     1      10.858  12.774  19.681  0.00  0.00    +0.000 A 
ATOM     28  C   UNL     1      10.368  11.831  18.767  0.00  0.00    +0.000 A 
ATOM     29 CL   UNL     1      10.890  11.960  17.123  0.00  0.00    +0.000 Cl
ENDBRANCH  22  23
ENDBRANCH  21  22
ENDBRANCH  20  21
ENDBRANCH  19  20
ENDBRANCH   2  19
TORSDOF 7
ENDMDL
