MODEL 1
REMARK VINA RESULT:      -5.5      0.000      0.000
REMARK  Name = 
REMARK  5 active torsions:
REMARK  status: ('A' for Active; 'I' for Inactive)
REMARK    1  A    between atoms: C_2  and  C_3
REMARK    2  A    between atoms: C_3  and  C_4
REMARK    3  A    between atoms: C_4  and  C_5
REMARK    4  A    between atoms: C_5  and  N_6
REMARK    5  A    between atoms: C_10  and  C_11
REMARK                            x       y       z     vdW  Elec       q    Type
REMARK                         _______ _______ _______ _____ _____    ______ ____
ROOT
ATOM      1  N   UNL     1       2.846   5.757  19.955  0.00  0.00    +0.000 N 
ATOM      2  C   UNL     1       4.137   5.388  19.382  0.00  0.00    +0.000 C 
ATOM      3  C   UNL     1       4.182   5.642  17.886  0.00  0.00    +0.000 C 
ATOM      4  C   UNL     1       3.783   7.081  17.590  0.00  0.00    +0.000 C 
ATOM      5  C   UNL     1       2.398   7.389  18.172  0.00  0.00    +0.000 C 
ATOM      6  C   UNL     1       1.984   8.809  17.778  0.00  0.00    +0.000 C 
ATOM      7  C   UNL     1       2.317   7.023  19.674  0.00  0.00    +0.000 C 
ATOM      8  S   UNL     1       1.499   7.963  20.804  0.00  0.00    +0.000 S 
ENDROOT
BRANCH   1   9
ATOM      9  C   UNL     1       2.214   4.817  20.886  0.00  0.00    +0.000 C 
BRANCH   9  10
ATOM     10  C   UNL     1       0.923   4.176  20.381  0.00  0.00    +0.000 C 
BRANCH  10  11
ATOM     11  C   UNL     1       1.203   2.729  19.961  0.00  0.00    +0.000 C 
BRANCH  11  13
ATOM     12  C   UNL     1       2.473   2.339  17.837  0.00  0.00    +0.000 C 
ATOM     13  C   UNL     1       1.320   2.583  18.474  0.00  0.00    +0.000 C 
ENDBRANCH  11  13
ENDBRANCH  10  11
ENDBRANCH   9  10
ENDBRANCH   1   9
TORSDOF 4
ENDMDL
MODEL 2
REMARK VINA RESULT:      -5.2      3.219      5.048
REMARK  Name = 
REMARK  5 active torsions:
REMARK  status: ('A' for Active; 'I' for Inactive)
REMARK    1  A    between atoms: C_2  and  C_3
REMARK    2  A    between atoms: C_3  and  C_4
REMARK    3  A    between atoms: C_4  and  C_5
REMARK    4  A    between atoms: C_5  and  N_6
REMARK    5  A    between atoms: C_10  and  C_11
REMARK                            x       y       z     vdW  Elec       q    Type
REMARK                         _______ _______ _______ _____ _____    ______ ____
ROOT
ATOM      1  N   UNL     1       4.005   4.449  17.995  0.00  0.00    +0.000 N 
ATOM      2  C   UNL     1       4.269   5.686  18.723  0.00  0.00    +0.000 C 
ATOM      3  C   UNL     1       2.985   6.375  19.149  0.00  0.00    +0.000 C 
ATOM      4  C   UNL     1       2.103   5.402  19.919  0.00  0.00    +0.000 C 
ATOM      5  C   UNL     1       1.820   4.148  19.082  0.00  0.00    +0.000 C 
ATOM      6  C   UNL     1       0.857   3.234  19.842  0.00  0.00    +0.000 C 
ATOM      7  C   UNL     1       3.127   3.510  18.551  0.00  0.00    +0.000 C 
ATOM      8  S   UNL     1       3.369   1.848  18.473  0.00  0.00    +0.000 S 
ENDROOT
BRANCH   1   9
ATOM      9  C   UNL     1       4.757   4.205  16.760  0.00  0.00    +0.000 C 
BRANCH   9  10
ATOM     10  C   UNL     1       5.172   5.460  15.996  0.00  0.00    +0.000 C 
BRANCH  10  11
ATOM     11  C   UNL     1       6.298   5.110  15.017  0.00  0.00    +0.000 C 
BRANCH  11  13
ATOM     12  C   UNL     1       6.217   3.724  12.932  0.00  0.00    +0.000 C 
ATOM     13  C   UNL     1       6.010   3.855  14.248  0.00  0.00    +0.000 C 
ENDBRANCH  11  13
ENDBRANCH  10  11
ENDBRANCH   9  10
ENDBRANCH   1   9
TORSDOF 4
ENDMDL
MODEL 3
REMARK VINA RESULT:      -5.2      2.761      5.048
REMARK  Name = 
REMARK  5 active torsions:
REMARK  status: ('A' for Active; 'I' for Inactive)
REMARK    1  A    between atoms: C_2  and  C_3
REMARK    2  A    between atoms: C_3  and  C_4
REMARK    3  A    between atoms: C_4  and  C_5
REMARK    4  A    between atoms: C_5  and  N_6
REMARK    5  A    between atoms: C_10  and  C_11
REMARK                            x       y       z     vdW  Elec       q    Type
REMARK                         _______ _______ _______ _____ _____    ______ ____
ROOT
ATOM      1  N   UNL     1       3.887   4.479  18.252  0.00  0.00    +0.000 N 
ATOM      2  C   UNL     1       4.105   5.661  19.081  0.00  0.00    +0.000 C 
ATOM      3  C   UNL     1       2.795   6.271  19.548  0.00  0.00    +0.000 C 
ATOM      4  C   UNL     1       1.941   5.211  20.229  0.00  0.00    +0.000 C 
ATOM      5  C   UNL     1       1.706   4.021  19.290  0.00  0.00    +0.000 C 
ATOM      6  C   UNL     1       0.768   3.017  19.965  0.00  0.00    +0.000 C 
ATOM      7  C   UNL     1       3.036   3.470  18.722  0.00  0.00    +0.000 C 
ATOM      8  S   UNL     1       3.334   1.829  18.513  0.00  0.00    +0.000 S 
ENDROOT
BRANCH   1   9
ATOM      9  C   UNL     1       4.655   4.361  17.009  0.00  0.00    +0.000 C 
BRANCH   9  10
ATOM     10  C   UNL     1       5.451   5.603  16.619  0.00  0.00    +0.000 C 
BRANCH  10  11
ATOM     11  C   UNL     1       6.934   5.239  16.492  0.00  0.00    +0.000 C 
BRANCH  11  13
ATOM     12  C   UNL     1       7.782   5.681  18.808  0.00  0.00    +0.000 C 
ATOM     13  C   UNL     1       7.530   4.829  17.806  0.00  0.00    +0.000 C 
ENDBRANCH  11  13
ENDBRANCH  10  11
ENDBRANCH   9  10
ENDBRANCH   1   9
TORSDOF 4
ENDMDL
MODEL 4
REMARK VINA RESULT:      -5.2      2.024      4.674
REMARK  Name = 
REMARK  5 active torsions:
REMARK  status: ('A' for Active; 'I' for Inactive)
REMARK    1  A    between atoms: C_2  and  C_3
REMARK    2  A    between atoms: C_3  and  C_4
REMARK    3  A    between atoms: C_4  and  C_5
REMARK    4  A    between atoms: C_5  and  N_6
REMARK    5  A    between atoms: C_10  and  C_11
REMARK                            x       y       z     vdW  Elec       q    Type
REMARK                         _______ _______ _______ _____ _____    ______ ____
ROOT
ATOM      1  N   UNL     1       2.720   4.606  18.299  0.00  0.00    +0.000 N 
ATOM      2  C   UNL     1       2.300   3.614  17.314  0.00  0.00    +0.000 C 
ATOM      3  C   UNL     1       2.508   2.196  17.818  0.00  0.00    +0.000 C 
ATOM      4  C   UNL     1       1.832   2.022  19.170  0.00  0.00    +0.000 C 
ATOM      5  C   UNL     1       2.352   3.059  20.174  0.00  0.00    +0.000 C 
ATOM      6  C   UNL     1       1.728   2.798  21.546  0.00  0.00    +0.000 C 
ATOM      7  C   UNL     1       2.247   4.497  19.613  0.00  0.00    +0.000 C 
ATOM      8  S   UNL     1       1.800   5.817  20.554  0.00  0.00    +0.000 S 
ENDROOT
BRANCH   1   9
ATOM      9  C   UNL     1       3.537   5.731  17.836  0.00  0.00    +0.000 C 
BRANCH   9  10
ATOM     10  C   UNL     1       4.992   5.389  17.523  0.00  0.00    +0.000 C 
BRANCH  10  11
ATOM     11  C   UNL     1       5.260   5.617  16.031  0.00  0.00    +0.000 C 
BRANCH  11  13
ATOM     12  C   UNL     1       6.296   4.111  14.319  0.00  0.00    +0.000 C 
ATOM     13  C   UNL     1       5.385   4.328  15.276  0.00  0.00    +0.000 C 
ENDBRANCH  11  13
ENDBRANCH  10  11
ENDBRANCH   9  10
ENDBRANCH   1   9
TORSDOF 4
ENDMDL
MODEL 5
REMARK VINA RESULT:      -5.2      3.057      5.538
REMARK  Name = 
REMARK  5 active torsions:
REMARK  status: ('A' for Active; 'I' for Inactive)
REMARK    1  A    between atoms: C_2  and  C_3
REMARK    2  A    between atoms: C_3  and  C_4
REMARK    3  A    between atoms: C_4  and  C_5
REMARK    4  A    between atoms: C_5  and  N_6
REMARK    5  A    between atoms: C_10  and  C_11
REMARK                            x       y       z     vdW  Elec       q    Type
REMARK                         _______ _______ _______ _____ _____    ______ ____
ROOT
ATOM      1  N   UNL     1       4.503   4.691  18.938  0.00  0.00    +0.000 N 
ATOM      2  C   UNL     1       3.771   5.954  18.940  0.00  0.00    +0.000 C 
ATOM      3  C   UNL     1       2.582   5.918  17.996  0.00  0.00    +0.000 C 
ATOM      4  C   UNL     1       1.704   4.716  18.311  0.00  0.00    +0.000 C 
ATOM      5  C   UNL     1       2.518   3.417  18.241  0.00  0.00    +0.000 C 
ATOM      6  C   UNL     1       1.591   2.221  18.467  0.00  0.00    +0.000 C 
ATOM      7  C   UNL     1       3.793   3.496  19.116  0.00  0.00    +0.000 C 
ATOM      8  S   UNL     1       4.362   2.202  20.026  0.00  0.00    +0.000 S 
ENDROOT
BRANCH   1   9
ATOM      9  C   UNL     1       5.965   4.744  18.852  0.00  0.00    +0.000 C 
BRANCH   9  10
ATOM     10  C   UNL     1       6.516   5.630  17.737  0.00  0.00    +0.000 C 
BRANCH  10  11
ATOM     11  C   UNL     1       7.588   6.564  18.311  0.00  0.00    +0.000 C 
BRANCH  11  13
ATOM     12  C   UNL     1       8.247   8.963  18.020  0.00  0.00    +0.000 C 
ATOM     13  C   UNL     1       7.699   7.842  17.534  0.00  0.00    +0.000 C 
ENDBRANCH  11  13
ENDBRANCH  10  11
ENDBRANCH   9  10
ENDBRANCH   1   9
TORSDOF 4
ENDMDL
MODEL 6
REMARK VINA RESULT:      -5.1      2.792      4.739
REMARK  Name = 
REMARK  5 active torsions:
REMARK  status: ('A' for Active; 'I' for Inactive)
REMARK    1  A    between atoms: C_2  and  C_3
REMARK    2  A    between atoms: C_3  and  C_4
REMARK    3  A    between atoms: C_4  and  C_5
REMARK    4  A    between atoms: C_5  and  N_6
REMARK    5  A    between atoms: C_10  and  C_11
REMARK                            x       y       z     vdW  Elec       q    Type
REMARK                         _______ _______ _______ _____ _____    ______ ____
ROOT
ATOM      1  N   UNL     1       4.538   4.911  19.091  0.00  0.00    +0.000 N 
ATOM      2  C   UNL     1       3.676   6.086  19.012  0.00  0.00    +0.000 C 
ATOM      3  C   UNL     1       2.712   6.000  17.841  0.00  0.00    +0.000 C 
ATOM      4  C   UNL     1       1.939   4.691  17.899  0.00  0.00    +0.000 C 
ATOM      5  C   UNL     1       2.899   3.495  17.928  0.00  0.00    +0.000 C 
ATOM      6  C   UNL     1       2.095   2.194  17.890  0.00  0.00    +0.000 C 
ATOM      7  C   UNL     1       3.955   3.638  19.051  0.00  0.00    +0.000 C 
ATOM      8  S   UNL     1       4.480   2.343  19.986  0.00  0.00    +0.000 S 
ENDROOT
BRANCH   1   9
ATOM      9  C   UNL     1       5.972   5.125  19.313  0.00  0.00    +0.000 C 
BRANCH   9  10
ATOM     10  C   UNL     1       6.728   5.724  18.130  0.00  0.00    +0.000 C 
BRANCH  10  11
ATOM     11  C   UNL     1       6.966   4.639  17.075  0.00  0.00    +0.000 C 
BRANCH  11  13
ATOM     12  C   UNL     1       6.039   3.947  14.853  0.00  0.00    +0.000 C 
ATOM     13  C   UNL     1       6.005   4.743  15.928  0.00  0.00    +0.000 C 
ENDBRANCH  11  13
ENDBRANCH  10  11
ENDBRANCH   9  10
ENDBRANCH   1   9
TORSDOF 4
ENDMDL
MODEL 7
REMARK VINA RESULT:      -5.1      2.760      4.997
REMARK  Name = 
REMARK  5 active torsions:
REMARK  status: ('A' for Active; 'I' for Inactive)
REMARK    1  A    between atoms: C_2  and  C_3
REMARK    2  A    between atoms: C_3  and  C_4
REMARK    3  A    between atoms: C_4  and  C_5
REMARK    4  A    between atoms: C_5  and  N_6
REMARK    5  A    between atoms: C_10  and  C_11
REMARK                            x       y       z     vdW  Elec       q    Type
REMARK                         _______ _______ _______ _____ _____    ______ ____
ROOT
ATOM      1  N   UNL     1       3.386   4.307  17.756  0.00  0.00    +0.000 N 
ATOM      2  C   UNL     1       2.763   3.194  17.046  0.00  0.00    +0.000 C 
ATOM      3  C   UNL     1       2.585   1.982  17.942  0.00  0.00    +0.000 C 
ATOM      4  C   UNL     1       1.841   2.377  19.210  0.00  0.00    +0.000 C 
ATOM      5  C   UNL     1       2.572   3.513  19.936  0.00  0.00    +0.000 C 
ATOM      6  C   UNL     1       1.855   3.822  21.251  0.00  0.00    +0.000 C 
ATOM      7  C   UNL     1       2.856   4.705  18.990  0.00  0.00    +0.000 C 
ATOM      8  S   UNL     1       2.727   6.310  19.474  0.00  0.00    +0.000 S 
ENDROOT
BRANCH   1   9
ATOM      9  C   UNL     1       4.478   5.022  17.089  0.00  0.00    +0.000 C 
BRANCH   9  10
ATOM     10  C   UNL     1       5.377   4.156  16.210  0.00  0.00    +0.000 C 
BRANCH  10  11
ATOM     11  C   UNL     1       5.459   4.767  14.807  0.00  0.00    +0.000 C 
BRANCH  11  13
ATOM     12  C   UNL     1       5.953   3.490  12.710  0.00  0.00    +0.000 C 
ATOM     13  C   UNL     1       6.346   3.974  13.895  0.00  0.00    +0.000 C 
ENDBRANCH  11  13
ENDBRANCH  10  11
ENDBRANCH   9  10
ENDBRANCH   1   9
TORSDOF 4
ENDMDL
MODEL 8
REMARK VINA RESULT:      -5.1      2.416      5.139
REMARK  Name = 
REMARK  5 active torsions:
REMARK  status: ('A' for Active; 'I' for Inactive)
REMARK    1  A    between atoms: C_2  and  C_3
REMARK    2  A    between atoms: C_3  and  C_4
REMARK    3  A    between atoms: C_4  and  C_5
REMARK    4  A    between atoms: C_5  and  N_6
REMARK    5  A    between atoms: C_10  and  C_11
REMARK                            x       y       z     vdW  Elec       q    Type
REMARK                         _______ _______ _______ _____ _____    ______ ____
ROOT
ATOM      1  N   UNL     1       4.163   4.651  18.004  0.00  0.00    +0.000 N 
ATOM      2  C   UNL     1       3.990   3.472  17.161  0.00  0.00    +0.000 C 
ATOM      3  C   UNL     1       3.548   2.263  17.967  0.00  0.00    +0.000 C 
ATOM      4  C   UNL     1       2.308   2.605  18.780  0.00  0.00    +0.000 C 
ATOM      5  C   UNL     1       2.569   3.819  19.681  0.00  0.00    +0.000 C 
ATOM      6  C   UNL     1       1.340   4.080  20.554  0.00  0.00    +0.000 C 
ATOM      7  C   UNL     1       3.130   5.017  18.877  0.00  0.00    +0.000 C 
ATOM      8  S   UNL     1       2.679   6.609  19.172  0.00  0.00    +0.000 S 
ENDROOT
BRANCH   1   9
ATOM      9  C   UNL     1       5.373   5.457  17.819  0.00  0.00    +0.000 C 
BRANCH   9  10
ATOM     10  C   UNL     1       6.625   4.912  18.502  0.00  0.00    +0.000 C 
BRANCH  10  11
ATOM     11  C   UNL     1       7.679   6.021  18.594  0.00  0.00    +0.000 C 
BRANCH  11  13
ATOM     12  C   UNL     1       7.928   8.360  17.733  0.00  0.00    +0.000 C 
ATOM     13  C   UNL     1       7.425   7.125  17.612  0.00  0.00    +0.000 C 
ENDBRANCH  11  13
ENDBRANCH  10  11
ENDBRANCH   9  10
ENDBRANCH   1   9
TORSDOF 4
ENDMDL
MODEL 9
REMARK VINA RESULT:      -5.1      1.932      4.887
REMARK  Name = 
REMARK  5 active torsions:
REMARK  status: ('A' for Active; 'I' for Inactive)
REMARK    1  A    between atoms: C_2  and  C_3
REMARK    2  A    between atoms: C_3  and  C_4
REMARK    3  A    between atoms: C_4  and  C_5
REMARK    4  A    between atoms: C_5  and  N_6
REMARK    5  A    between atoms: C_10  and  C_11
REMARK                            x       y       z     vdW  Elec       q    Type
REMARK                         _______ _______ _______ _____ _____    ______ ____
ROOT
ATOM      1  N   UNL     1       3.053   4.470  18.460  0.00  0.00    +0.000 N 
ATOM      2  C   UNL     1       2.696   3.546  17.388  0.00  0.00    +0.000 C 
ATOM      3  C   UNL     1       2.652   2.108  17.875  0.00  0.00    +0.000 C 
ATOM      4  C   UNL     1       1.741   1.998  19.089  0.00  0.00    +0.000 C 
ATOM      5  C   UNL     1       2.198   2.955  20.198  0.00  0.00    +0.000 C 
ATOM      6  C   UNL     1       1.324   2.753  21.438  0.00  0.00    +0.000 C 
ATOM      7  C   UNL     1       2.354   4.402  19.673  0.00  0.00    +0.000 C 
ATOM      8  S   UNL     1       1.907   5.755  20.567  0.00  0.00    +0.000 S 
ENDROOT
BRANCH   1   9
ATOM      9  C   UNL     1       4.060   5.497  18.176  0.00  0.00    +0.000 C 
BRANCH   9  10
ATOM     10  C   UNL     1       5.369   5.351  18.948  0.00  0.00    +0.000 C 
BRANCH  10  11
ATOM     11  C   UNL     1       6.426   4.713  18.040  0.00  0.00    +0.000 C 
BRANCH  11  13
ATOM     12  C   UNL     1       7.584   6.932  17.953  0.00  0.00    +0.000 C 
ATOM     13  C   UNL     1       7.324   5.736  17.411  0.00  0.00    +0.000 C 
ENDBRANCH  11  13
ENDBRANCH  10  11
ENDBRANCH   9  10
ENDBRANCH   1   9
TORSDOF 4
ENDMDL
