MODEL 1
REMARK VINA RESULT:      -6.3      0.000      0.000
REMARK  Name = 
REMARK  11 active torsions:
REMARK  status: ('A' for Active; 'I' for Inactive)
REMARK    1  A    between atoms: C_1  and  C_2
REMARK    2  A    between atoms: C_2  and  O_3
REMARK    3  A    between atoms: O_3  and  C_4
REMARK    4  A    between atoms: C_4  and  C_6
REMARK    5  A    between atoms: C_6  and  C_7
REMARK    6  A    between atoms: C_9  and  C_10
REMARK    7  A    between atoms: C_12  and  O_13
REMARK    8  A    between atoms: O_13  and  C_14
REMARK    9  A    between atoms: C_15  and  O_16
REMARK   10  A    between atoms: O_16  and  C_17
REMARK   11  A    between atoms: C_19  and  N_20
REMARK                            x       y       z     vdW  Elec       q    Type
REMARK                         _______ _______ _______ _____ _____    ______ ____
ROOT
ATOM      1  C   UNL     1       3.811   5.275  17.427  0.00  0.00    +0.000 A 
ATOM      2  C   UNL     1       4.963   4.696  16.868  0.00  0.00    +0.000 A 
ATOM      3  C   UNL     1       6.126   5.445  16.641  0.00  0.00    +0.000 A 
ATOM      4  C   UNL     1       6.159   6.804  16.997  0.00  0.00    +0.000 A 
ATOM      5  C   UNL     1       5.040   7.382  17.605  0.00  0.00    +0.000 A 
ATOM      6  C   UNL     1       3.872   6.626  17.827  0.00  0.00    +0.000 A 
ENDROOT
BRANCH   6   7
ATOM      7  N   UNL     1       2.747   7.300  18.500  0.00  0.00    +0.000 N 
ATOM      8  O   UNL     1       2.022   8.057  17.839  0.00  0.00    +0.000 OA
ATOM      9  O   UNL     1       2.587   7.082  19.710  0.00  0.00    +0.000 OA
ENDBRANCH   6   7
BRANCH   1  11
ATOM     10  C   UNL     1       2.466   3.431  18.485  0.00  0.00    +0.000 C 
ATOM     11  C   UNL     1       2.648   4.379  17.543  0.00  0.00    +0.000 C 
BRANCH  10  12
ATOM     12  C   UNL     1       3.442   3.184  19.573  0.00  0.00    +0.000 C 
ATOM     13  O   UNL     1       4.264   2.278  19.579  0.00  0.00    +0.000 OA
BRANCH  12  14
ATOM     14  O   UNL     1       3.226   4.047  20.595  0.00  0.00    +0.000 OA
BRANCH  14  16
ATOM     15  C   UNL     1       1.849   2.670  21.958  0.00  0.00    +0.000 C 
ATOM     16  C   UNL     1       1.922   3.973  21.184  0.00  0.00    +0.000 C 
ENDBRANCH  14  16
ENDBRANCH  12  14
ENDBRANCH  10  12
BRANCH  10  17
ATOM     17  C   UNL     1       1.210   2.577  18.440  0.00  0.00    +0.000 C 
ATOM     18  N   UNL     1       0.167   1.869  18.403  0.00  0.00    +0.000 NA
ENDBRANCH  10  17
ENDBRANCH   1  11
BRANCH   3  19
ATOM     19  O   UNL     1       7.269   4.921  16.093  0.00  0.00    +0.000 OA
ATOM     20  C   UNL     1       7.226   4.601  14.707  0.00  0.00    +0.000 C 
ENDBRANCH   3  19
BRANCH   4  21
ATOM     21  O   UNL     1       7.317   7.485  16.712  0.00  0.00    +0.000 OA
ATOM     22  C   UNL     1       7.910   8.247  17.757  0.00  0.00    +0.000 C 
ENDBRANCH   4  21
TORSDOF 8
ENDMDL
MODEL 2
REMARK VINA RESULT:      -6.2      2.065      5.896
REMARK  Name = 
REMARK  11 active torsions:
REMARK  status: ('A' for Active; 'I' for Inactive)
REMARK    1  A    between atoms: C_1  and  C_2
REMARK    2  A    between atoms: C_2  and  O_3
REMARK    3  A    between atoms: O_3  and  C_4
REMARK    4  A    between atoms: C_4  and  C_6
REMARK    5  A    between atoms: C_6  and  C_7
REMARK    6  A    between atoms: C_9  and  C_10
REMARK    7  A    between atoms: C_12  and  O_13
REMARK    8  A    between atoms: O_13  and  C_14
REMARK    9  A    between atoms: C_15  and  O_16
REMARK   10  A    between atoms: O_16  and  C_17
REMARK   11  A    between atoms: C_19  and  N_20
REMARK                            x       y       z     vdW  Elec       q    Type
REMARK                         _______ _______ _______ _____ _____    ______ ____
ROOT
ATOM      1  C   UNL     1       4.249   5.672  18.145  0.00  0.00    +0.000 A 
ATOM      2  C   UNL     1       4.505   4.301  17.969  0.00  0.00    +0.000 A 
ATOM      3  C   UNL     1       3.465   3.365  17.878  0.00  0.00    +0.000 A 
ATOM      4  C   UNL     1       2.131   3.800  17.940  0.00  0.00    +0.000 A 
ATOM      5  C   UNL     1       1.858   5.166  18.058  0.00  0.00    +0.000 A 
ATOM      6  C   UNL     1       2.907   6.102  18.155  0.00  0.00    +0.000 A 
ENDROOT
BRANCH   6   7
ATOM      7  N   UNL     1       2.537   7.525  18.247  0.00  0.00    +0.000 N 
ATOM      8  O   UNL     1       2.113   7.965  19.326  0.00  0.00    +0.000 OA
ATOM      9  O   UNL     1       2.658   8.219  17.226  0.00  0.00    +0.000 OA
ENDBRANCH   6   7
BRANCH   1  11
ATOM     10  C   UNL     1       6.268   6.910  17.296  0.00  0.00    +0.000 C 
ATOM     11  C   UNL     1       5.443   6.522  18.290  0.00  0.00    +0.000 C 
BRANCH  10  12
ATOM     12  C   UNL     1       6.050   6.533  15.880  0.00  0.00    +0.000 C 
ATOM     13  O   UNL     1       5.072   6.849  15.217  0.00  0.00    +0.000 OA
BRANCH  12  14
ATOM     14  O   UNL     1       7.044   5.711  15.460  0.00  0.00    +0.000 OA
BRANCH  14  16
ATOM     15  C   UNL     1       6.458   4.083  13.831  0.00  0.00    +0.000 C 
ATOM     16  C   UNL     1       6.668   4.336  15.311  0.00  0.00    +0.000 C 
ENDBRANCH  14  16
ENDBRANCH  12  14
ENDBRANCH  10  12
BRANCH  10  17
ATOM     17  C   UNL     1       7.472   7.775  17.632  0.00  0.00    +0.000 C 
ATOM     18  N   UNL     1       8.472   8.492  17.910  0.00  0.00    +0.000 NA
ENDBRANCH  10  17
ENDBRANCH   1  11
BRANCH   3  19
ATOM     19  O   UNL     1       3.671   2.019  17.713  0.00  0.00    +0.000 OA
ATOM     20  C   UNL     1       4.016   1.276  18.877  0.00  0.00    +0.000 C 
ENDBRANCH   3  19
BRANCH   4  21
ATOM     21  O   UNL     1       1.165   2.825  17.881  0.00  0.00    +0.000 OA
ATOM     22  C   UNL     1       0.548   2.433  19.102  0.00  0.00    +0.000 C 
ENDBRANCH   4  21
TORSDOF 8
ENDMDL
MODEL 3
REMARK VINA RESULT:      -6.2      2.469      6.096
REMARK  Name = 
REMARK  11 active torsions:
REMARK  status: ('A' for Active; 'I' for Inactive)
REMARK    1  A    between atoms: C_1  and  C_2
REMARK    2  A    between atoms: C_2  and  O_3
REMARK    3  A    between atoms: O_3  and  C_4
REMARK    4  A    between atoms: C_4  and  C_6
REMARK    5  A    between atoms: C_6  and  C_7
REMARK    6  A    between atoms: C_9  and  C_10
REMARK    7  A    between atoms: C_12  and  O_13
REMARK    8  A    between atoms: O_13  and  C_14
REMARK    9  A    between atoms: C_15  and  O_16
REMARK   10  A    between atoms: O_16  and  C_17
REMARK   11  A    between atoms: C_19  and  N_20
REMARK                            x       y       z     vdW  Elec       q    Type
REMARK                         _______ _______ _______ _____ _____    ______ ____
ROOT
ATOM      1  C   UNL     1       4.681   4.066  17.441  0.00  0.00    +0.000 A 
ATOM      2  C   UNL     1       3.292   3.857  17.376  0.00  0.00    +0.000 A 
ATOM      3  C   UNL     1       2.488   3.902  18.524  0.00  0.00    +0.000 A 
ATOM      4  C   UNL     1       3.071   4.184  19.771  0.00  0.00    +0.000 A 
ATOM      5  C   UNL     1       4.441   4.450  19.845  0.00  0.00    +0.000 A 
ATOM      6  C   UNL     1       5.246   4.399  18.689  0.00  0.00    +0.000 A 
ENDROOT
BRANCH   6   7
ATOM      7  N   UNL     1       6.676   4.720  18.845  0.00  0.00    +0.000 N 
ATOM      8  O   UNL     1       7.017   5.511  19.737  0.00  0.00    +0.000 OA
ATOM      9  O   UNL     1       7.475   4.187  18.061  0.00  0.00    +0.000 OA
ENDBRANCH   6   7
BRANCH   1  11
ATOM     10  C   UNL     1       5.871   4.928  15.399  0.00  0.00    +0.000 C 
ATOM     11  C   UNL     1       5.400   3.922  16.164  0.00  0.00    +0.000 C 
BRANCH  10  12
ATOM     12  C   UNL     1       5.737   6.354  15.778  0.00  0.00    +0.000 C 
ATOM     13  O   UNL     1       4.771   7.058  15.516  0.00  0.00    +0.000 OA
BRANCH  12  14
ATOM     14  O   UNL     1       6.877   6.786  16.372  0.00  0.00    +0.000 OA
BRANCH  14  16
ATOM     15  C   UNL     1       8.084   8.296  17.754  0.00  0.00    +0.000 C 
ATOM     16  C   UNL     1       6.702   7.859  17.307  0.00  0.00    +0.000 C 
ENDBRANCH  14  16
ENDBRANCH  12  14
ENDBRANCH  10  12
BRANCH  10  17
ATOM     17  C   UNL     1       6.573   4.596  14.093  0.00  0.00    +0.000 C 
ATOM     18  N   UNL     1       7.157   4.320  13.009  0.00  0.00    +0.000 NA
ENDBRANCH  10  17
ENDBRANCH   1  11
BRANCH   3  19
ATOM     19  O   UNL     1       1.132   3.697  18.506  0.00  0.00    +0.000 OA
ATOM     20  C   UNL     1       0.687   2.347  18.581  0.00  0.00    +0.000 C 
ENDBRANCH   3  19
BRANCH   4  21
ATOM     21  O   UNL     1       2.229   4.175  20.856  0.00  0.00    +0.000 OA
ATOM     22  C   UNL     1       2.257   3.032  21.704  0.00  0.00    +0.000 C 
ENDBRANCH   4  21
TORSDOF 8
ENDMDL
MODEL 4
REMARK VINA RESULT:      -6.0      2.349      5.681
REMARK  Name = 
REMARK  11 active torsions:
REMARK  status: ('A' for Active; 'I' for Inactive)
REMARK    1  A    between atoms: C_1  and  C_2
REMARK    2  A    between atoms: C_2  and  O_3
REMARK    3  A    between atoms: O_3  and  C_4
REMARK    4  A    between atoms: C_4  and  C_6
REMARK    5  A    between atoms: C_6  and  C_7
REMARK    6  A    between atoms: C_9  and  C_10
REMARK    7  A    between atoms: C_12  and  O_13
REMARK    8  A    between atoms: O_13  and  C_14
REMARK    9  A    between atoms: C_15  and  O_16
REMARK   10  A    between atoms: O_16  and  C_17
REMARK   11  A    between atoms: C_19  and  N_20
REMARK                            x       y       z     vdW  Elec       q    Type
REMARK                         _______ _______ _______ _____ _____    ______ ____
ROOT
ATOM      1  C   UNL     1       4.069   5.524  17.310  0.00  0.00    +0.000 A 
ATOM      2  C   UNL     1       3.694   6.875  17.217  0.00  0.00    +0.000 A 
ATOM      3  C   UNL     1       3.030   7.527  18.265  0.00  0.00    +0.000 A 
ATOM      4  C   UNL     1       2.747   6.828  19.451  0.00  0.00    +0.000 A 
ATOM      5  C   UNL     1       3.162   5.500  19.582  0.00  0.00    +0.000 A 
ATOM      6  C   UNL     1       3.826   4.847  18.522  0.00  0.00    +0.000 A 
ENDROOT
BRANCH   6   7
ATOM      7  N   UNL     1       4.258   3.457  18.750  0.00  0.00    +0.000 N 
ATOM      8  O   UNL     1       5.138   3.234  19.594  0.00  0.00    +0.000 OA
ATOM      9  O   UNL     1       3.720   2.569  18.070  0.00  0.00    +0.000 OA
ENDBRANCH   6   7
BRANCH   1  11
ATOM     10  C   UNL     1       6.024   4.866  15.869  0.00  0.00    +0.000 C 
ATOM     11  C   UNL     1       4.699   4.959  16.104  0.00  0.00    +0.000 C 
BRANCH  10  12
ATOM     12  C   UNL     1       7.045   5.314  16.846  0.00  0.00    +0.000 C 
ATOM     13  O   UNL     1       7.336   4.716  17.873  0.00  0.00    +0.000 OA
BRANCH  12  14
ATOM     14  O   UNL     1       7.537   6.524  16.482  0.00  0.00    +0.000 OA
BRANCH  14  16
ATOM     15  C   UNL     1       8.242   7.973  18.229  0.00  0.00    +0.000 C 
ATOM     16  C   UNL     1       7.101   7.622  17.293  0.00  0.00    +0.000 C 
ENDBRANCH  14  16
ENDBRANCH  12  14
ENDBRANCH  10  12
BRANCH  10  17
ATOM     17  C   UNL     1       6.501   4.273  14.553  0.00  0.00    +0.000 C 
ATOM     18  N   UNL     1       6.896   3.781  13.461  0.00  0.00    +0.000 NA
ENDBRANCH  10  17
ENDBRANCH   1  11
BRANCH   3  19
ATOM     19  O   UNL     1       2.641   8.842  18.213  0.00  0.00    +0.000 OA
ATOM     20  C   UNL     1       1.352   9.107  17.671  0.00  0.00    +0.000 C 
ENDBRANCH   3  19
BRANCH   4  21
ATOM     21  O   UNL     1       2.061   7.518  20.420  0.00  0.00    +0.000 OA
ATOM     22  C   UNL     1       1.091   6.804  21.178  0.00  0.00    +0.000 C 
ENDBRANCH   4  21
TORSDOF 8
ENDMDL
MODEL 5
REMARK VINA RESULT:      -6.0      2.605      4.495
REMARK  Name = 
REMARK  11 active torsions:
REMARK  status: ('A' for Active; 'I' for Inactive)
REMARK    1  A    between atoms: C_1  and  C_2
REMARK    2  A    between atoms: C_2  and  O_3
REMARK    3  A    between atoms: O_3  and  C_4
REMARK    4  A    between atoms: C_4  and  C_6
REMARK    5  A    between atoms: C_6  and  C_7
REMARK    6  A    between atoms: C_9  and  C_10
REMARK    7  A    between atoms: C_12  and  O_13
REMARK    8  A    between atoms: O_13  and  C_14
REMARK    9  A    between atoms: C_15  and  O_16
REMARK   10  A    between atoms: O_16  and  C_17
REMARK   11  A    between atoms: C_19  and  N_20
REMARK                            x       y       z     vdW  Elec       q    Type
REMARK                         _______ _______ _______ _____ _____    ______ ____
ROOT
ATOM      1  C   UNL     1       3.547   6.163  18.929  0.00  0.00    +0.000 A 
ATOM      2  C   UNL     1       2.519   6.677  19.738  0.00  0.00    +0.000 A 
ATOM      3  C   UNL     1       1.857   7.869  19.416  0.00  0.00    +0.000 A 
ATOM      4  C   UNL     1       2.206   8.564  18.246  0.00  0.00    +0.000 A 
ATOM      5  C   UNL     1       3.188   8.038  17.401  0.00  0.00    +0.000 A 
ATOM      6  C   UNL     1       3.854   6.841  17.732  0.00  0.00    +0.000 A 
ENDROOT
BRANCH   6   7
ATOM      7  N   UNL     1       4.855   6.337  16.775  0.00  0.00    +0.000 N 
ATOM      8  O   UNL     1       5.885   6.999  16.582  0.00  0.00    +0.000 OA
ATOM      9  O   UNL     1       4.610   5.267  16.196  0.00  0.00    +0.000 OA
ENDBRANCH   6   7
BRANCH   1  11
ATOM     10  C   UNL     1       3.729   3.680  19.292  0.00  0.00    +0.000 C 
ATOM     11  C   UNL     1       4.193   4.938  19.432  0.00  0.00    +0.000 C 
BRANCH  10  12
ATOM     12  C   UNL     1       2.477   3.363  18.564  0.00  0.00    +0.000 C 
ATOM     13  O   UNL     1       2.194   3.781  17.450  0.00  0.00    +0.000 OA
BRANCH  12  14
ATOM     14  O   UNL     1       1.657   2.623  19.351  0.00  0.00    +0.000 OA
BRANCH  14  16
ATOM     15  C   UNL     1       1.334   2.722  21.704  0.00  0.00    +0.000 C 
ATOM     16  C   UNL     1       0.976   3.359  20.375  0.00  0.00    +0.000 C 
ENDBRANCH  14  16
ENDBRANCH  12  14
ENDBRANCH  10  12
BRANCH  10  17
ATOM     17  C   UNL     1       4.518   2.530  19.897  0.00  0.00    +0.000 C 
ATOM     18  N   UNL     1       5.173   1.576  20.400  0.00  0.00    +0.000 NA
ENDBRANCH  10  17
ENDBRANCH   1  11
BRANCH   3  19
ATOM     19  O   UNL     1       0.853   8.408  20.180  0.00  0.00    +0.000 OA
ATOM     20  C   UNL     1       1.198   8.803  21.503  0.00  0.00    +0.000 C 
ENDBRANCH   3  19
BRANCH   4  21
ATOM     21  O   UNL     1       1.542   9.743  18.012  0.00  0.00    +0.000 OA
ATOM     22  C   UNL     1       2.287  10.952  18.110  0.00  0.00    +0.000 C 
ENDBRANCH   4  21
TORSDOF 8
ENDMDL
MODEL 6
REMARK VINA RESULT:      -6.0      2.613      5.643
REMARK  Name = 
REMARK  11 active torsions:
REMARK  status: ('A' for Active; 'I' for Inactive)
REMARK    1  A    between atoms: C_1  and  C_2
REMARK    2  A    between atoms: C_2  and  O_3
REMARK    3  A    between atoms: O_3  and  C_4
REMARK    4  A    between atoms: C_4  and  C_6
REMARK    5  A    between atoms: C_6  and  C_7
REMARK    6  A    between atoms: C_9  and  C_10
REMARK    7  A    between atoms: C_12  and  O_13
REMARK    8  A    between atoms: O_13  and  C_14
REMARK    9  A    between atoms: C_15  and  O_16
REMARK   10  A    between atoms: O_16  and  C_17
REMARK   11  A    between atoms: C_19  and  N_20
REMARK                            x       y       z     vdW  Elec       q    Type
REMARK                         _______ _______ _______ _____ _____    ______ ____
ROOT
ATOM      1  C   UNL     1       2.940   5.682  18.434  0.00  0.00    +0.000 A 
ATOM      2  C   UNL     1       2.822   7.078  18.322  0.00  0.00    +0.000 A 
ATOM      3  C   UNL     1       2.165   7.840  19.298  0.00  0.00    +0.000 A 
ATOM      4  C   UNL     1       1.627   7.206  20.430  0.00  0.00    +0.000 A 
ATOM      5  C   UNL     1       1.783   5.825  20.584  0.00  0.00    +0.000 A 
ATOM      6  C   UNL     1       2.440   5.063  19.597  0.00  0.00    +0.000 A 
ENDROOT
BRANCH   6   7
ATOM      7  N   UNL     1       2.591   3.619  19.848  0.00  0.00    +0.000 N 
ATOM      8  O   UNL     1       1.733   2.841  19.403  0.00  0.00    +0.000 OA
ATOM      9  O   UNL     1       3.574   3.248  20.508  0.00  0.00    +0.000 OA
ENDBRANCH   6   7
BRANCH   1  11
ATOM     10  C   UNL     1       4.920   4.779  17.172  0.00  0.00    +0.000 C 
ATOM     11  C   UNL     1       3.598   5.012  17.299  0.00  0.00    +0.000 C 
BRANCH  10  12
ATOM     12  C   UNL     1       5.906   5.161  18.211  0.00  0.00    +0.000 C 
ATOM     13  O   UNL     1       6.289   4.427  19.112  0.00  0.00    +0.000 OA
BRANCH  12  14
ATOM     14  O   UNL     1       6.245   6.466  18.072  0.00  0.00    +0.000 OA
BRANCH  14  16
ATOM     15  C   UNL     1       7.846   8.175  17.665  0.00  0.00    +0.000 C 
ATOM     16  C   UNL     1       7.654   6.728  18.080  0.00  0.00    +0.000 C 
ENDBRANCH  14  16
ENDBRANCH  12  14
ENDBRANCH  10  12
BRANCH  10  17
ATOM     17  C   UNL     1       5.431   4.091  15.917  0.00  0.00    +0.000 C 
ATOM     18  N   UNL     1       5.855   3.520  14.875  0.00  0.00    +0.000 NA
ENDBRANCH  10  17
ENDBRANCH   1  11
BRANCH   3  19
ATOM     19  O   UNL     1       2.023   9.203  19.225  0.00  0.00    +0.000 OA
ATOM     20  C   UNL     1       1.317   9.714  18.100  0.00  0.00    +0.000 C 
ENDBRANCH   3  19
BRANCH   4  21
ATOM     21  O   UNL     1       0.964   8.010  21.326  0.00  0.00    +0.000 OA
ATOM     22  C   UNL     1      -0.458   8.033  21.267  0.00  0.00    +0.000 C 
ENDBRANCH   4  21
TORSDOF 8
ENDMDL
MODEL 7
REMARK VINA RESULT:      -6.0      2.475      5.427
REMARK  Name = 
REMARK  11 active torsions:
REMARK  status: ('A' for Active; 'I' for Inactive)
REMARK    1  A    between atoms: C_1  and  C_2
REMARK    2  A    between atoms: C_2  and  O_3
REMARK    3  A    between atoms: O_3  and  C_4
REMARK    4  A    between atoms: C_4  and  C_6
REMARK    5  A    between atoms: C_6  and  C_7
REMARK    6  A    between atoms: C_9  and  C_10
REMARK    7  A    between atoms: C_12  and  O_13
REMARK    8  A    between atoms: O_13  and  C_14
REMARK    9  A    between atoms: C_15  and  O_16
REMARK   10  A    between atoms: O_16  and  C_17
REMARK   11  A    between atoms: C_19  and  N_20
REMARK                            x       y       z     vdW  Elec       q    Type
REMARK                         _______ _______ _______ _____ _____    ______ ____
ROOT
ATOM      1  C   UNL     1       3.924   5.223  17.346  0.00  0.00    +0.000 A 
ATOM      2  C   UNL     1       3.610   6.592  17.280  0.00  0.00    +0.000 A 
ATOM      3  C   UNL     1       3.048   7.270  18.371  0.00  0.00    +0.000 A 
ATOM      4  C   UNL     1       2.809   6.580  19.571  0.00  0.00    +0.000 A 
ATOM      5  C   UNL     1       3.167   5.232  19.672  0.00  0.00    +0.000 A 
ATOM      6  C   UNL     1       3.727   4.553  18.571  0.00  0.00    +0.000 A 
ENDROOT
BRANCH   6   7
ATOM      7  N   UNL     1       4.105   3.143  18.767  0.00  0.00    +0.000 N 
ATOM      8  O   UNL     1       3.428   2.260  18.218  0.00  0.00    +0.000 OA
ATOM      9  O   UNL     1       5.086   2.904  19.487  0.00  0.00    +0.000 OA
ENDBRANCH   6   7
BRANCH   1  11
ATOM     10  C   UNL     1       5.730   4.658  15.689  0.00  0.00    +0.000 C 
ATOM     11  C   UNL     1       4.446   4.636  16.101  0.00  0.00    +0.000 C 
BRANCH  10  12
ATOM     12  C   UNL     1       6.817   5.279  16.482  0.00  0.00    +0.000 C 
ATOM     13  O   UNL     1       7.331   6.361  16.234  0.00  0.00    +0.000 OA
BRANCH  12  14
ATOM     14  O   UNL     1       7.218   4.433  17.462  0.00  0.00    +0.000 OA
BRANCH  14  16
ATOM     15  C   UNL     1       7.018   5.698  19.465  0.00  0.00    +0.000 C 
ATOM     16  C   UNL     1       7.992   5.039  18.505  0.00  0.00    +0.000 C 
ENDBRANCH  14  16
ENDBRANCH  12  14
ENDBRANCH  10  12
BRANCH  10  17
ATOM     17  C   UNL     1       6.090   4.018  14.358  0.00  0.00    +0.000 C 
ATOM     18  N   UNL     1       6.388   3.487  13.253  0.00  0.00    +0.000 NA
ENDBRANCH  10  17
ENDBRANCH   1  11
BRANCH   3  19
ATOM     19  O   UNL     1       2.721   8.602  18.347  0.00  0.00    +0.000 OA
ATOM     20  C   UNL     1       1.554   8.962  17.616  0.00  0.00    +0.000 C 
ENDBRANCH   3  19
BRANCH   4  21
ATOM     21  O   UNL     1       2.222   7.297  20.584  0.00  0.00    +0.000 OA
ATOM     22  C   UNL     1       0.893   6.950  20.956  0.00  0.00    +0.000 C 
ENDBRANCH   4  21
TORSDOF 8
ENDMDL
MODEL 8
REMARK VINA RESULT:      -6.0      2.936      6.321
REMARK  Name = 
REMARK  11 active torsions:
REMARK  status: ('A' for Active; 'I' for Inactive)
REMARK    1  A    between atoms: C_1  and  C_2
REMARK    2  A    between atoms: C_2  and  O_3
REMARK    3  A    between atoms: O_3  and  C_4
REMARK    4  A    between atoms: C_4  and  C_6
REMARK    5  A    between atoms: C_6  and  C_7
REMARK    6  A    between atoms: C_9  and  C_10
REMARK    7  A    between atoms: C_12  and  O_13
REMARK    8  A    between atoms: O_13  and  C_14
REMARK    9  A    between atoms: C_15  and  O_16
REMARK   10  A    between atoms: O_16  and  C_17
REMARK   11  A    between atoms: C_19  and  N_20
REMARK                            x       y       z     vdW  Elec       q    Type
REMARK                         _______ _______ _______ _____ _____    ______ ____
ROOT
ATOM      1  C   UNL     1       5.846   5.962  17.167  0.00  0.00    +0.000 A 
ATOM      2  C   UNL     1       4.544   6.466  17.009  0.00  0.00    +0.000 A 
ATOM      3  C   UNL     1       3.577   6.334  18.016  0.00  0.00    +0.000 A 
ATOM      4  C   UNL     1       3.915   5.704  19.225  0.00  0.00    +0.000 A 
ATOM      5  C   UNL     1       5.221   5.246  19.421  0.00  0.00    +0.000 A 
ATOM      6  C   UNL     1       6.188   5.377  18.403  0.00  0.00    +0.000 A 
ENDROOT
BRANCH   6   7
ATOM      7  N   UNL     1       7.549   4.897  18.698  0.00  0.00    +0.000 N 
ATOM      8  O   UNL     1       8.070   4.069  17.937  0.00  0.00    +0.000 OA
ATOM      9  O   UNL     1       8.110   5.342  19.711  0.00  0.00    +0.000 OA
ENDBRANCH   6   7
BRANCH   1  11
ATOM     10  C   UNL     1       6.798   5.286  14.938  0.00  0.00    +0.000 C 
ATOM     11  C   UNL     1       6.729   6.117  15.998  0.00  0.00    +0.000 C 
BRANCH  10  12
ATOM     12  C   UNL     1       5.942   4.083  14.805  0.00  0.00    +0.000 C 
ATOM     13  O   UNL     1       5.970   3.121  15.561  0.00  0.00    +0.000 OA
BRANCH  12  14
ATOM     14  O   UNL     1       5.197   4.165  13.676  0.00  0.00    +0.000 OA
BRANCH  14  16
ATOM     15  C   UNL     1       4.483   3.260  11.598  0.00  0.00    +0.000 C 
ATOM     16  C   UNL     1       5.605   3.289  12.618  0.00  0.00    +0.000 C 
ENDBRANCH  14  16
ENDBRANCH  12  14
ENDBRANCH  10  12
BRANCH  10  17
ATOM     17  C   UNL     1       7.788   5.589  13.825  0.00  0.00    +0.000 C 
ATOM     18  N   UNL     1       8.609   5.840  12.901  0.00  0.00    +0.000 NA
ENDBRANCH  10  17
ENDBRANCH   1  11
BRANCH   3  19
ATOM     19  O   UNL     1       2.294   6.805  17.900  0.00  0.00    +0.000 OA
ATOM     20  C   UNL     1       2.124   8.218  17.944  0.00  0.00    +0.000 C 
ENDBRANCH   3  19
BRANCH   4  21
ATOM     21  O   UNL     1       2.909   5.576  20.151  0.00  0.00    +0.000 OA
ATOM     22  C   UNL     1       2.370   4.277  20.367  0.00  0.00    +0.000 C 
ENDBRANCH   4  21
TORSDOF 8
ENDMDL
MODEL 9
REMARK VINA RESULT:      -5.9      0.760      1.530
REMARK  Name = 
REMARK  11 active torsions:
REMARK  status: ('A' for Active; 'I' for Inactive)
REMARK    1  A    between atoms: C_1  and  C_2
REMARK    2  A    between atoms: C_2  and  O_3
REMARK    3  A    between atoms: O_3  and  C_4
REMARK    4  A    between atoms: C_4  and  C_6
REMARK    5  A    between atoms: C_6  and  C_7
REMARK    6  A    between atoms: C_9  and  C_10
REMARK    7  A    between atoms: C_12  and  O_13
REMARK    8  A    between atoms: O_13  and  C_14
REMARK    9  A    between atoms: C_15  and  O_16
REMARK   10  A    between atoms: O_16  and  C_17
REMARK   11  A    between atoms: C_19  and  N_20
REMARK                            x       y       z     vdW  Elec       q    Type
REMARK                         _______ _______ _______ _____ _____    ______ ____
ROOT
ATOM      1  C   UNL     1       3.761   5.384  17.455  0.00  0.00    +0.000 A 
ATOM      2  C   UNL     1       4.928   4.809  16.924  0.00  0.00    +0.000 A 
ATOM      3  C   UNL     1       6.084   5.568  16.695  0.00  0.00    +0.000 A 
ATOM      4  C   UNL     1       6.094   6.934  17.023  0.00  0.00    +0.000 A 
ATOM      5  C   UNL     1       4.961   7.511  17.604  0.00  0.00    +0.000 A 
ATOM      6  C   UNL     1       3.799   6.743  17.827  0.00  0.00    +0.000 A 
ENDROOT
BRANCH   6   7
ATOM      7  N   UNL     1       2.658   7.417  18.471  0.00  0.00    +0.000 N 
ATOM      8  O   UNL     1       2.497   7.286  19.693  0.00  0.00    +0.000 OA
ATOM      9  O   UNL     1       1.899   8.081  17.749  0.00  0.00    +0.000 OA
ENDBRANCH   6   7
BRANCH   1  11
ATOM     10  C   UNL     1       2.270   3.762  18.670  0.00  0.00    +0.000 C 
ATOM     11  C   UNL     1       2.608   4.475  17.576  0.00  0.00    +0.000 C 
BRANCH  10  12
ATOM     12  C   UNL     1       3.034   3.828  19.938  0.00  0.00    +0.000 C 
ATOM     13  O   UNL     1       2.635   4.361  20.964  0.00  0.00    +0.000 OA
BRANCH  12  14
ATOM     14  O   UNL     1       4.269   3.296  19.765  0.00  0.00    +0.000 OA
BRANCH  14  16
ATOM     15  C   UNL     1       4.203   1.122  18.808  0.00  0.00    +0.000 C 
ATOM     16  C   UNL     1       4.381   1.906  20.095  0.00  0.00    +0.000 C 
ENDBRANCH  14  16
ENDBRANCH  12  14
ENDBRANCH  10  12
BRANCH  10  17
ATOM     17  C   UNL     1       1.054   2.852  18.611  0.00  0.00    +0.000 C 
ATOM     18  N   UNL     1       0.045   2.096  18.562  0.00  0.00    +0.000 NA
ENDBRANCH  10  17
ENDBRANCH   1  11
BRANCH   3  19
ATOM     19  O   UNL     1       7.241   5.047  16.173  0.00  0.00    +0.000 OA
ATOM     20  C   UNL     1       7.199   4.632  14.812  0.00  0.00    +0.000 C 
ENDBRANCH   3  19
BRANCH   4  21
ATOM     21  O   UNL     1       7.247   7.624  16.737  0.00  0.00    +0.000 OA
ATOM     22  C   UNL     1       7.883   8.319  17.804  0.00  0.00    +0.000 C 
ENDBRANCH   4  21
TORSDOF 8
ENDMDL
