MODEL 1
REMARK VINA RESULT:      -8.4      0.000      0.000
REMARK  Name = 
REMARK  5 active torsions:
REMARK  status: ('A' for Active; 'I' for Inactive)
REMARK    1  A    between atoms: C_1  and  C_2
REMARK    2  A    between atoms: C_5  and  C_6
REMARK    3  A    between atoms: N_8  and  C_9
REMARK    4  A    between atoms: C_13  and  N_14
REMARK    5  A    between atoms: C_20  and  C_21
REMARK                            x       y       z     vdW  Elec       q    Type
REMARK                         _______ _______ _______ _____ _____    ______ ____
ROOT
ATOM      1  C   UNL     1       0.735  10.522  19.021  0.00  0.00    +0.000 A 
ATOM      2  C   UNL     1       1.469  11.688  18.804  0.00  0.00    +0.000 A 
ATOM      3  C   UNL     1       0.827  12.904  18.583  0.00  0.00    +0.000 A 
ATOM      4  C   UNL     1      -0.563  12.971  18.586  0.00  0.00    +0.000 A 
ATOM      5  C   UNL     1      -1.333  11.827  18.829  0.00  0.00    +0.000 A 
ATOM      6  C   UNL     1      -0.664  10.599  19.013  0.00  0.00    +0.000 A 
ENDROOT
BRANCH   5   7
ATOM      7  N   UNL     1      -2.749  11.920  18.925  0.00  0.00    +0.000 N 
ATOM      8  C   UNL     1      -3.646  11.509  17.943  0.00  0.00    +0.000 C 
ATOM      9  O   UNL     1      -3.468  10.812  16.958  0.00  0.00    +0.000 OA
ATOM     10  C   UNL     1      -4.965  12.138  18.303  0.00  0.00    +0.000 C 
ATOM     11  C   UNL     1      -6.264  11.499  17.852  0.00  0.00    +0.000 C 
ATOM     12  C   UNL     1      -7.439  12.270  18.480  0.00  0.00    +0.000 C 
ATOM     13  C   UNL     1      -7.329  12.434  20.015  0.00  0.00    +0.000 C 
ATOM     14  C   UNL     1      -7.626  11.106  20.725  0.00  0.00    +0.000 C 
ATOM     15  C   UNL     1      -5.946  12.993  20.422  0.00  0.00    +0.000 C 
ATOM     16  C   UNL     1      -4.860  12.132  19.813  0.00  0.00    +0.000 C 
ATOM     17  C   UNL     1      -3.420  12.507  19.991  0.00  0.00    +0.000 C 
ATOM     18  O   UNL     1      -2.992  13.168  20.922  0.00  0.00    +0.000 OA
ENDBRANCH   5   7
BRANCH   1  21
ATOM     19  C   UNL     1       2.047   8.534  18.306  0.00  0.00    +0.000 C 
ATOM     20  O   UNL     1       2.297   8.902  17.158  0.00  0.00    +0.000 OA
ATOM     21  N   UNL     1       1.340   9.259  19.252  0.00  0.00    +0.000 N 
ATOM     22  H   UNL     1       1.391   8.942  20.211  0.00  0.00    +0.000 HD
BRANCH  19  27
ATOM     23  C   UNL     1       4.095   3.272  19.549  0.00  0.00    +0.000 C 
ATOM     24  C   UNL     1       3.591   4.658  19.271  0.00  0.00    +0.000 A 
ATOM     25  C   UNL     1       4.025   5.349  18.135  0.00  0.00    +0.000 A 
ATOM     26  C   UNL     1       3.532   6.624  17.863  0.00  0.00    +0.000 A 
ATOM     27  C   UNL     1       2.609   7.230  18.724  0.00  0.00    +0.000 A 
ATOM     28  C   UNL     1       2.178   6.554  19.869  0.00  0.00    +0.000 A 
ATOM     29  C   UNL     1       2.672   5.270  20.137  0.00  0.00    +0.000 A 
ENDBRANCH  19  27
ENDBRANCH   1  21
TORSDOF 3
ENDMDL
MODEL 2
REMARK VINA RESULT:      -8.2      0.282      1.838
REMARK  Name = 
REMARK  5 active torsions:
REMARK  status: ('A' for Active; 'I' for Inactive)
REMARK    1  A    between atoms: C_1  and  C_2
REMARK    2  A    between atoms: C_5  and  C_6
REMARK    3  A    between atoms: N_8  and  C_9
REMARK    4  A    between atoms: C_13  and  N_14
REMARK    5  A    between atoms: C_20  and  C_21
REMARK                            x       y       z     vdW  Elec       q    Type
REMARK                         _______ _______ _______ _____ _____    ______ ____
ROOT
ATOM      1  C   UNL     1       0.756  10.566  19.044  0.00  0.00    +0.000 A 
ATOM      2  C   UNL     1       1.497  11.723  18.810  0.00  0.00    +0.000 A 
ATOM      3  C   UNL     1       0.863  12.944  18.587  0.00  0.00    +0.000 A 
ATOM      4  C   UNL     1      -0.526  13.023  18.604  0.00  0.00    +0.000 A 
ATOM      5  C   UNL     1      -1.303  11.888  18.864  0.00  0.00    +0.000 A 
ATOM      6  C   UNL     1      -0.643  10.655  19.051  0.00  0.00    +0.000 A 
ENDROOT
BRANCH   5   7
ATOM      7  N   UNL     1      -2.717  11.993  18.974  0.00  0.00    +0.000 N 
ATOM      8  C   UNL     1      -3.396  12.551  20.054  0.00  0.00    +0.000 C 
ATOM      9  O   UNL     1      -2.982  13.240  20.971  0.00  0.00    +0.000 OA
ATOM     10  C   UNL     1      -4.827  12.105  19.914  0.00  0.00    +0.000 C 
ATOM     11  C   UNL     1      -5.946  12.932  20.515  0.00  0.00    +0.000 C 
ATOM     12  C   UNL     1      -7.295  12.318  20.096  0.00  0.00    +0.000 C 
ATOM     13  C   UNL     1      -7.435  12.102  18.570  0.00  0.00    +0.000 C 
ATOM     14  C   UNL     1      -7.650  13.441  17.850  0.00  0.00    +0.000 C 
ATOM     15  C   UNL     1      -6.215  11.344  17.997  0.00  0.00    +0.000 C 
ATOM     16  C   UNL     1      -4.945  12.058  18.406  0.00  0.00    +0.000 C 
ATOM     17  C   UNL     1      -3.611  11.480  18.042  0.00  0.00    +0.000 C 
ATOM     18  O   UNL     1      -3.419  10.742  17.090  0.00  0.00    +0.000 OA
ENDBRANCH   5   7
BRANCH   1  21
ATOM     19  C   UNL     1       2.024   8.551  18.326  0.00  0.00    +0.000 C 
ATOM     20  O   UNL     1       2.247   8.898  17.166  0.00  0.00    +0.000 OA
ATOM     21  N   UNL     1       1.352   9.299  19.279  0.00  0.00    +0.000 N 
ATOM     22  H   UNL     1       1.426   8.997  20.242  0.00  0.00    +0.000 HD
BRANCH  19  27
ATOM     23  C   UNL     1       4.067   3.291  19.586  0.00  0.00    +0.000 C 
ATOM     24  C   UNL     1       3.564   4.677  19.304  0.00  0.00    +0.000 A 
ATOM     25  C   UNL     1       4.020   5.377  18.183  0.00  0.00    +0.000 A 
ATOM     26  C   UNL     1       3.528   6.650  17.907  0.00  0.00    +0.000 A 
ATOM     27  C   UNL     1       2.583   7.248  18.750  0.00  0.00    +0.000 A 
ATOM     28  C   UNL     1       2.129   6.563  19.880  0.00  0.00    +0.000 A 
ATOM     29  C   UNL     1       2.622   5.280  20.153  0.00  0.00    +0.000 A 
ENDBRANCH  19  27
ENDBRANCH   1  21
TORSDOF 3
ENDMDL
MODEL 3
REMARK VINA RESULT:      -8.1      2.346      9.077
REMARK  Name = 
REMARK  5 active torsions:
REMARK  status: ('A' for Active; 'I' for Inactive)
REMARK    1  A    between atoms: C_1  and  C_2
REMARK    2  A    between atoms: C_5  and  C_6
REMARK    3  A    between atoms: N_8  and  C_9
REMARK    4  A    between atoms: C_13  and  N_14
REMARK    5  A    between atoms: C_20  and  C_21
REMARK                            x       y       z     vdW  Elec       q    Type
REMARK                         _______ _______ _______ _____ _____    ______ ____
ROOT
ATOM      1  C   UNL     1      -0.618  11.956  19.935  0.00  0.00    +0.000 A 
ATOM      2  C   UNL     1       0.115  12.925  19.251  0.00  0.00    +0.000 A 
ATOM      3  C   UNL     1       1.313  12.599  18.619  0.00  0.00    +0.000 A 
ATOM      4  C   UNL     1       1.789  11.292  18.655  0.00  0.00    +0.000 A 
ATOM      5  C   UNL     1       1.067  10.286  19.307  0.00  0.00    +0.000 A 
ATOM      6  C   UNL     1      -0.125  10.644  19.972  0.00  0.00    +0.000 A 
ENDROOT
BRANCH   5   7
ATOM      7  N   UNL     1       1.510   8.936  19.259  0.00  0.00    +0.000 N 
ATOM      8  C   UNL     1       1.468   8.041  20.326  0.00  0.00    +0.000 C 
ATOM      9  O   UNL     1       0.874   8.114  21.388  0.00  0.00    +0.000 OA
ATOM     10  C   UNL     1       2.368   6.899  19.940  0.00  0.00    +0.000 C 
ATOM     11  C   UNL     1       2.146   5.520  20.529  0.00  0.00    +0.000 C 
ATOM     12  C   UNL     1       3.113   4.531  19.852  0.00  0.00    +0.000 C 
ATOM     13  C   UNL     1       3.055   4.561  18.305  0.00  0.00    +0.000 C 
ATOM     14  C   UNL     1       1.772   3.888  17.797  0.00  0.00    +0.000 C 
ATOM     15  C   UNL     1       3.183   6.005  17.767  0.00  0.00    +0.000 C 
ATOM     16  C   UNL     1       2.151   6.884  18.442  0.00  0.00    +0.000 C 
ATOM     17  C   UNL     1       2.117   8.354  18.153  0.00  0.00    +0.000 C 
ATOM     18  O   UNL     1       2.526   8.862  17.122  0.00  0.00    +0.000 OA
ENDBRANCH   5   7
BRANCH   1  21
ATOM     19  C   UNL     1      -1.999  12.341  21.967  0.00  0.00    +0.000 C 
ATOM     20  O   UNL     1      -1.096  12.267  22.800  0.00  0.00    +0.000 OA
ATOM     21  N   UNL     1      -1.844  12.234  20.594  0.00  0.00    +0.000 N 
ATOM     22  H   UNL     1      -2.621  12.527  20.016  0.00  0.00    +0.000 HD
BRANCH  19  27
ATOM     23  C   UNL     1      -7.304  13.074  24.146  0.00  0.00    +0.000 C 
ATOM     24  C   UNL     1      -5.925  12.939  23.569  0.00  0.00    +0.000 A 
ATOM     25  C   UNL     1      -4.841  12.640  24.399  0.00  0.00    +0.000 A 
ATOM     26  C   UNL     1      -3.567  12.484  23.856  0.00  0.00    +0.000 A 
ATOM     27  C   UNL     1      -3.355  12.636  22.480  0.00  0.00    +0.000 A 
ATOM     28  C   UNL     1      -4.429  12.947  21.642  0.00  0.00    +0.000 A 
ATOM     29  C   UNL     1      -5.710  13.098  22.190  0.00  0.00    +0.000 A 
ENDBRANCH  19  27
ENDBRANCH   1  21
TORSDOF 3
ENDMDL
MODEL 4
REMARK VINA RESULT:      -8.1      0.858      1.247
REMARK  Name = 
REMARK  5 active torsions:
REMARK  status: ('A' for Active; 'I' for Inactive)
REMARK    1  A    between atoms: C_1  and  C_2
REMARK    2  A    between atoms: C_5  and  C_6
REMARK    3  A    between atoms: N_8  and  C_9
REMARK    4  A    between atoms: C_13  and  N_14
REMARK    5  A    between atoms: C_20  and  C_21
REMARK                            x       y       z     vdW  Elec       q    Type
REMARK                         _______ _______ _______ _____ _____    ______ ____
ROOT
ATOM      1  C   UNL     1       0.842  10.426  18.599  0.00  0.00    +0.000 A 
ATOM      2  C   UNL     1       1.596  11.599  18.611  0.00  0.00    +0.000 A 
ATOM      3  C   UNL     1       0.974  12.846  18.624  0.00  0.00    +0.000 A 
ATOM      4  C   UNL     1      -0.414  12.935  18.634  0.00  0.00    +0.000 A 
ATOM      5  C   UNL     1      -1.204  11.779  18.651  0.00  0.00    +0.000 A 
ATOM      6  C   UNL     1      -0.556  10.527  18.601  0.00  0.00    +0.000 A 
ENDROOT
BRANCH   5   7
ATOM      7  N   UNL     1      -2.619  11.875  18.757  0.00  0.00    +0.000 N 
ATOM      8  C   UNL     1      -3.523  11.502  17.766  0.00  0.00    +0.000 C 
ATOM      9  O   UNL     1      -3.353  10.838  16.758  0.00  0.00    +0.000 OA
ATOM     10  C   UNL     1      -4.837  12.125  18.154  0.00  0.00    +0.000 C 
ATOM     11  C   UNL     1      -6.141  11.508  17.688  0.00  0.00    +0.000 C 
ATOM     12  C   UNL     1      -7.309  12.264  18.348  0.00  0.00    +0.000 C 
ATOM     13  C   UNL     1      -7.191  12.375  19.887  0.00  0.00    +0.000 C 
ATOM     14  C   UNL     1      -7.491  11.025  20.553  0.00  0.00    +0.000 C 
ATOM     15  C   UNL     1      -5.803  12.913  20.306  0.00  0.00    +0.000 C 
ATOM     16  C   UNL     1      -4.725  12.067  19.662  0.00  0.00    +0.000 C 
ATOM     17  C   UNL     1      -3.282  12.429  19.846  0.00  0.00    +0.000 C 
ATOM     18  O   UNL     1      -2.846  13.056  20.797  0.00  0.00    +0.000 OA
ENDBRANCH   5   7
BRANCH   1  21
ATOM     19  C   UNL     1       1.642   8.351  19.712  0.00  0.00    +0.000 C 
ATOM     20  O   UNL     1       1.311   8.639  20.862  0.00  0.00    +0.000 OA
ATOM     21  N   UNL     1       1.426   9.132  18.588  0.00  0.00    +0.000 N 
ATOM     22  H   UNL     1       1.547   8.690  17.686  0.00  0.00    +0.000 HD
BRANCH  19  27
ATOM     23  C   UNL     1       4.255   3.207  19.342  0.00  0.00    +0.000 C 
ATOM     24  C   UNL     1       3.548   4.530  19.391  0.00  0.00    +0.000 A 
ATOM     25  C   UNL     1       2.623   4.796  20.405  0.00  0.00    +0.000 A 
ATOM     26  C   UNL     1       1.991   6.036  20.466  0.00  0.00    +0.000 A 
ATOM     27  C   UNL     1       2.265   7.024  19.511  0.00  0.00    +0.000 A 
ATOM     28  C   UNL     1       3.178   6.764  18.486  0.00  0.00    +0.000 A 
ATOM     29  C   UNL     1       3.815   5.518  18.430  0.00  0.00    +0.000 A 
ENDBRANCH  19  27
ENDBRANCH   1  21
TORSDOF 3
ENDMDL
MODEL 5
REMARK VINA RESULT:      -8.0      2.123      3.135
REMARK  Name = 
REMARK  5 active torsions:
REMARK  status: ('A' for Active; 'I' for Inactive)
REMARK    1  A    between atoms: C_1  and  C_2
REMARK    2  A    between atoms: C_5  and  C_6
REMARK    3  A    between atoms: N_8  and  C_9
REMARK    4  A    between atoms: C_13  and  N_14
REMARK    5  A    between atoms: C_20  and  C_21
REMARK                            x       y       z     vdW  Elec       q    Type
REMARK                         _______ _______ _______ _____ _____    ______ ____
ROOT
ATOM      1  C   UNL     1       1.116  10.142  19.046  0.00  0.00    +0.000 A 
ATOM      2  C   UNL     1       1.886  11.171  18.506  0.00  0.00    +0.000 A 
ATOM      3  C   UNL     1       1.521  12.504  18.684  0.00  0.00    +0.000 A 
ATOM      4  C   UNL     1       0.381  12.824  19.416  0.00  0.00    +0.000 A 
ATOM      5  C   UNL     1      -0.401  11.819  19.998  0.00  0.00    +0.000 A 
ATOM      6  C   UNL     1      -0.035  10.475  19.774  0.00  0.00    +0.000 A 
ENDROOT
BRANCH   5   7
ATOM      7  N   UNL     1      -1.509  12.157  20.823  0.00  0.00    +0.000 N 
ATOM      8  C   UNL     1      -1.472  12.253  22.211  0.00  0.00    +0.000 C 
ATOM      9  O   UNL     1      -0.519  12.307  22.970  0.00  0.00    +0.000 OA
ATOM     10  C   UNL     1      -2.908  12.246  22.661  0.00  0.00    +0.000 C 
ATOM     11  C   UNL     1      -3.300  12.897  23.973  0.00  0.00    +0.000 C 
ATOM     12  C   UNL     1      -4.834  12.864  24.103  0.00  0.00    +0.000 C 
ATOM     13  C   UNL     1      -5.576  13.448  22.877  0.00  0.00    +0.000 C 
ATOM     14  C   UNL     1      -5.460  14.978  22.850  0.00  0.00    +0.000 C 
ATOM     15  C   UNL     1      -5.063  12.821  21.560  0.00  0.00    +0.000 C 
ATOM     16  C   UNL     1      -3.556  12.960  21.494  0.00  0.00    +0.000 C 
ATOM     17  C   UNL     1      -2.799  12.361  20.349  0.00  0.00    +0.000 C 
ATOM     18  O   UNL     1      -3.274  12.153  19.245  0.00  0.00    +0.000 OA
ENDBRANCH   5   7
BRANCH   1  21
ATOM     19  C   UNL     1       1.758   7.911  19.937  0.00  0.00    +0.000 C 
ATOM     20  O   UNL     1       1.743   8.197  21.134  0.00  0.00    +0.000 OA
ATOM     21  N   UNL     1       1.444   8.769  18.896  0.00  0.00    +0.000 N 
ATOM     22  H   UNL     1       1.286   8.355  17.986  0.00  0.00    +0.000 HD
BRANCH  19  27
ATOM     23  C   UNL     1       2.706   2.460  18.256  0.00  0.00    +0.000 C 
ATOM     24  C   UNL     1       2.505   3.872  18.727  0.00  0.00    +0.000 A 
ATOM     25  C   UNL     1       2.724   4.942  17.855  0.00  0.00    +0.000 A 
ATOM     26  C   UNL     1       2.506   6.249  18.285  0.00  0.00    +0.000 A 
ATOM     27  C   UNL     1       2.077   6.507  19.593  0.00  0.00    +0.000 A 
ATOM     28  C   UNL     1       1.868   5.446  20.477  0.00  0.00    +0.000 A 
ATOM     29  C   UNL     1       2.083   4.132  20.041  0.00  0.00    +0.000 A 
ENDBRANCH  19  27
ENDBRANCH   1  21
TORSDOF 3
ENDMDL
MODEL 6
REMARK VINA RESULT:      -7.9      7.826      9.980
REMARK  Name = 
REMARK  5 active torsions:
REMARK  status: ('A' for Active; 'I' for Inactive)
REMARK    1  A    between atoms: C_1  and  C_2
REMARK    2  A    between atoms: C_5  and  C_6
REMARK    3  A    between atoms: N_8  and  C_9
REMARK    4  A    between atoms: C_13  and  N_14
REMARK    5  A    between atoms: C_20  and  C_21
REMARK                            x       y       z     vdW  Elec       q    Type
REMARK                         _______ _______ _______ _____ _____    ______ ____
ROOT
ATOM      1  C   UNL     1       7.039   6.744  16.678  0.00  0.00    +0.000 A 
ATOM      2  C   UNL     1       7.542   6.010  15.605  0.00  0.00    +0.000 A 
ATOM      3  C   UNL     1       7.032   4.749  15.302  0.00  0.00    +0.000 A 
ATOM      4  C   UNL     1       6.002   4.209  16.066  0.00  0.00    +0.000 A 
ATOM      5  C   UNL     1       5.452   4.929  17.133  0.00  0.00    +0.000 A 
ATOM      6  C   UNL     1       6.007   6.187  17.447  0.00  0.00    +0.000 A 
ENDROOT
BRANCH   5   7
ATOM      7  N   UNL     1       4.337   4.414  17.850  0.00  0.00    +0.000 N 
ATOM      8  C   UNL     1       3.723   3.188  17.603  0.00  0.00    +0.000 C 
ATOM      9  O   UNL     1       4.105   2.239  16.940  0.00  0.00    +0.000 OA
ATOM     10  C   UNL     1       2.399   3.241  18.315  0.00  0.00    +0.000 C 
ATOM     11  C   UNL     1       1.724   1.961  18.767  0.00  0.00    +0.000 C 
ATOM     12  C   UNL     1       0.470   2.324  19.584  0.00  0.00    +0.000 C 
ATOM     13  C   UNL     1       0.744   3.321  20.737  0.00  0.00    +0.000 C 
ATOM     14  C   UNL     1       1.480   2.627  21.891  0.00  0.00    +0.000 C 
ATOM     15  C   UNL     1       1.525   4.558  20.235  0.00  0.00    +0.000 C 
ATOM     16  C   UNL     1       2.769   4.101  19.504  0.00  0.00    +0.000 C 
ATOM     17  C   UNL     1       3.664   5.108  18.848  0.00  0.00    +0.000 C 
ATOM     18  O   UNL     1       3.755   6.275  19.193  0.00  0.00    +0.000 OA
ENDBRANCH   5   7
BRANCH   1  21
ATOM     19  C   UNL     1       8.252   8.320  18.171  0.00  0.00    +0.000 C 
ATOM     20  O   UNL     1       8.631   7.502  19.008  0.00  0.00    +0.000 OA
ATOM     21  N   UNL     1       7.522   8.032  17.029  0.00  0.00    +0.000 N 
ATOM     22  H   UNL     1       7.463   8.753  16.322  0.00  0.00    +0.000 HD
BRANCH  19  27
ATOM     23  C   UNL     1       9.672  13.797  19.364  0.00  0.00    +0.000 C 
ATOM     24  C   UNL     1       9.340  12.376  19.011  0.00  0.00    +0.000 A 
ATOM     25  C   UNL     1       9.712  11.334  19.865  0.00  0.00    +0.000 A 
ATOM     26  C   UNL     1       9.375  10.019  19.551  0.00  0.00    +0.000 A 
ATOM     27  C   UNL     1       8.672   9.725  18.375  0.00  0.00    +0.000 A 
ATOM     28  C   UNL     1       8.306  10.758  17.508  0.00  0.00    +0.000 A 
ATOM     29  C   UNL     1       8.642  12.079  17.830  0.00  0.00    +0.000 A 
ENDBRANCH  19  27
ENDBRANCH   1  21
TORSDOF 3
ENDMDL
MODEL 7
REMARK VINA RESULT:      -7.8      1.957      2.978
REMARK  Name = 
REMARK  5 active torsions:
REMARK  status: ('A' for Active; 'I' for Inactive)
REMARK    1  A    between atoms: C_1  and  C_2
REMARK    2  A    between atoms: C_5  and  C_6
REMARK    3  A    between atoms: N_8  and  C_9
REMARK    4  A    between atoms: C_13  and  N_14
REMARK    5  A    between atoms: C_20  and  C_21
REMARK                            x       y       z     vdW  Elec       q    Type
REMARK                         _______ _______ _______ _____ _____    ______ ____
ROOT
ATOM      1  C   UNL     1       0.891  10.740  19.520  0.00  0.00    +0.000 A 
ATOM      2  C   UNL     1       1.400  11.810  18.786  0.00  0.00    +0.000 A 
ATOM      3  C   UNL     1       0.760  13.048  18.792  0.00  0.00    +0.000 A 
ATOM      4  C   UNL     1      -0.396  13.234  19.544  0.00  0.00    +0.000 A 
ATOM      5  C   UNL     1      -0.921  12.191  20.316  0.00  0.00    +0.000 A 
ATOM      6  C   UNL     1      -0.279  10.935  20.267  0.00  0.00    +0.000 A 
ENDROOT
BRANCH   5   7
ATOM      7  N   UNL     1      -2.047  12.413  21.156  0.00  0.00    +0.000 N 
ATOM      8  C   UNL     1      -2.017  12.429  22.548  0.00  0.00    +0.000 C 
ATOM      9  O   UNL     1      -1.069  12.494  23.312  0.00  0.00    +0.000 OA
ATOM     10  C   UNL     1      -3.450  12.312  22.991  0.00  0.00    +0.000 C 
ATOM     11  C   UNL     1      -3.880  12.859  24.338  0.00  0.00    +0.000 C 
ATOM     12  C   UNL     1      -5.409  12.730  24.459  0.00  0.00    +0.000 C 
ATOM     13  C   UNL     1      -6.184  13.341  23.267  0.00  0.00    +0.000 C 
ATOM     14  C   UNL     1      -6.158  14.874  23.331  0.00  0.00    +0.000 C 
ATOM     15  C   UNL     1      -5.634  12.824  21.917  0.00  0.00    +0.000 C 
ATOM     16  C   UNL     1      -4.138  13.055  21.866  0.00  0.00    +0.000 C 
ATOM     17  C   UNL     1      -3.347  12.569  20.690  0.00  0.00    +0.000 C 
ATOM     18  O   UNL     1      -3.808  12.400  19.573  0.00  0.00    +0.000 OA
ENDBRANCH   5   7
BRANCH   1  21
ATOM     19  C   UNL     1       1.983   8.786  18.438  0.00  0.00    +0.000 C 
ATOM     20  O   UNL     1       1.996   9.218  17.285  0.00  0.00    +0.000 OA
ATOM     21  N   UNL     1       1.504   9.460  19.550  0.00  0.00    +0.000 N 
ATOM     22  H   UNL     1       1.748   9.087  20.458  0.00  0.00    +0.000 HD
BRANCH  19  27
ATOM     23  C   UNL     1       4.196   3.464  18.893  0.00  0.00    +0.000 C 
ATOM     24  C   UNL     1       3.652   4.861  18.819  0.00  0.00    +0.000 A 
ATOM     25  C   UNL     1       4.002   5.697  17.755  0.00  0.00    +0.000 A 
ATOM     26  C   UNL     1       3.471   6.982  17.673  0.00  0.00    +0.000 A 
ATOM     27  C   UNL     1       2.593   7.455  18.657  0.00  0.00    +0.000 A 
ATOM     28  C   UNL     1       2.247   6.633  19.732  0.00  0.00    +0.000 A 
ATOM     29  C   UNL     1       2.778   5.339  19.809  0.00  0.00    +0.000 A 
ENDBRANCH  19  27
ENDBRANCH   1  21
TORSDOF 3
ENDMDL
MODEL 8
REMARK VINA RESULT:      -7.8      2.261      2.899
REMARK  Name = 
REMARK  5 active torsions:
REMARK  status: ('A' for Active; 'I' for Inactive)
REMARK    1  A    between atoms: C_1  and  C_2
REMARK    2  A    between atoms: C_5  and  C_6
REMARK    3  A    between atoms: N_8  and  C_9
REMARK    4  A    between atoms: C_13  and  N_14
REMARK    5  A    between atoms: C_20  and  C_21
REMARK                            x       y       z     vdW  Elec       q    Type
REMARK                         _______ _______ _______ _____ _____    ______ ____
ROOT
ATOM      1  C   UNL     1       1.329   9.993  18.806  0.00  0.00    +0.000 A 
ATOM      2  C   UNL     1       2.136  10.945  18.185  0.00  0.00    +0.000 A 
ATOM      3  C   UNL     1       1.853  12.304  18.301  0.00  0.00    +0.000 A 
ATOM      4  C   UNL     1       0.760  12.729  19.051  0.00  0.00    +0.000 A 
ATOM      5  C   UNL     1      -0.056  11.804  19.713  0.00  0.00    +0.000 A 
ATOM      6  C   UNL     1       0.226  10.431  19.553  0.00  0.00    +0.000 A 
ENDROOT
BRANCH   5   7
ATOM      7  N   UNL     1      -1.112  12.248  20.554  0.00  0.00    +0.000 N 
ATOM      8  C   UNL     1      -2.448  12.352  20.175  0.00  0.00    +0.000 C 
ATOM      9  O   UNL     1      -3.025  11.899  19.200  0.00  0.00    +0.000 OA
ATOM     10  C   UNL     1      -3.108  13.204  21.224  0.00  0.00    +0.000 C 
ATOM     11  C   UNL     1      -4.595  13.071  21.490  0.00  0.00    +0.000 C 
ATOM     12  C   UNL     1      -4.962  13.951  22.700  0.00  0.00    +0.000 C 
ATOM     13  C   UNL     1      -4.083  13.693  23.948  0.00  0.00    +0.000 C 
ATOM     14  C   UNL     1      -4.461  12.361  24.612  0.00  0.00    +0.000 C 
ATOM     15  C   UNL     1      -2.579  13.739  23.594  0.00  0.00    +0.000 C 
ATOM     16  C   UNL     1      -2.307  12.796  22.442  0.00  0.00    +0.000 C 
ATOM     17  C   UNL     1      -0.932  12.712  21.852  0.00  0.00    +0.000 C 
ATOM     18  O   UNL     1       0.093  12.981  22.456  0.00  0.00    +0.000 OA
ENDBRANCH   5   7
BRANCH   1  21
ATOM     19  C   UNL     1       1.843   7.773  19.802  0.00  0.00    +0.000 C 
ATOM     20  O   UNL     1       1.852   8.117  20.984  0.00  0.00    +0.000 OA
ATOM     21  N   UNL     1       1.574   8.597  18.721  0.00  0.00    +0.000 N 
ATOM     22  H   UNL     1       1.386   8.150  17.833  0.00  0.00    +0.000 HD
BRANCH  19  27
ATOM     23  C   UNL     1       2.452   2.200  18.385  0.00  0.00    +0.000 C 
ATOM     24  C   UNL     1       2.339   3.642  18.787  0.00  0.00    +0.000 A 
ATOM     25  C   UNL     1       2.607   4.654  17.860  0.00  0.00    +0.000 A 
ATOM     26  C   UNL     1       2.471   5.991  18.226  0.00  0.00    +0.000 A 
ATOM     27  C   UNL     1       2.076   6.337  19.525  0.00  0.00    +0.000 A 
ATOM     28  C   UNL     1       1.818   5.335  20.463  0.00  0.00    +0.000 A 
ATOM     29  C   UNL     1       1.951   3.991  20.090  0.00  0.00    +0.000 A 
ENDBRANCH  19  27
ENDBRANCH   1  21
TORSDOF 3
ENDMDL
MODEL 9
REMARK VINA RESULT:      -7.8      1.380      2.402
REMARK  Name = 
REMARK  5 active torsions:
REMARK  status: ('A' for Active; 'I' for Inactive)
REMARK    1  A    between atoms: C_1  and  C_2
REMARK    2  A    between atoms: C_5  and  C_6
REMARK    3  A    between atoms: N_8  and  C_9
REMARK    4  A    between atoms: C_13  and  N_14
REMARK    5  A    between atoms: C_20  and  C_21
REMARK                            x       y       z     vdW  Elec       q    Type
REMARK                         _______ _______ _______ _____ _____    ______ ____
ROOT
ATOM      1  C   UNL     1       1.426   9.772  18.242  0.00  0.00    +0.000 A 
ATOM      2  C   UNL     1       2.288  10.853  18.420  0.00  0.00    +0.000 A 
ATOM      3  C   UNL     1       1.792  12.149  18.536  0.00  0.00    +0.000 A 
ATOM      4  C   UNL     1       0.420  12.380  18.484  0.00  0.00    +0.000 A 
ATOM      5  C   UNL     1      -0.478  11.316  18.335  0.00  0.00    +0.000 A 
ATOM      6  C   UNL     1       0.047  10.016  18.183  0.00  0.00    +0.000 A 
ENDROOT
BRANCH   5   7
ATOM      7  N   UNL     1      -1.880  11.547  18.378  0.00  0.00    +0.000 N 
ATOM      8  C   UNL     1      -2.567  12.107  19.453  0.00  0.00    +0.000 C 
ATOM      9  O   UNL     1      -2.145  12.704  20.429  0.00  0.00    +0.000 OA
ATOM     10  C   UNL     1      -4.021  11.804  19.213  0.00  0.00    +0.000 C 
ATOM     11  C   UNL     1      -5.094  12.699  19.803  0.00  0.00    +0.000 C 
ATOM     12  C   UNL     1      -6.466  12.237  19.280  0.00  0.00    +0.000 C 
ATOM     13  C   UNL     1      -6.539  12.117  17.738  0.00  0.00    +0.000 C 
ATOM     14  C   UNL     1      -6.590  13.506  17.088  0.00  0.00    +0.000 C 
ATOM     15  C   UNL     1      -5.362  11.280  17.185  0.00  0.00    +0.000 C 
ATOM     16  C   UNL     1      -4.057  11.850  17.700  0.00  0.00    +0.000 C 
ATOM     17  C   UNL     1      -2.763  11.170  17.373  0.00  0.00    +0.000 C 
ATOM     18  O   UNL     1      -2.584  10.470  16.391  0.00  0.00    +0.000 OA
ENDBRANCH   5   7
BRANCH   1  21
ATOM     19  C   UNL     1       2.133   7.582  19.185  0.00  0.00    +0.000 C 
ATOM     20  O   UNL     1       1.950   7.844  20.374  0.00  0.00    +0.000 OA
ATOM     21  N   UNL     1       1.880   8.432  18.121  0.00  0.00    +0.000 N 
ATOM     22  H   UNL     1       1.867   8.024  17.195  0.00  0.00    +0.000 HD
BRANCH  19  27
ATOM     23  C   UNL     1       3.560   2.092  18.063  0.00  0.00    +0.000 C 
ATOM     24  C   UNL     1       3.238   3.534  18.331  0.00  0.00    +0.000 A 
ATOM     25  C   UNL     1       2.195   4.161  17.643  0.00  0.00    +0.000 A 
ATOM     26  C   UNL     1       1.878   5.490  17.916  0.00  0.00    +0.000 A 
ATOM     27  C   UNL     1       2.604   6.215  18.870  0.00  0.00    +0.000 A 
ATOM     28  C   UNL     1       3.657   5.602  19.555  0.00  0.00    +0.000 A 
ATOM     29  C   UNL     1       3.970   4.263  19.282  0.00  0.00    +0.000 A 
ENDBRANCH  19  27
ENDBRANCH   1  21
TORSDOF 3
ENDMDL
