MODEL 1
REMARK VINA RESULT:      -6.1      0.000      0.000
REMARK  Name = 
REMARK  11 active torsions:
REMARK  status: ('A' for Active; 'I' for Inactive)
REMARK    1  A    between atoms: C_1  and  O_2
REMARK    2  A    between atoms: O_2  and  C_3
REMARK    3  A    between atoms: C_5  and  C_6
REMARK    4  A    between atoms: C_6  and  C_7
REMARK    5  A    between atoms: C_7  and  N_8
REMARK    6  A    between atoms: N_8  and  C_9
REMARK    7  A    between atoms: C_9  and  C_10
REMARK    8  A    between atoms: C_10  and  C_11
REMARK    9  A    between atoms: C_11  and  N_12
REMARK   10  A    between atoms: N_12  and  C_13
REMARK   11  A    between atoms: N_12  and  C_14
REMARK                            x       y       z     vdW  Elec       q    Type
REMARK                         _______ _______ _______ _____ _____    ______ ____
ROOT
ATOM      1  C   UNL     1       3.579   3.916  18.890  0.00  0.00    +0.000 A 
ATOM      2  C   UNL     1       4.335   4.731  18.041  0.00  0.00    +0.000 A 
ATOM      3  C   UNL     1       3.944   6.052  17.743  0.00  0.00    +0.000 A 
ATOM      4  C   UNL     1       2.764   6.547  18.319  0.00  0.00    +0.000 A 
ATOM      5 BR   UNL     1       2.147   8.318  18.021  0.00  0.00    +0.000 Br
ATOM      6  C   UNL     1       1.990   5.735  19.156  0.00  0.00    +0.000 A 
ATOM      7  C   UNL     1       2.394   4.427  19.433  0.00  0.00    +0.000 A 
ATOM      8 BR   UNL     1       1.301   3.387  20.589  0.00  0.00    +0.000 Br
ENDROOT
BRANCH   1  10
ATOM      9  C   UNL     1       3.540   1.624  18.258  0.00  0.00    +0.000 C 
ATOM     10  O   UNL     1       3.912   2.623  19.201  0.00  0.00    +0.000 OA
ENDBRANCH   1  10
BRANCH   3  11
ATOM     11  C   UNL     1       4.856   6.872  16.850  0.00  0.00    +0.000 C 
BRANCH  11  12
ATOM     12  C   UNL     1       6.330   6.660  17.222  0.00  0.00    +0.000 C 
BRANCH  12  13
ATOM     13  N   UNL     1       7.142   7.843  16.913  0.00  0.00    +0.000 NA
ATOM     14  H   UNL     1       6.534   8.650  16.768  0.00  0.00    +0.000 HD
BRANCH  13  15
ATOM     15  C   UNL     1       8.072   8.120  18.012  0.00  0.00    +0.000 C 
BRANCH  15  16
ATOM     16  C   UNL     1       8.508   9.588  18.015  0.00  0.00    +0.000 C 
BRANCH  16  17
ATOM     17  C   UNL     1       9.207   9.931  19.340  0.00  0.00    +0.000 C 
BRANCH  17  18
ATOM     18  N   UNL     1      10.169  11.044  19.250  0.00  0.00    +0.000 NA
ATOM     19  C   UNL     1       9.840  11.979  18.172  0.00  0.00    +0.000 C 
ATOM     20  C   UNL     1      10.213  11.767  20.526  0.00  0.00    +0.000 C 
ENDBRANCH  17  18
ENDBRANCH  16  17
ENDBRANCH  15  16
ENDBRANCH  13  15
ENDBRANCH  12  13
ENDBRANCH  11  12
ENDBRANCH   3  11
TORSDOF 8
ENDMDL
MODEL 2
REMARK VINA RESULT:      -5.9      2.803      4.721
REMARK  Name = 
REMARK  11 active torsions:
REMARK  status: ('A' for Active; 'I' for Inactive)
REMARK    1  A    between atoms: C_1  and  O_2
REMARK    2  A    between atoms: O_2  and  C_3
REMARK    3  A    between atoms: C_5  and  C_6
REMARK    4  A    between atoms: C_6  and  C_7
REMARK    5  A    between atoms: C_7  and  N_8
REMARK    6  A    between atoms: N_8  and  C_9
REMARK    7  A    between atoms: C_9  and  C_10
REMARK    8  A    between atoms: C_10  and  C_11
REMARK    9  A    between atoms: C_11  and  N_12
REMARK   10  A    between atoms: N_12  and  C_13
REMARK   11  A    between atoms: N_12  and  C_14
REMARK                            x       y       z     vdW  Elec       q    Type
REMARK                         _______ _______ _______ _____ _____    ______ ____
ROOT
ATOM      1  C   UNL     1       2.326   7.361  19.035  0.00  0.00    +0.000 A 
ATOM      2  C   UNL     1       2.771   6.234  18.334  0.00  0.00    +0.000 A 
ATOM      3  C   UNL     1       2.597   4.931  18.842  0.00  0.00    +0.000 A 
ATOM      4  C   UNL     1       1.958   4.776  20.082  0.00  0.00    +0.000 A 
ATOM      5 BR   UNL     1       1.635   3.073  20.857  0.00  0.00    +0.000 Br
ATOM      6  C   UNL     1       1.524   5.896  20.800  0.00  0.00    +0.000 A 
ATOM      7  C   UNL     1       1.714   7.179  20.280  0.00  0.00    +0.000 A 
ATOM      8 BR   UNL     1       1.086   8.652  21.304  0.00  0.00    +0.000 Br
ENDROOT
BRANCH   1  10
ATOM      9  C   UNL     1       1.461   9.158  17.741  0.00  0.00    +0.000 C 
ATOM     10  O   UNL     1       2.483   8.647  18.589  0.00  0.00    +0.000 OA
ENDBRANCH   1  10
BRANCH   3  11
ATOM     11  C   UNL     1       3.070   3.772  17.985  0.00  0.00    +0.000 C 
BRANCH  11  12
ATOM     12  C   UNL     1       4.597   3.627  18.045  0.00  0.00    +0.000 C 
BRANCH  12  13
ATOM     13  N   UNL     1       5.166   3.337  16.723  0.00  0.00    +0.000 NA
ATOM     14  H   UNL     1       4.654   2.568  16.290  0.00  0.00    +0.000 HD
BRANCH  13  15
ATOM     15  C   UNL     1       5.088   4.524  15.867  0.00  0.00    +0.000 C 
BRANCH  15  16
ATOM     16  C   UNL     1       6.410   5.298  15.870  0.00  0.00    +0.000 C 
BRANCH  16  17
ATOM     17  C   UNL     1       6.364   6.422  16.917  0.00  0.00    +0.000 C 
BRANCH  17  18
ATOM     18  N   UNL     1       7.672   6.754  17.511  0.00  0.00    +0.000 NA
ATOM     19  C   UNL     1       7.866   8.198  17.658  0.00  0.00    +0.000 C 
ATOM     20  C   UNL     1       7.800   6.108  18.822  0.00  0.00    +0.000 C 
ENDBRANCH  17  18
ENDBRANCH  16  17
ENDBRANCH  15  16
ENDBRANCH  13  15
ENDBRANCH  12  13
ENDBRANCH  11  12
ENDBRANCH   3  11
TORSDOF 8
ENDMDL
MODEL 3
REMARK VINA RESULT:      -5.9      0.858      1.151
REMARK  Name = 
REMARK  11 active torsions:
REMARK  status: ('A' for Active; 'I' for Inactive)
REMARK    1  A    between atoms: C_1  and  O_2
REMARK    2  A    between atoms: O_2  and  C_3
REMARK    3  A    between atoms: C_5  and  C_6
REMARK    4  A    between atoms: C_6  and  C_7
REMARK    5  A    between atoms: C_7  and  N_8
REMARK    6  A    between atoms: N_8  and  C_9
REMARK    7  A    between atoms: C_9  and  C_10
REMARK    8  A    between atoms: C_10  and  C_11
REMARK    9  A    between atoms: C_11  and  N_12
REMARK   10  A    between atoms: N_12  and  C_13
REMARK   11  A    between atoms: N_12  and  C_14
REMARK                            x       y       z     vdW  Elec       q    Type
REMARK                         _______ _______ _______ _____ _____    ______ ____
ROOT
ATOM      1  C   UNL     1       3.427   3.535  18.754  0.00  0.00    +0.000 A 
ATOM      2  C   UNL     1       4.225   4.115  17.760  0.00  0.00    +0.000 A 
ATOM      3  C   UNL     1       4.113   5.480  17.426  0.00  0.00    +0.000 A 
ATOM      4  C   UNL     1       3.176   6.263  18.116  0.00  0.00    +0.000 A 
ATOM      5 BR   UNL     1       2.953   8.119  17.780  0.00  0.00    +0.000 Br
ATOM      6  C   UNL     1       2.361   5.692  19.100  0.00  0.00    +0.000 A 
ATOM      7  C   UNL     1       2.484   4.335  19.410  0.00  0.00    +0.000 A 
ATOM      8 BR   UNL     1       1.355   3.630  20.766  0.00  0.00    +0.000 Br
ENDROOT
BRANCH   1  10
ATOM      9  C   UNL     1       3.872   1.298  18.085  0.00  0.00    +0.000 C 
ATOM     10  O   UNL     1       3.490   2.213  19.106  0.00  0.00    +0.000 OA
ENDBRANCH   1  10
BRANCH   3  11
ATOM     11  C   UNL     1       5.055   6.025  16.369  0.00  0.00    +0.000 C 
BRANCH  11  12
ATOM     12  C   UNL     1       6.486   5.515  16.587  0.00  0.00    +0.000 C 
BRANCH  12  13
ATOM     13  N   UNL     1       7.467   6.605  16.515  0.00  0.00    +0.000 NA
ATOM     14  H   UNL     1       7.178   7.281  15.807  0.00  0.00    +0.000 HD
BRANCH  13  15
ATOM     15  C   UNL     1       7.580   7.271  17.816  0.00  0.00    +0.000 C 
BRANCH  15  16
ATOM     16  C   UNL     1       7.865   8.767  17.650  0.00  0.00    +0.000 C 
BRANCH  16  17
ATOM     17  C   UNL     1       8.986   9.202  18.608  0.00  0.00    +0.000 C 
BRANCH  17  18
ATOM     18  N   UNL     1       8.926  10.619  19.011  0.00  0.00    +0.000 NA
ATOM     19  C   UNL     1       9.225  10.806  20.432  0.00  0.00    +0.000 C 
ATOM     20  C   UNL     1       9.868  11.404  18.206  0.00  0.00    +0.000 C 
ENDBRANCH  17  18
ENDBRANCH  16  17
ENDBRANCH  15  16
ENDBRANCH  13  15
ENDBRANCH  12  13
ENDBRANCH  11  12
ENDBRANCH   3  11
TORSDOF 8
ENDMDL
MODEL 4
REMARK VINA RESULT:      -5.9      3.653      6.014
REMARK  Name = 
REMARK  11 active torsions:
REMARK  status: ('A' for Active; 'I' for Inactive)
REMARK    1  A    between atoms: C_1  and  O_2
REMARK    2  A    between atoms: O_2  and  C_3
REMARK    3  A    between atoms: C_5  and  C_6
REMARK    4  A    between atoms: C_6  and  C_7
REMARK    5  A    between atoms: C_7  and  N_8
REMARK    6  A    between atoms: N_8  and  C_9
REMARK    7  A    between atoms: C_9  and  C_10
REMARK    8  A    between atoms: C_10  and  C_11
REMARK    9  A    between atoms: C_11  and  N_12
REMARK   10  A    between atoms: N_12  and  C_13
REMARK   11  A    between atoms: N_12  and  C_14
REMARK                            x       y       z     vdW  Elec       q    Type
REMARK                         _______ _______ _______ _____ _____    ______ ____
ROOT
ATOM      1  C   UNL     1       3.253   3.440  18.949  0.00  0.00    +0.000 A 
ATOM      2  C   UNL     1       3.940   4.123  17.940  0.00  0.00    +0.000 A 
ATOM      3  C   UNL     1       3.728   5.496  17.699  0.00  0.00    +0.000 A 
ATOM      4  C   UNL     1       2.803   6.180  18.501  0.00  0.00    +0.000 A 
ATOM      5 BR   UNL     1       2.452   8.036  18.297  0.00  0.00    +0.000 Br
ATOM      6  C   UNL     1       2.097   5.505  19.503  0.00  0.00    +0.000 A 
ATOM      7  C   UNL     1       2.318   4.142  19.719  0.00  0.00    +0.000 A 
ATOM      8 BR   UNL     1       1.333   3.294  21.105  0.00  0.00    +0.000 Br
ENDROOT
BRANCH   1  10
ATOM      9  C   UNL     1       3.893   1.297  18.145  0.00  0.00    +0.000 C 
ATOM     10  O   UNL     1       3.415   2.106  19.213  0.00  0.00    +0.000 OA
ENDBRANCH   1  10
BRANCH   3  11
ATOM     11  C   UNL     1       4.558   6.157  16.614  0.00  0.00    +0.000 C 
BRANCH  11  12
ATOM     12  C   UNL     1       6.049   5.841  16.789  0.00  0.00    +0.000 C 
BRANCH  12  13
ATOM     13  N   UNL     1       6.706   5.596  15.498  0.00  0.00    +0.000 NA
ATOM     14  H   UNL     1       7.704   5.795  15.577  0.00  0.00    +0.000 HD
BRANCH  13  15
ATOM     15  C   UNL     1       6.512   4.202  15.088  0.00  0.00    +0.000 C 
BRANCH  15  16
ATOM     16  C   UNL     1       5.688   4.111  13.801  0.00  0.00    +0.000 C 
BRANCH  16  17
ATOM     17  C   UNL     1       6.520   3.462  12.683  0.00  0.00    +0.000 C 
BRANCH  17  18
ATOM     18  N   UNL     1       5.727   2.969  11.543  0.00  0.00    +0.000 NA
ATOM     19  C   UNL     1       5.881   1.527  11.339  0.00  0.00    +0.000 C 
ATOM     20  C   UNL     1       4.309   3.284  11.751  0.00  0.00    +0.000 C 
ENDBRANCH  17  18
ENDBRANCH  16  17
ENDBRANCH  15  16
ENDBRANCH  13  15
ENDBRANCH  12  13
ENDBRANCH  11  12
ENDBRANCH   3  11
TORSDOF 8
ENDMDL
MODEL 5
REMARK VINA RESULT:      -5.8      1.985      2.681
REMARK  Name = 
REMARK  11 active torsions:
REMARK  status: ('A' for Active; 'I' for Inactive)
REMARK    1  A    between atoms: C_1  and  O_2
REMARK    2  A    between atoms: O_2  and  C_3
REMARK    3  A    between atoms: C_5  and  C_6
REMARK    4  A    between atoms: C_6  and  C_7
REMARK    5  A    between atoms: C_7  and  N_8
REMARK    6  A    between atoms: N_8  and  C_9
REMARK    7  A    between atoms: C_9  and  C_10
REMARK    8  A    between atoms: C_10  and  C_11
REMARK    9  A    between atoms: C_11  and  N_12
REMARK   10  A    between atoms: N_12  and  C_13
REMARK   11  A    between atoms: N_12  and  C_14
REMARK                            x       y       z     vdW  Elec       q    Type
REMARK                         _______ _______ _______ _____ _____    ______ ____
ROOT
ATOM      1  C   UNL     1       3.860   4.236  19.228  0.00  0.00    +0.000 A 
ATOM      2  C   UNL     1       5.036   4.964  19.018  0.00  0.00    +0.000 A 
ATOM      3  C   UNL     1       5.739   4.896  17.797  0.00  0.00    +0.000 A 
ATOM      4  C   UNL     1       5.233   4.076  16.779  0.00  0.00    +0.000 A 
ATOM      5 BR   UNL     1       6.069   3.924  15.080  0.00  0.00    +0.000 Br
ATOM      6  C   UNL     1       4.066   3.330  16.983  0.00  0.00    +0.000 A 
ATOM      7  C   UNL     1       3.389   3.408  18.203  0.00  0.00    +0.000 A 
ATOM      8 BR   UNL     1       1.804   2.379  18.404  0.00  0.00    +0.000 Br
ENDROOT
BRANCH   1  10
ATOM      9  C   UNL     1       2.228   5.332  20.566  0.00  0.00    +0.000 C 
ATOM     10  O   UNL     1       3.148   4.260  20.399  0.00  0.00    +0.000 OA
ENDBRANCH   1  10
BRANCH   3  11
ATOM     11  C   UNL     1       6.978   5.759  17.650  0.00  0.00    +0.000 C 
BRANCH  11  12
ATOM     12  C   UNL     1       6.603   7.232  17.433  0.00  0.00    +0.000 C 
BRANCH  12  13
ATOM     13  N   UNL     1       7.783   8.052  17.133  0.00  0.00    +0.000 NA
ATOM     14  H   UNL     1       7.521   8.815  16.507  0.00  0.00    +0.000 HD
BRANCH  13  15
ATOM     15  C   UNL     1       8.346   8.601  18.370  0.00  0.00    +0.000 C 
BRANCH  15  16
ATOM     16  C   UNL     1       8.818  10.045  18.173  0.00  0.00    +0.000 C 
BRANCH  16  17
ATOM     17  C   UNL     1       9.445  10.579  19.471  0.00  0.00    +0.000 C 
BRANCH  17  18
ATOM     18  N   UNL     1      10.155  11.862  19.320  0.00  0.00    +0.000 NA
ATOM     19  C   UNL     1      11.392  11.909  20.101  0.00  0.00    +0.000 C 
ATOM     20  C   UNL     1      10.462  12.096  17.905  0.00  0.00    +0.000 C 
ENDBRANCH  17  18
ENDBRANCH  16  17
ENDBRANCH  15  16
ENDBRANCH  13  15
ENDBRANCH  12  13
ENDBRANCH  11  12
ENDBRANCH   3  11
TORSDOF 8
ENDMDL
MODEL 6
REMARK VINA RESULT:      -5.8      3.904      5.405
REMARK  Name = 
REMARK  11 active torsions:
REMARK  status: ('A' for Active; 'I' for Inactive)
REMARK    1  A    between atoms: C_1  and  O_2
REMARK    2  A    between atoms: O_2  and  C_3
REMARK    3  A    between atoms: C_5  and  C_6
REMARK    4  A    between atoms: C_6  and  C_7
REMARK    5  A    between atoms: C_7  and  N_8
REMARK    6  A    between atoms: N_8  and  C_9
REMARK    7  A    between atoms: C_9  and  C_10
REMARK    8  A    between atoms: C_10  and  C_11
REMARK    9  A    between atoms: C_11  and  N_12
REMARK   10  A    between atoms: N_12  and  C_13
REMARK   11  A    between atoms: N_12  and  C_14
REMARK                            x       y       z     vdW  Elec       q    Type
REMARK                         _______ _______ _______ _____ _____    ______ ____
ROOT
ATOM      1  C   UNL     1       2.279   7.518  19.269  0.00  0.00    +0.000 A 
ATOM      2  C   UNL     1       2.887   6.401  18.684  0.00  0.00    +0.000 A 
ATOM      3  C   UNL     1       2.775   5.116  19.253  0.00  0.00    +0.000 A 
ATOM      4  C   UNL     1       2.032   4.970  20.433  0.00  0.00    +0.000 A 
ATOM      5 BR   UNL     1       1.781   3.288  21.279  0.00  0.00    +0.000 Br
ATOM      6  C   UNL     1       1.433   6.081  21.037  0.00  0.00    +0.000 A 
ATOM      7  C   UNL     1       1.563   7.347  20.459  0.00  0.00    +0.000 A 
ATOM      8 BR   UNL     1       0.711   8.808  21.326  0.00  0.00    +0.000 Br
ENDROOT
BRANCH   1  10
ATOM      9  C   UNL     1       1.519   9.097  17.663  0.00  0.00    +0.000 C 
ATOM     10  O   UNL     1       2.369   8.787  18.761  0.00  0.00    +0.000 OA
ENDBRANCH   1  10
BRANCH   3  11
ATOM     11  C   UNL     1       3.430   3.962  18.518  0.00  0.00    +0.000 C 
BRANCH  11  12
ATOM     12  C   UNL     1       4.637   3.422  19.298  0.00  0.00    +0.000 C 
BRANCH  12  13
ATOM     13  N   UNL     1       5.902   3.733  18.621  0.00  0.00    +0.000 NA
ATOM     14  H   UNL     1       5.804   3.572  17.618  0.00  0.00    +0.000 HD
BRANCH  13  15
ATOM     15  C   UNL     1       6.275   5.130  18.862  0.00  0.00    +0.000 C 
BRANCH  15  16
ATOM     16  C   UNL     1       7.464   5.546  17.989  0.00  0.00    +0.000 C 
BRANCH  16  17
ATOM     17  C   UNL     1       7.132   5.331  16.504  0.00  0.00    +0.000 C 
BRANCH  17  18
ATOM     18  N   UNL     1       5.690   5.313  16.199  0.00  0.00    +0.000 NA
ATOM     19  C   UNL     1       5.189   6.629  15.799  0.00  0.00    +0.000 C 
ATOM     20  C   UNL     1       5.420   4.342  15.133  0.00  0.00    +0.000 C 
ENDBRANCH  17  18
ENDBRANCH  16  17
ENDBRANCH  15  16
ENDBRANCH  13  15
ENDBRANCH  12  13
ENDBRANCH  11  12
ENDBRANCH   3  11
TORSDOF 8
ENDMDL
MODEL 7
REMARK VINA RESULT:      -5.8      4.889      7.670
REMARK  Name = 
REMARK  11 active torsions:
REMARK  status: ('A' for Active; 'I' for Inactive)
REMARK    1  A    between atoms: C_1  and  O_2
REMARK    2  A    between atoms: O_2  and  C_3
REMARK    3  A    between atoms: C_5  and  C_6
REMARK    4  A    between atoms: C_6  and  C_7
REMARK    5  A    between atoms: C_7  and  N_8
REMARK    6  A    between atoms: N_8  and  C_9
REMARK    7  A    between atoms: C_9  and  C_10
REMARK    8  A    between atoms: C_10  and  C_11
REMARK    9  A    between atoms: C_11  and  N_12
REMARK   10  A    between atoms: N_12  and  C_13
REMARK   11  A    between atoms: N_12  and  C_14
REMARK                            x       y       z     vdW  Elec       q    Type
REMARK                         _______ _______ _______ _____ _____    ______ ____
ROOT
ATOM      1  C   UNL     1       5.559   6.477  16.848  0.00  0.00    +0.000 A 
ATOM      2  C   UNL     1       4.553   7.093  17.602  0.00  0.00    +0.000 A 
ATOM      3  C   UNL     1       3.382   6.403  17.976  0.00  0.00    +0.000 A 
ATOM      4  C   UNL     1       3.236   5.067  17.576  0.00  0.00    +0.000 A 
ATOM      5 BR   UNL     1       1.722   4.021  18.043  0.00  0.00    +0.000 Br
ATOM      6  C   UNL     1       4.227   4.445  16.808  0.00  0.00    +0.000 A 
ATOM      7  C   UNL     1       5.377   5.150  16.443  0.00  0.00    +0.000 A 
ATOM      8 BR   UNL     1       6.686   4.237  15.411  0.00  0.00    +0.000 Br
ENDROOT
BRANCH   1  10
ATOM      9  C   UNL     1       7.613   7.493  17.479  0.00  0.00    +0.000 C 
ATOM     10  O   UNL     1       6.708   7.109  16.451  0.00  0.00    +0.000 OA
ENDBRANCH   1  10
BRANCH   3  11
ATOM     11  C   UNL     1       2.373   7.143  18.834  0.00  0.00    +0.000 C 
BRANCH  11  12
ATOM     12  C   UNL     1       1.987   8.486  18.200  0.00  0.00    +0.000 C 
BRANCH  12  13
ATOM     13  N   UNL     1       1.204   9.316  19.123  0.00  0.00    +0.000 NA
ATOM     14  H   UNL     1       1.819   9.717  19.832  0.00  0.00    +0.000 HD
BRANCH  13  15
ATOM     15  C   UNL     1       0.530  10.392  18.390  0.00  0.00    +0.000 C 
BRANCH  15  16
ATOM     16  C   UNL     1      -0.973  10.408  18.684  0.00  0.00    +0.000 C 
BRANCH  16  17
ATOM     17  C   UNL     1      -1.762   9.971  17.438  0.00  0.00    +0.000 C 
BRANCH  17  18
ATOM     18  N   UNL     1      -2.625  11.021  16.866  0.00  0.00    +0.000 NA
ATOM     19  C   UNL     1      -2.853  10.834  15.432  0.00  0.00    +0.000 C 
ATOM     20  C   UNL     1      -3.913  11.040  17.567  0.00  0.00    +0.000 C 
ENDBRANCH  17  18
ENDBRANCH  16  17
ENDBRANCH  15  16
ENDBRANCH  13  15
ENDBRANCH  12  13
ENDBRANCH  11  12
ENDBRANCH   3  11
TORSDOF 8
ENDMDL
MODEL 8
REMARK VINA RESULT:      -5.8      2.207      2.964
REMARK  Name = 
REMARK  11 active torsions:
REMARK  status: ('A' for Active; 'I' for Inactive)
REMARK    1  A    between atoms: C_1  and  O_2
REMARK    2  A    between atoms: O_2  and  C_3
REMARK    3  A    between atoms: C_5  and  C_6
REMARK    4  A    between atoms: C_6  and  C_7
REMARK    5  A    between atoms: C_7  and  N_8
REMARK    6  A    between atoms: N_8  and  C_9
REMARK    7  A    between atoms: C_9  and  C_10
REMARK    8  A    between atoms: C_10  and  C_11
REMARK    9  A    between atoms: C_11  and  N_12
REMARK   10  A    between atoms: N_12  and  C_13
REMARK   11  A    between atoms: N_12  and  C_14
REMARK                            x       y       z     vdW  Elec       q    Type
REMARK                         _______ _______ _______ _____ _____    ______ ____
ROOT
ATOM      1  C   UNL     1       4.030   4.664  19.143  0.00  0.00    +0.000 A 
ATOM      2  C   UNL     1       5.318   5.208  19.207  0.00  0.00    +0.000 A 
ATOM      3  C   UNL     1       6.192   5.170  18.102  0.00  0.00    +0.000 A 
ATOM      4  C   UNL     1       5.745   4.569  16.916  0.00  0.00    +0.000 A 
ATOM      5 BR   UNL     1       6.815   4.484  15.349  0.00  0.00    +0.000 Br
ATOM      6  C   UNL     1       4.465   4.008  16.845  0.00  0.00    +0.000 A 
ATOM      7  C   UNL     1       3.618   4.051  17.954  0.00  0.00    +0.000 A 
ATOM      8 BR   UNL     1       1.889   3.280  17.781  0.00  0.00    +0.000 Br
ENDROOT
BRANCH   1  10
ATOM      9  C   UNL     1       2.288   5.794  20.301  0.00  0.00    +0.000 C 
ATOM     10  O   UNL     1       3.149   4.667  20.193  0.00  0.00    +0.000 OA
ENDBRANCH   1  10
BRANCH   3  11
ATOM     11  C   UNL     1       7.550   5.829  18.256  0.00  0.00    +0.000 C 
BRANCH  11  12
ATOM     12  C   UNL     1       7.521   7.278  17.752  0.00  0.00    +0.000 C 
BRANCH  12  13
ATOM     13  N   UNL     1       8.456   8.129  18.498  0.00  0.00    +0.000 NA
ATOM     14  H   UNL     1       9.415   7.839  18.305  0.00  0.00    +0.000 HD
BRANCH  13  15
ATOM     15  C   UNL     1       8.280   9.533  18.114  0.00  0.00    +0.000 C 
BRANCH  15  16
ATOM     16  C   UNL     1       9.219  10.448  18.906  0.00  0.00    +0.000 C 
BRANCH  16  17
ATOM     17  C   UNL     1      10.176  11.180  17.952  0.00  0.00    +0.000 C 
BRANCH  17  18
ATOM     18  N   UNL     1       9.843  12.598  17.726  0.00  0.00    +0.000 NA
ATOM     19  C   UNL     1       8.917  13.120  18.733  0.00  0.00    +0.000 C 
ATOM     20  C   UNL     1      11.071  13.402  17.728  0.00  0.00    +0.000 C 
ENDBRANCH  17  18
ENDBRANCH  16  17
ENDBRANCH  15  16
ENDBRANCH  13  15
ENDBRANCH  12  13
ENDBRANCH  11  12
ENDBRANCH   3  11
TORSDOF 8
ENDMDL
MODEL 9
REMARK VINA RESULT:      -5.8      3.195      5.069
REMARK  Name = 
REMARK  11 active torsions:
REMARK  status: ('A' for Active; 'I' for Inactive)
REMARK    1  A    between atoms: C_1  and  O_2
REMARK    2  A    between atoms: O_2  and  C_3
REMARK    3  A    between atoms: C_5  and  C_6
REMARK    4  A    between atoms: C_6  and  C_7
REMARK    5  A    between atoms: C_7  and  N_8
REMARK    6  A    between atoms: N_8  and  C_9
REMARK    7  A    between atoms: C_9  and  C_10
REMARK    8  A    between atoms: C_10  and  C_11
REMARK    9  A    between atoms: C_11  and  N_12
REMARK   10  A    between atoms: N_12  and  C_13
REMARK   11  A    between atoms: N_12  and  C_14
REMARK                            x       y       z     vdW  Elec       q    Type
REMARK                         _______ _______ _______ _____ _____    ______ ____
ROOT
ATOM      1  C   UNL     1       2.203   7.228  18.886  0.00  0.00    +0.000 A 
ATOM      2  C   UNL     1       2.371   6.119  18.050  0.00  0.00    +0.000 A 
ATOM      3  C   UNL     1       2.112   4.808  18.500  0.00  0.00    +0.000 A 
ATOM      4  C   UNL     1       1.676   4.629  19.821  0.00  0.00    +0.000 A 
ATOM      5 BR   UNL     1       1.264   2.918  20.536  0.00  0.00    +0.000 Br
ATOM      6  C   UNL     1       1.520   5.729  20.672  0.00  0.00    +0.000 A 
ATOM      7  C   UNL     1       1.789   7.018  20.207  0.00  0.00    +0.000 A 
ATOM      8 BR   UNL     1       1.543   8.466  21.414  0.00  0.00    +0.000 Br
ENDROOT
BRANCH   1  10
ATOM      9  C   UNL     1       1.413   9.186  17.793  0.00  0.00    +0.000 C 
ATOM     10  O   UNL     1       2.453   8.519  18.499  0.00  0.00    +0.000 OA
ENDBRANCH   1  10
BRANCH   3  11
ATOM     11  C   UNL     1       2.277   3.676  17.504  0.00  0.00    +0.000 C 
BRANCH  11  12
ATOM     12  C   UNL     1       3.468   2.782  17.874  0.00  0.00    +0.000 C 
BRANCH  12  13
ATOM     13  N   UNL     1       4.735   3.522  17.828  0.00  0.00    +0.000 NA
ATOM     14  H   UNL     1       4.593   4.419  17.362  0.00  0.00    +0.000 HD
BRANCH  13  15
ATOM     15  C   UNL     1       5.241   3.746  19.185  0.00  0.00    +0.000 C 
BRANCH  15  16
ATOM     16  C   UNL     1       5.736   5.184  19.364  0.00  0.00    +0.000 C 
BRANCH  16  17
ATOM     17  C   UNL     1       5.761   5.908  18.008  0.00  0.00    +0.000 C 
BRANCH  17  18
ATOM     18  N   UNL     1       7.086   5.944  17.362  0.00  0.00    +0.000 NA
ATOM     19  C   UNL     1       7.050   5.436  15.989  0.00  0.00    +0.000 C 
ATOM     20  C   UNL     1       7.601   7.318  17.362  0.00  0.00    +0.000 C 
ENDBRANCH  17  18
ENDBRANCH  16  17
ENDBRANCH  15  16
ENDBRANCH  13  15
ENDBRANCH  12  13
ENDBRANCH  11  12
ENDBRANCH   3  11
TORSDOF 8
ENDMDL
