MODEL 1
REMARK VINA RESULT:      -8.3      0.000      0.000
REMARK  Name = 
REMARK  6 active torsions:
REMARK  status: ('A' for Active; 'I' for Inactive)
REMARK    1  A    between atoms: C_1  and  C_2
REMARK    2  A    between atoms: C_5  and  C_6
REMARK    3  A    between atoms: N_8  and  C_9
REMARK    4  A    between atoms: C_9  and  C_10
REMARK    5  A    between atoms: C_10  and  C_11
REMARK    6  A    between atoms: C_10  and  N_18
REMARK                            x       y       z     vdW  Elec       q    Type
REMARK                         _______ _______ _______ _____ _____    ______ ____
ROOT
ATOM      1  C   UNL     1       4.119   4.290  18.195  0.00  0.00    +0.000 C 
ENDROOT
BRANCH   1   2
ATOM      2  C   UNL     1       5.149   4.370  17.042  0.00  0.00    +0.000 A 
ATOM      3  C   UNL     1       6.522   4.588  17.256  0.00  0.00    +0.000 A 
ATOM      4  C   UNL     1       7.398   4.819  16.191  0.00  0.00    +0.000 A 
ATOM      5  C   UNL     1       6.921   4.788  14.890  0.00  0.00    +0.000 A 
ATOM      6  F   UNL     1       7.758   5.024  13.872  0.00  0.00    +0.000 F 
ATOM      7  C   UNL     1       5.582   4.520  14.636  0.00  0.00    +0.000 A 
ATOM      8  C   UNL     1       4.700   4.322  15.704  0.00  0.00    +0.000 A 
ENDBRANCH   1   2
BRANCH   1   9
ATOM      9  N   UNL     1       3.829   2.888  18.588  0.00  0.00    +0.000 NA
ATOM     10  C   UNL     1       2.602   2.311  18.003  0.00  0.00    +0.000 C 
ATOM     11  C   UNL     1       1.315   2.481  18.834  0.00  0.00    +0.000 C 
ATOM     12  O   UNL     1       1.501   2.039  20.180  0.00  0.00    +0.000 OA
ATOM     13  C   UNL     1       2.579   2.746  20.803  0.00  0.00    +0.000 C 
ATOM     14  C   UNL     1       3.895   2.568  20.025  0.00  0.00    +0.000 C 
ENDBRANCH   1   9
BRANCH   1  15
ATOM     15  C   UNL     1       4.367   5.282  19.372  0.00  0.00    +0.000 C 
BRANCH  15  18
ATOM     16  C   UNL     1       3.127   7.296  18.657  0.00  0.00    +0.000 C 
ATOM     17  O   UNL     1       3.781   7.418  17.633  0.00  0.00    +0.000 OA
ATOM     18  N   UNL     1       3.326   6.276  19.570  0.00  0.00    +0.000 N 
ATOM     19  H   UNL     1       2.742   6.203  20.392  0.00  0.00    +0.000 HD
BRANCH  16  24
ATOM     20  C   UNL     1      -1.003  11.124  19.977  0.00  0.00    +0.000 C 
ATOM     21  C   UNL     1       0.001  10.068  19.620  0.00  0.00    +0.000 A 
ATOM     22  C   UNL     1       0.527   9.212  20.595  0.00  0.00    +0.000 A 
ATOM     23  C   UNL     1       1.515   8.283  20.260  0.00  0.00    +0.000 A 
ATOM     24  C   UNL     1       1.995   8.213  18.946  0.00  0.00    +0.000 A 
ATOM     25  C   UNL     1       1.430   9.027  17.958  0.00  0.00    +0.000 A 
ATOM     26  C   UNL     1       0.445   9.954  18.296  0.00  0.00    +0.000 A 
ENDBRANCH  16  24
ENDBRANCH  15  18
ENDBRANCH   1  15
TORSDOF 5
ENDMDL
MODEL 2
REMARK VINA RESULT:      -8.2      3.075      4.893
REMARK  Name = 
REMARK  6 active torsions:
REMARK  status: ('A' for Active; 'I' for Inactive)
REMARK    1  A    between atoms: C_1  and  C_2
REMARK    2  A    between atoms: C_5  and  C_6
REMARK    3  A    between atoms: N_8  and  C_9
REMARK    4  A    between atoms: C_9  and  C_10
REMARK    5  A    between atoms: C_10  and  C_11
REMARK    6  A    between atoms: C_10  and  N_18
REMARK                            x       y       z     vdW  Elec       q    Type
REMARK                         _______ _______ _______ _____ _____    ______ ____
ROOT
ATOM      1  C   UNL     1       3.847   6.048  18.020  0.00  0.00    +0.000 C 
ENDROOT
BRANCH   1   2
ATOM      2  C   UNL     1       3.011   5.032  18.835  0.00  0.00    +0.000 A 
ATOM      3  C   UNL     1       1.974   4.267  18.272  0.00  0.00    +0.000 A 
ATOM      4  C   UNL     1       1.133   3.483  19.067  0.00  0.00    +0.000 A 
ATOM      5  C   UNL     1       1.347   3.414  20.434  0.00  0.00    +0.000 A 
ATOM      6  F   UNL     1       0.532   2.674  21.196  0.00  0.00    +0.000 F 
ATOM      7  C   UNL     1       2.396   4.111  21.020  0.00  0.00    +0.000 A 
ATOM      8  C   UNL     1       3.217   4.923  20.228  0.00  0.00    +0.000 A 
ENDBRANCH   1   2
BRANCH   1   9
ATOM      9  N   UNL     1       4.613   5.394  16.929  0.00  0.00    +0.000 NA
ATOM     10  C   UNL     1       5.414   4.222  17.338  0.00  0.00    +0.000 C 
ATOM     11  C   UNL     1       6.868   4.514  17.761  0.00  0.00    +0.000 C 
ATOM     12  O   UNL     1       7.552   5.287  16.774  0.00  0.00    +0.000 OA
ATOM     13  C   UNL     1       6.863   6.517  16.523  0.00  0.00    +0.000 C 
ATOM     14  C   UNL     1       5.417   6.269  16.058  0.00  0.00    +0.000 C 
ENDBRANCH   1   9
BRANCH   1  15
ATOM     15  C   UNL     1       3.093   7.355  17.623  0.00  0.00    +0.000 C 
BRANCH  15  18
ATOM     16  C   UNL     1       1.733   9.202  18.543  0.00  0.00    +0.000 C 
ATOM     17  O   UNL     1       1.894   9.902  17.555  0.00  0.00    +0.000 OA
ATOM     18  N   UNL     1       2.268   7.933  18.671  0.00  0.00    +0.000 N 
ATOM     19  H   UNL     1       2.086   7.382  19.500  0.00  0.00    +0.000 HD
BRANCH  16  24
ATOM     20  C   UNL     1      -1.307  11.080  23.090  0.00  0.00    +0.000 C 
ATOM     21  C   UNL     1      -0.594  10.545  21.884  0.00  0.00    +0.000 A 
ATOM     22  C   UNL     1       0.109   9.335  21.939  0.00  0.00    +0.000 A 
ATOM     23  C   UNL     1       0.829   8.887  20.829  0.00  0.00    +0.000 A 
ATOM     24  C   UNL     1       0.862   9.654  19.658  0.00  0.00    +0.000 A 
ATOM     25  C   UNL     1       0.113  10.834  19.581  0.00  0.00    +0.000 A 
ATOM     26  C   UNL     1      -0.603  11.279  20.692  0.00  0.00    +0.000 A 
ENDBRANCH  16  24
ENDBRANCH  15  18
ENDBRANCH   1  15
TORSDOF 5
ENDMDL
MODEL 3
REMARK VINA RESULT:      -8.1      0.939      1.315
REMARK  Name = 
REMARK  6 active torsions:
REMARK  status: ('A' for Active; 'I' for Inactive)
REMARK    1  A    between atoms: C_1  and  C_2
REMARK    2  A    between atoms: C_5  and  C_6
REMARK    3  A    between atoms: N_8  and  C_9
REMARK    4  A    between atoms: C_9  and  C_10
REMARK    5  A    between atoms: C_10  and  C_11
REMARK    6  A    between atoms: C_10  and  N_18
REMARK                            x       y       z     vdW  Elec       q    Type
REMARK                         _______ _______ _______ _____ _____    ______ ____
ROOT
ATOM      1  C   UNL     1       4.179   4.288  18.038  0.00  0.00    +0.000 C 
ENDROOT
BRANCH   1   2
ATOM      2  C   UNL     1       5.217   4.427  16.898  0.00  0.00    +0.000 A 
ATOM      3  C   UNL     1       6.468   5.045  17.073  0.00  0.00    +0.000 A 
ATOM      4  C   UNL     1       7.312   5.300  15.987  0.00  0.00    +0.000 A 
ATOM      5  C   UNL     1       6.937   4.898  14.715  0.00  0.00    +0.000 A 
ATOM      6  F   UNL     1       7.739   5.156  13.675  0.00  0.00    +0.000 F 
ATOM      7  C   UNL     1       5.734   4.234  14.511  0.00  0.00    +0.000 A 
ATOM      8  C   UNL     1       4.875   4.009  15.593  0.00  0.00    +0.000 A 
ENDBRANCH   1   2
BRANCH   1   9
ATOM      9  N   UNL     1       3.907   2.869  18.376  0.00  0.00    +0.000 NA
ATOM     10  C   UNL     1       2.625   2.336  17.870  0.00  0.00    +0.000 C 
ATOM     11  C   UNL     1       1.419   2.469  18.820  0.00  0.00    +0.000 C 
ATOM     12  O   UNL     1       1.716   1.949  20.117  0.00  0.00    +0.000 OA
ATOM     13  C   UNL     1       2.854   2.610  20.681  0.00  0.00    +0.000 C 
ATOM     14  C   UNL     1       4.094   2.467  19.781  0.00  0.00    +0.000 C 
ENDBRANCH   1   9
BRANCH   1  15
ATOM     15  C   UNL     1       4.405   5.239  19.254  0.00  0.00    +0.000 C 
BRANCH  15  18
ATOM     16  C   UNL     1       2.421   6.660  19.647  0.00  0.00    +0.000 C 
ATOM     17  O   UNL     1       1.792   5.754  20.171  0.00  0.00    +0.000 OA
ATOM     18  N   UNL     1       3.714   6.515  19.175  0.00  0.00    +0.000 N 
ATOM     19  H   UNL     1       4.203   7.303  18.771  0.00  0.00    +0.000 HD
BRANCH  16  24
ATOM     20  C   UNL     1      -0.124  11.822  19.076  0.00  0.00    +0.000 C 
ATOM     21  C   UNL     1       0.614  10.527  19.249  0.00  0.00    +0.000 A 
ATOM     22  C   UNL     1       1.324   9.953  18.187  0.00  0.00    +0.000 A 
ATOM     23  C   UNL     1       1.945   8.712  18.342  0.00  0.00    +0.000 A 
ATOM     24  C   UNL     1       1.849   8.028  19.560  0.00  0.00    +0.000 A 
ATOM     25  C   UNL     1       1.190   8.625  20.640  0.00  0.00    +0.000 A 
ATOM     26  C   UNL     1       0.570   9.863  20.481  0.00  0.00    +0.000 A 
ENDBRANCH  16  24
ENDBRANCH  15  18
ENDBRANCH   1  15
TORSDOF 5
ENDMDL
MODEL 4
REMARK VINA RESULT:      -8.0      3.056      4.758
REMARK  Name = 
REMARK  6 active torsions:
REMARK  status: ('A' for Active; 'I' for Inactive)
REMARK    1  A    between atoms: C_1  and  C_2
REMARK    2  A    between atoms: C_5  and  C_6
REMARK    3  A    between atoms: N_8  and  C_9
REMARK    4  A    between atoms: C_9  and  C_10
REMARK    5  A    between atoms: C_10  and  C_11
REMARK    6  A    between atoms: C_10  and  N_18
REMARK                            x       y       z     vdW  Elec       q    Type
REMARK                         _______ _______ _______ _____ _____    ______ ____
ROOT
ATOM      1  C   UNL     1       3.846   6.160  18.130  0.00  0.00    +0.000 C 
ENDROOT
BRANCH   1   2
ATOM      2  C   UNL     1       2.834   5.159  18.738  0.00  0.00    +0.000 A 
ATOM      3  C   UNL     1       2.754   4.892  20.116  0.00  0.00    +0.000 A 
ATOM      4  C   UNL     1       1.945   3.866  20.614  0.00  0.00    +0.000 A 
ATOM      5  C   UNL     1       1.165   3.122  19.743  0.00  0.00    +0.000 A 
ATOM      6  F   UNL     1       0.402   2.130  20.219  0.00  0.00    +0.000 F 
ATOM      7  C   UNL     1       1.174   3.393  18.381  0.00  0.00    +0.000 A 
ATOM      8  C   UNL     1       2.010   4.398  17.880  0.00  0.00    +0.000 A 
ENDBRANCH   1   2
BRANCH   1   9
ATOM      9  N   UNL     1       4.688   5.534  17.080  0.00  0.00    +0.000 NA
ATOM     10  C   UNL     1       5.491   4.376  17.522  0.00  0.00    +0.000 C 
ATOM     11  C   UNL     1       6.911   4.695  18.030  0.00  0.00    +0.000 C 
ATOM     12  O   UNL     1       7.633   5.494  17.091  0.00  0.00    +0.000 OA
ATOM     13  C   UNL     1       6.931   6.711  16.813  0.00  0.00    +0.000 C 
ATOM     14  C   UNL     1       5.520   6.436  16.264  0.00  0.00    +0.000 C 
ENDBRANCH   1   9
BRANCH   1  15
ATOM     15  C   UNL     1       3.259   7.560  17.778  0.00  0.00    +0.000 C 
BRANCH  15  18
ATOM     16  C   UNL     1       1.678   9.297  18.549  0.00  0.00    +0.000 C 
ATOM     17  O   UNL     1       1.686   9.877  17.475  0.00  0.00    +0.000 OA
ATOM     18  N   UNL     1       2.405   8.145  18.798  0.00  0.00    +0.000 N 
ATOM     19  H   UNL     1       2.346   7.687  19.697  0.00  0.00    +0.000 HD
BRANCH  16  24
ATOM     20  C   UNL     1      -1.388  11.222  23.059  0.00  0.00    +0.000 C 
ATOM     21  C   UNL     1      -0.668  10.675  21.863  0.00  0.00    +0.000 A 
ATOM     22  C   UNL     1       0.035   9.465  21.934  0.00  0.00    +0.000 A 
ATOM     23  C   UNL     1       0.762   9.006  20.833  0.00  0.00    +0.000 A 
ATOM     24  C   UNL     1       0.801   9.760  19.654  0.00  0.00    +0.000 A 
ATOM     25  C   UNL     1       0.052  10.939  19.561  0.00  0.00    +0.000 A 
ATOM     26  C   UNL     1      -0.670  11.396  20.663  0.00  0.00    +0.000 A 
ENDBRANCH  16  24
ENDBRANCH  15  18
ENDBRANCH   1  15
TORSDOF 5
ENDMDL
MODEL 5
REMARK VINA RESULT:      -8.0      1.216      1.493
REMARK  Name = 
REMARK  6 active torsions:
REMARK  status: ('A' for Active; 'I' for Inactive)
REMARK    1  A    between atoms: C_1  and  C_2
REMARK    2  A    between atoms: C_5  and  C_6
REMARK    3  A    between atoms: N_8  and  C_9
REMARK    4  A    between atoms: C_9  and  C_10
REMARK    5  A    between atoms: C_10  and  C_11
REMARK    6  A    between atoms: C_10  and  N_18
REMARK                            x       y       z     vdW  Elec       q    Type
REMARK                         _______ _______ _______ _____ _____    ______ ____
ROOT
ATOM      1  C   UNL     1       3.301   4.806  18.317  0.00  0.00    +0.000 C 
ENDROOT
BRANCH   1   2
ATOM      2  C   UNL     1       4.244   4.825  17.090  0.00  0.00    +0.000 A 
ATOM      3  C   UNL     1       4.785   3.658  16.521  0.00  0.00    +0.000 A 
ATOM      4  C   UNL     1       5.759   3.720  15.520  0.00  0.00    +0.000 A 
ATOM      5  C   UNL     1       6.173   4.951  15.039  0.00  0.00    +0.000 A 
ATOM      6  F   UNL     1       7.116   5.009  14.090  0.00  0.00    +0.000 F 
ATOM      7  C   UNL     1       5.620   6.125  15.535  0.00  0.00    +0.000 A 
ATOM      8  C   UNL     1       4.670   6.064  16.561  0.00  0.00    +0.000 A 
ENDBRANCH   1   2
BRANCH   1   9
ATOM      9  N   UNL     1       2.748   3.453  18.576  0.00  0.00    +0.000 NA
ATOM     10  C   UNL     1       1.276   3.384  18.683  0.00  0.00    +0.000 C 
ATOM     11  C   UNL     1       0.696   3.551  20.101  0.00  0.00    +0.000 C 
ATOM     12  O   UNL     1       1.322   2.662  21.029  0.00  0.00    +0.000 OA
ATOM     13  C   UNL     1       2.738   2.871  21.055  0.00  0.00    +0.000 C 
ATOM     14  C   UNL     1       3.364   2.673  19.663  0.00  0.00    +0.000 C 
ENDBRANCH   1   9
BRANCH   1  15
ATOM     15  C   UNL     1       3.834   5.566  19.570  0.00  0.00    +0.000 C 
BRANCH  15  18
ATOM     16  C   UNL     1       2.406   7.578  19.432  0.00  0.00    +0.000 C 
ATOM     17  O   UNL     1       2.692   7.783  18.263  0.00  0.00    +0.000 OA
ATOM     18  N   UNL     1       2.901   6.511  20.161  0.00  0.00    +0.000 N 
ATOM     19  H   UNL     1       2.615   6.370  21.121  0.00  0.00    +0.000 HD
BRANCH  16  24
ATOM     20  C   UNL     1      -1.120  11.084  22.387  0.00  0.00    +0.000 C 
ATOM     21  C   UNL     1      -0.280  10.126  21.595  0.00  0.00    +0.000 A 
ATOM     22  C   UNL     1       0.234   8.962  22.180  0.00  0.00    +0.000 A 
ATOM     23  C   UNL     1       1.074   8.117  21.451  0.00  0.00    +0.000 A 
ATOM     24  C   UNL     1       1.417   8.438  20.132  0.00  0.00    +0.000 A 
ATOM     25  C   UNL     1       0.859   9.569  19.526  0.00  0.00    +0.000 A 
ATOM     26  C   UNL     1       0.022  10.411  20.258  0.00  0.00    +0.000 A 
ENDBRANCH  16  24
ENDBRANCH  15  18
ENDBRANCH   1  15
TORSDOF 5
ENDMDL
MODEL 6
REMARK VINA RESULT:      -7.9      3.012      4.950
REMARK  Name = 
REMARK  6 active torsions:
REMARK  status: ('A' for Active; 'I' for Inactive)
REMARK    1  A    between atoms: C_1  and  C_2
REMARK    2  A    between atoms: C_5  and  C_6
REMARK    3  A    between atoms: N_8  and  C_9
REMARK    4  A    between atoms: C_9  and  C_10
REMARK    5  A    between atoms: C_10  and  C_11
REMARK    6  A    between atoms: C_10  and  N_18
REMARK                            x       y       z     vdW  Elec       q    Type
REMARK                         _______ _______ _______ _____ _____    ______ ____
ROOT
ATOM      1  C   UNL     1       4.114   5.456  18.639  0.00  0.00    +0.000 C 
ENDROOT
BRANCH   1   2
ATOM      2  C   UNL     1       3.191   4.531  19.467  0.00  0.00    +0.000 A 
ATOM      3  C   UNL     1       1.802   4.728  19.569  0.00  0.00    +0.000 A 
ATOM      4  C   UNL     1       1.023   3.975  20.454  0.00  0.00    +0.000 A 
ATOM      5  C   UNL     1       1.614   2.982  21.216  0.00  0.00    +0.000 A 
ATOM      6  F   UNL     1       0.870   2.272  22.074  0.00  0.00    +0.000 F 
ATOM      7  C   UNL     1       2.974   2.719  21.102  0.00  0.00    +0.000 A 
ATOM      8  C   UNL     1       3.759   3.495  20.241  0.00  0.00    +0.000 A 
ENDBRANCH   1   2
BRANCH   1   9
ATOM      9  N   UNL     1       5.018   4.689  17.745  0.00  0.00    +0.000 NA
ATOM     10  C   UNL     1       6.453   4.762  18.087  0.00  0.00    +0.000 C 
ATOM     11  C   UNL     1       7.251   5.892  17.407  0.00  0.00    +0.000 C 
ATOM     12  O   UNL     1       7.058   5.887  15.991  0.00  0.00    +0.000 OA
ATOM     13  C   UNL     1       5.669   6.010  15.667  0.00  0.00    +0.000 C 
ATOM     14  C   UNL     1       4.841   4.875  16.294  0.00  0.00    +0.000 C 
ENDBRANCH   1   9
BRANCH   1  15
ATOM     15  C   UNL     1       3.406   6.683  17.988  0.00  0.00    +0.000 C 
BRANCH  15  18
ATOM     16  C   UNL     1       1.977   8.641  18.471  0.00  0.00    +0.000 C 
ATOM     17  O   UNL     1       2.078   9.080  17.336  0.00  0.00    +0.000 OA
ATOM     18  N   UNL     1       2.579   7.467  18.889  0.00  0.00    +0.000 N 
ATOM     19  H   UNL     1       2.445   7.132  19.834  0.00  0.00    +0.000 HD
BRANCH  16  24
ATOM     20  C   UNL     1      -1.038  11.424  22.546  0.00  0.00    +0.000 C 
ATOM     21  C   UNL     1      -0.333  10.652  21.471  0.00  0.00    +0.000 A 
ATOM     22  C   UNL     1       0.339   9.458  21.762  0.00  0.00    +0.000 A 
ATOM     23  C   UNL     1       1.053   8.790  20.766  0.00  0.00    +0.000 A 
ATOM     24  C   UNL     1       1.112   9.318  19.470  0.00  0.00    +0.000 A 
ATOM     25  C   UNL     1       0.393  10.479  19.163  0.00  0.00    +0.000 A 
ATOM     26  C   UNL     1      -0.316  11.145  20.161  0.00  0.00    +0.000 A 
ENDBRANCH  16  24
ENDBRANCH  15  18
ENDBRANCH   1  15
TORSDOF 5
ENDMDL
MODEL 7
REMARK VINA RESULT:      -7.9      2.600      6.617
REMARK  Name = 
REMARK  6 active torsions:
REMARK  status: ('A' for Active; 'I' for Inactive)
REMARK    1  A    between atoms: C_1  and  C_2
REMARK    2  A    between atoms: C_5  and  C_6
REMARK    3  A    between atoms: N_8  and  C_9
REMARK    4  A    between atoms: C_9  and  C_10
REMARK    5  A    between atoms: C_10  and  C_11
REMARK    6  A    between atoms: C_10  and  N_18
REMARK                            x       y       z     vdW  Elec       q    Type
REMARK                         _______ _______ _______ _____ _____    ______ ____
ROOT
ATOM      1  C   UNL     1       2.914   5.777  19.781  0.00  0.00    +0.000 C 
ENDROOT
BRANCH   1   2
ATOM      2  C   UNL     1       2.337   7.185  19.497  0.00  0.00    +0.000 A 
ATOM      3  C   UNL     1       1.682   7.956  20.474  0.00  0.00    +0.000 A 
ATOM      4  C   UNL     1       1.030   9.148  20.145  0.00  0.00    +0.000 A 
ATOM      5  C   UNL     1       1.064   9.613  18.840  0.00  0.00    +0.000 A 
ATOM      6  F   UNL     1       0.426  10.747  18.524  0.00  0.00    +0.000 F 
ATOM      7  C   UNL     1       1.749   8.909  17.858  0.00  0.00    +0.000 A 
ATOM      8  C   UNL     1       2.373   7.698  18.181  0.00  0.00    +0.000 A 
ENDBRANCH   1   2
BRANCH   1   9
ATOM      9  N   UNL     1       2.023   4.698  19.286  0.00  0.00    +0.000 NA
ATOM     10  C   UNL     1       0.953   4.288  20.217  0.00  0.00    +0.000 C 
ATOM     11  C   UNL     1       1.301   3.133  21.177  0.00  0.00    +0.000 C 
ATOM     12  O   UNL     1       1.827   2.009  20.471  0.00  0.00    +0.000 OA
ATOM     13  C   UNL     1       2.986   2.379  19.716  0.00  0.00    +0.000 C 
ATOM     14  C   UNL     1       2.671   3.504  18.714  0.00  0.00    +0.000 C 
ENDBRANCH   1   9
BRANCH   1  15
ATOM     15  C   UNL     1       4.428   5.606  19.449  0.00  0.00    +0.000 C 
BRANCH  15  18
ATOM     16  C   UNL     1       5.912   4.833  17.629  0.00  0.00    +0.000 C 
ATOM     17  O   UNL     1       6.746   4.394  18.405  0.00  0.00    +0.000 OA
ATOM     18  N   UNL     1       4.735   5.435  18.039  0.00  0.00    +0.000 N 
ATOM     19  H   UNL     1       4.062   5.761  17.357  0.00  0.00    +0.000 HD
BRANCH  16  24
ATOM     20  C   UNL     1       6.856   3.888  12.002  0.00  0.00    +0.000 C 
ATOM     21  C   UNL     1       6.571   4.214  13.438  0.00  0.00    +0.000 A 
ATOM     22  C   UNL     1       7.488   4.939  14.210  0.00  0.00    +0.000 A 
ATOM     23  C   UNL     1       7.241   5.171  15.566  0.00  0.00    +0.000 A 
ATOM     24  C   UNL     1       6.079   4.667  16.163  0.00  0.00    +0.000 A 
ATOM     25  C   UNL     1       5.135   3.993  15.381  0.00  0.00    +0.000 A 
ATOM     26  C   UNL     1       5.385   3.762  14.029  0.00  0.00    +0.000 A 
ENDBRANCH  16  24
ENDBRANCH  15  18
ENDBRANCH   1  15
TORSDOF 5
ENDMDL
MODEL 8
REMARK VINA RESULT:      -7.8      2.695      4.089
REMARK  Name = 
REMARK  6 active torsions:
REMARK  status: ('A' for Active; 'I' for Inactive)
REMARK    1  A    between atoms: C_1  and  C_2
REMARK    2  A    between atoms: C_5  and  C_6
REMARK    3  A    between atoms: N_8  and  C_9
REMARK    4  A    between atoms: C_9  and  C_10
REMARK    5  A    between atoms: C_10  and  C_11
REMARK    6  A    between atoms: C_10  and  N_18
REMARK                            x       y       z     vdW  Elec       q    Type
REMARK                         _______ _______ _______ _____ _____    ______ ____
ROOT
ATOM      1  C   UNL     1       4.547   6.405  17.885  0.00  0.00    +0.000 C 
ENDROOT
BRANCH   1   2
ATOM      2  C   UNL     1       4.157   4.935  18.168  0.00  0.00    +0.000 A 
ATOM      3  C   UNL     1       4.735   4.175  19.202  0.00  0.00    +0.000 A 
ATOM      4  C   UNL     1       4.483   2.805  19.327  0.00  0.00    +0.000 A 
ATOM      5  C   UNL     1       3.610   2.184  18.448  0.00  0.00    +0.000 A 
ATOM      6  F   UNL     1       3.381   0.870  18.560  0.00  0.00    +0.000 F 
ATOM      7  C   UNL     1       2.976   2.912  17.450  0.00  0.00    +0.000 A 
ATOM      8  C   UNL     1       3.256   4.276  17.304  0.00  0.00    +0.000 A 
ENDBRANCH   1   2
BRANCH   1   9
ATOM      9  N   UNL     1       5.775   6.509  17.058  0.00  0.00    +0.000 NA
ATOM     10  C   UNL     1       5.841   5.581  15.910  0.00  0.00    +0.000 C 
ATOM     11  C   UNL     1       6.514   4.221  16.180  0.00  0.00    +0.000 C 
ATOM     12  O   UNL     1       7.799   4.386  16.784  0.00  0.00    +0.000 OA
ATOM     13  C   UNL     1       7.696   5.129  18.003  0.00  0.00    +0.000 C 
ATOM     14  C   UNL     1       7.065   6.513  17.770  0.00  0.00    +0.000 C 
ENDBRANCH   1   9
BRANCH   1  15
ATOM     15  C   UNL     1       3.367   7.330  17.457  0.00  0.00    +0.000 C 
BRANCH  15  18
ATOM     16  C   UNL     1       1.875   9.032  18.448  0.00  0.00    +0.000 C 
ATOM     17  O   UNL     1       1.907   9.739  17.453  0.00  0.00    +0.000 OA
ATOM     18  N   UNL     1       2.545   7.826  18.548  0.00  0.00    +0.000 N 
ATOM     19  H   UNL     1       2.467   7.265  19.386  0.00  0.00    +0.000 HD
BRANCH  16  24
ATOM     20  C   UNL     1      -1.091  10.621  23.153  0.00  0.00    +0.000 C 
ATOM     21  C   UNL     1      -0.392  10.152  21.911  0.00  0.00    +0.000 A 
ATOM     22  C   UNL     1       0.449   9.033  21.934  0.00  0.00    +0.000 A 
ATOM     23  C   UNL     1       1.150   8.653  20.787  0.00  0.00    +0.000 A 
ATOM     24  C   UNL     1       1.024   9.399  19.609  0.00  0.00    +0.000 A 
ATOM     25  C   UNL     1       0.139  10.483  19.567  0.00  0.00    +0.000 A 
ATOM     26  C   UNL     1      -0.557  10.861  20.714  0.00  0.00    +0.000 A 
ENDBRANCH  16  24
ENDBRANCH  15  18
ENDBRANCH   1  15
TORSDOF 5
ENDMDL
MODEL 9
REMARK VINA RESULT:      -7.8      3.011      5.086
REMARK  Name = 
REMARK  6 active torsions:
REMARK  status: ('A' for Active; 'I' for Inactive)
REMARK    1  A    between atoms: C_1  and  C_2
REMARK    2  A    between atoms: C_5  and  C_6
REMARK    3  A    between atoms: N_8  and  C_9
REMARK    4  A    between atoms: C_9  and  C_10
REMARK    5  A    between atoms: C_10  and  C_11
REMARK    6  A    between atoms: C_10  and  N_18
REMARK                            x       y       z     vdW  Elec       q    Type
REMARK                         _______ _______ _______ _____ _____    ______ ____
ROOT
ATOM      1  C   UNL     1       4.021   5.371  18.757  0.00  0.00    +0.000 C 
ENDROOT
BRANCH   1   2
ATOM      2  C   UNL     1       3.127   4.427  19.597  0.00  0.00    +0.000 A 
ATOM      3  C   UNL     1       1.731   4.574  19.688  0.00  0.00    +0.000 A 
ATOM      4  C   UNL     1       0.976   3.808  20.582  0.00  0.00    +0.000 A 
ATOM      5  C   UNL     1       1.600   2.850  21.364  0.00  0.00    +0.000 A 
ATOM      6  F   UNL     1       0.877   2.128  22.230  0.00  0.00    +0.000 F 
ATOM      7  C   UNL     1       2.968   2.636  21.261  0.00  0.00    +0.000 A 
ATOM      8  C   UNL     1       3.729   3.426  20.391  0.00  0.00    +0.000 A 
ENDBRANCH   1   2
BRANCH   1   9
ATOM      9  N   UNL     1       4.846   4.630  17.770  0.00  0.00    +0.000 NA
ATOM     10  C   UNL     1       6.301   4.650  18.025  0.00  0.00    +0.000 C 
ATOM     11  C   UNL     1       7.086   5.794  17.354  0.00  0.00    +0.000 C 
ATOM     12  O   UNL     1       6.807   5.868  15.955  0.00  0.00    +0.000 OA
ATOM     13  C   UNL     1       5.405   6.041  15.725  0.00  0.00    +0.000 C 
ATOM     14  C   UNL     1       4.585   4.895  16.345  0.00  0.00    +0.000 C 
ENDBRANCH   1   9
BRANCH   1  15
ATOM     15  C   UNL     1       3.305   6.646  18.213  0.00  0.00    +0.000 C 
BRANCH  15  18
ATOM     16  C   UNL     1       1.803   8.501  18.853  0.00  0.00    +0.000 C 
ATOM     17  O   UNL     1       1.605   8.830  17.694  0.00  0.00    +0.000 OA
ATOM     18  N   UNL     1       2.609   7.436  19.215  0.00  0.00    +0.000 N 
ATOM     19  H   UNL     1       2.723   7.188  20.188  0.00  0.00    +0.000 HD
BRANCH  16  24
ATOM     20  C   UNL     1      -1.285  11.033  23.037  0.00  0.00    +0.000 C 
ATOM     21  C   UNL     1      -0.415  10.435  21.972  0.00  0.00    +0.000 A 
ATOM     22  C   UNL     1      -0.414  10.946  20.668  0.00  0.00    +0.000 A 
ATOM     23  C   UNL     1       0.346  10.332  19.670  0.00  0.00    +0.000 A 
ATOM     24  C   UNL     1       1.104   9.192  19.966  0.00  0.00    +0.000 A 
ATOM     25  C   UNL     1       1.150   8.715  21.281  0.00  0.00    +0.000 A 
ATOM     26  C   UNL     1       0.389   9.328  22.274  0.00  0.00    +0.000 A 
ENDBRANCH  16  24
ENDBRANCH  15  18
ENDBRANCH   1  15
TORSDOF 5
ENDMDL
