MODEL 1
REMARK VINA RESULT:      -6.5      0.000      0.000
REMARK  Name = 
REMARK  6 active torsions:
REMARK  status: ('A' for Active; 'I' for Inactive)
REMARK    1  A    between atoms: C_1  and  C_2
REMARK    2  A    between atoms: C_5  and  O_6
REMARK    3  A    between atoms: O_6  and  C_7
REMARK    4  A    between atoms: C_7  and  C_8
REMARK    5  A    between atoms: CA_15  and  C_16
REMARK    6  A    between atoms: C_16  and  O_17
REMARK                            x       y       z     vdW  Elec       q    Type
REMARK                         _______ _______ _______ _____ _____    ______ ____
ROOT
ATOM      1  C   UNL     1       7.927   5.114  12.860  0.00  0.00    +0.000 C 
ATOM      2  C   UNL     1       7.181   4.967  14.153  0.00  0.00    +0.000 A 
ATOM      3  C   UNL     1       6.090   4.121  14.235  0.00  0.00    +0.000 A 
ATOM      4  C   UNL     1       5.442   3.969  15.461  0.00  0.00    +0.000 A 
ATOM      5  C   UNL     1       5.884   4.666  16.591  0.00  0.00    +0.000 A 
ATOM      6  CA  UNL     1       6.940   5.564  16.401  0.00  0.00    +0.000 A 
ATOM      7  N   UNL     1       7.596   5.710  15.205  0.00  0.00    +0.000 NA
ENDROOT
BRANCH   5   8
ATOM      8  O   UNL     1       5.354   4.522  17.856  0.00  0.00    +0.000 OA
BRANCH   8   9
ATOM      9  C   UNL     1       4.034   5.065  18.017  0.00  0.00    +0.000 C 
BRANCH   9  10
ATOM     10  C   UNL     1       3.141   4.398  19.042  0.00  0.00    +0.000 A 
ATOM     11  C   UNL     1       1.981   4.976  19.548  0.00  0.00    +0.000 A 
ATOM     12  C   UNL     1       1.306   4.332  20.590  0.00  0.00    +0.000 A 
ATOM     13  C   UNL     1       1.800   3.135  21.095  0.00  0.00    +0.000 A 
ATOM     14 CL   UNL     1       1.035   2.347  22.412  0.00  0.00    +0.000 Cl
ATOM     15  C   UNL     1       2.943   2.608  20.520  0.00  0.00    +0.000 A 
ATOM     16  N   UNL     1       3.617   3.210  19.513  0.00  0.00    +0.000 NA
ENDBRANCH   9  10
ENDBRANCH   8   9
ENDBRANCH   5   8
BRANCH   6  17
ATOM     17  C   UNL     1       7.449   6.440  17.522  0.00  0.00    +0.000 C 
BRANCH  17  18
ATOM     18  O   UNL     1       7.782   5.646  18.669  0.00  0.00    +0.000 OA
ATOM     19  H   UNL     1       7.795   6.285  19.413  0.00  0.00    +0.000 HD
ENDBRANCH  17  18
ENDBRANCH   6  17
TORSDOF 5
ENDMDL
MODEL 2
REMARK VINA RESULT:      -6.5      1.891      2.262
REMARK  Name = 
REMARK  6 active torsions:
REMARK  status: ('A' for Active; 'I' for Inactive)
REMARK    1  A    between atoms: C_1  and  C_2
REMARK    2  A    between atoms: C_5  and  O_6
REMARK    3  A    between atoms: O_6  and  C_7
REMARK    4  A    between atoms: C_7  and  C_8
REMARK    5  A    between atoms: CA_15  and  C_16
REMARK    6  A    between atoms: C_16  and  O_17
REMARK                            x       y       z     vdW  Elec       q    Type
REMARK                         _______ _______ _______ _____ _____    ______ ____
ROOT
ATOM      1  C   UNL     1       7.895   5.262  12.871  0.00  0.00    +0.000 C 
ATOM      2  C   UNL     1       7.196   4.954  14.161  0.00  0.00    +0.000 A 
ATOM      3  C   UNL     1       6.247   3.948  14.216  0.00  0.00    +0.000 A 
ATOM      4  C   UNL     1       5.643   3.653  15.439  0.00  0.00    +0.000 A 
ATOM      5  C   UNL     1       5.987   4.367  16.592  0.00  0.00    +0.000 A 
ATOM      6  CA  UNL     1       6.891   5.421  16.432  0.00  0.00    +0.000 A 
ATOM      7  N   UNL     1       7.504   5.711  15.239  0.00  0.00    +0.000 NA
ENDROOT
BRANCH   5   8
ATOM      8  O   UNL     1       5.499   4.095  17.854  0.00  0.00    +0.000 OA
BRANCH   8   9
ATOM      9  C   UNL     1       4.070   3.982  17.931  0.00  0.00    +0.000 C 
BRANCH   9  10
ATOM     10  C   UNL     1       3.357   4.944  18.858  0.00  0.00    +0.000 A 
ATOM     11  C   UNL     1       2.681   4.548  20.009  0.00  0.00    +0.000 A 
ATOM     12  C   UNL     1       1.943   5.501  20.718  0.00  0.00    +0.000 A 
ATOM     13  C   UNL     1       1.901   6.815  20.267  0.00  0.00    +0.000 A 
ATOM     14 CL   UNL     1       0.958   7.999  21.074  0.00  0.00    +0.000 Cl
ATOM     15  C   UNL     1       2.622   7.138  19.132  0.00  0.00    +0.000 A 
ATOM     16  N   UNL     1       3.343   6.236  18.425  0.00  0.00    +0.000 NA
ENDBRANCH   9  10
ENDBRANCH   8   9
ENDBRANCH   5   8
BRANCH   6  17
ATOM     17  C   UNL     1       7.274   6.322  17.583  0.00  0.00    +0.000 C 
BRANCH  17  18
ATOM     18  O   UNL     1       7.685   7.608  17.100  0.00  0.00    +0.000 OA
ATOM     19  H   UNL     1       8.184   7.413  16.279  0.00  0.00    +0.000 HD
ENDBRANCH  17  18
ENDBRANCH   6  17
TORSDOF 5
ENDMDL
MODEL 3
REMARK VINA RESULT:      -6.4      1.087      1.460
REMARK  Name = 
REMARK  6 active torsions:
REMARK  status: ('A' for Active; 'I' for Inactive)
REMARK    1  A    between atoms: C_1  and  C_2
REMARK    2  A    between atoms: C_5  and  O_6
REMARK    3  A    between atoms: O_6  and  C_7
REMARK    4  A    between atoms: C_7  and  C_8
REMARK    5  A    between atoms: CA_15  and  C_16
REMARK    6  A    between atoms: C_16  and  O_17
REMARK                            x       y       z     vdW  Elec       q    Type
REMARK                         _______ _______ _______ _____ _____    ______ ____
ROOT
ATOM      1  C   UNL     1       8.323   5.619  12.508  0.00  0.00    +0.000 C 
ATOM      2  C   UNL     1       7.436   5.063  13.582  0.00  0.00    +0.000 A 
ATOM      3  C   UNL     1       6.370   4.246  13.252  0.00  0.00    +0.000 A 
ATOM      4  C   UNL     1       5.588   3.707  14.273  0.00  0.00    +0.000 A 
ATOM      5  C   UNL     1       5.872   3.994  15.613  0.00  0.00    +0.000 A 
ATOM      6  CA  UNL     1       6.913   4.896  15.855  0.00  0.00    +0.000 A 
ATOM      7  N   UNL     1       7.700   5.419  14.860  0.00  0.00    +0.000 NA
ENDROOT
BRANCH   5   8
ATOM      8  O   UNL     1       5.201   3.449  16.688  0.00  0.00    +0.000 OA
BRANCH   8   9
ATOM      9  C   UNL     1       3.988   4.130  17.044  0.00  0.00    +0.000 C 
BRANCH   9  10
ATOM     10  C   UNL     1       3.376   3.779  18.384  0.00  0.00    +0.000 A 
ATOM     11  C   UNL     1       4.071   3.142  19.407  0.00  0.00    +0.000 A 
ATOM     12  C   UNL     1       3.372   2.742  20.551  0.00  0.00    +0.000 A 
ATOM     13  C   UNL     1       2.008   2.990  20.646  0.00  0.00    +0.000 A 
ATOM     14 CL   UNL     1       1.105   2.462  22.005  0.00  0.00    +0.000 Cl
ATOM     15  C   UNL     1       1.392   3.654  19.600  0.00  0.00    +0.000 A 
ATOM     16  N   UNL     1       2.043   4.050  18.482  0.00  0.00    +0.000 NA
ENDBRANCH   9  10
ENDBRANCH   8   9
ENDBRANCH   5   8
BRANCH   6  17
ATOM     17  C   UNL     1       7.259   5.354  17.253  0.00  0.00    +0.000 C 
BRANCH  17  18
ATOM     18  O   UNL     1       7.615   4.235  18.075  0.00  0.00    +0.000 OA
ATOM     19  H   UNL     1       7.924   4.637  18.915  0.00  0.00    +0.000 HD
ENDBRANCH  17  18
ENDBRANCH   6  17
TORSDOF 5
ENDMDL
MODEL 4
REMARK VINA RESULT:      -6.4      3.178      6.260
REMARK  Name = 
REMARK  6 active torsions:
REMARK  status: ('A' for Active; 'I' for Inactive)
REMARK    1  A    between atoms: C_1  and  C_2
REMARK    2  A    between atoms: C_5  and  O_6
REMARK    3  A    between atoms: O_6  and  C_7
REMARK    4  A    between atoms: C_7  and  C_8
REMARK    5  A    between atoms: CA_15  and  C_16
REMARK    6  A    between atoms: C_16  and  O_17
REMARK                            x       y       z     vdW  Elec       q    Type
REMARK                         _______ _______ _______ _____ _____    ______ ____
ROOT
ATOM      1  C   UNL     1       1.351   2.903  20.823  0.00  0.00    +0.000 C 
ATOM      2  C   UNL     1       2.233   3.228  19.655  0.00  0.00    +0.000 A 
ATOM      3  C   UNL     1       2.859   2.215  18.951  0.00  0.00    +0.000 A 
ATOM      4  C   UNL     1       3.639   2.542  17.842  0.00  0.00    +0.000 A 
ATOM      5  C   UNL     1       3.792   3.876  17.449  0.00  0.00    +0.000 A 
ATOM      6  CA  UNL     1       3.195   4.843  18.264  0.00  0.00    +0.000 A 
ATOM      7  N   UNL     1       2.412   4.533  19.348  0.00  0.00    +0.000 NA
ENDROOT
BRANCH   5   8
ATOM      8  O   UNL     1       4.480   4.286  16.326  0.00  0.00    +0.000 OA
BRANCH   8   9
ATOM      9  C   UNL     1       5.900   4.082  16.387  0.00  0.00    +0.000 C 
BRANCH   9  10
ATOM     10  C   UNL     1       6.722   5.182  17.027  0.00  0.00    +0.000 A 
ATOM     11  C   UNL     1       7.306   5.075  18.285  0.00  0.00    +0.000 A 
ATOM     12  C   UNL     1       7.928   6.200  18.837  0.00  0.00    +0.000 A 
ATOM     13  C   UNL     1       7.955   7.392  18.123  0.00  0.00    +0.000 A 
ATOM     14 CL   UNL     1       8.654   8.809  18.790  0.00  0.00    +0.000 Cl
ATOM     15  C   UNL     1       7.377   7.412  16.866  0.00  0.00    +0.000 A 
ATOM     16  N   UNL     1       6.768   6.340  16.309  0.00  0.00    +0.000 NA
ENDBRANCH   9  10
ENDBRANCH   8   9
ENDBRANCH   5   8
BRANCH   6  17
ATOM     17  C   UNL     1       3.362   6.321  17.997  0.00  0.00    +0.000 C 
BRANCH  17  18
ATOM     18  O   UNL     1       2.426   7.081  18.773  0.00  0.00    +0.000 OA
ATOM     19  H   UNL     1       2.748   6.998  19.695  0.00  0.00    +0.000 HD
ENDBRANCH  17  18
ENDBRANCH   6  17
TORSDOF 5
ENDMDL
MODEL 5
REMARK VINA RESULT:      -6.3      1.764      2.066
REMARK  Name = 
REMARK  6 active torsions:
REMARK  status: ('A' for Active; 'I' for Inactive)
REMARK    1  A    between atoms: C_1  and  C_2
REMARK    2  A    between atoms: C_5  and  O_6
REMARK    3  A    between atoms: O_6  and  C_7
REMARK    4  A    between atoms: C_7  and  C_8
REMARK    5  A    between atoms: CA_15  and  C_16
REMARK    6  A    between atoms: C_16  and  O_17
REMARK                            x       y       z     vdW  Elec       q    Type
REMARK                         _______ _______ _______ _____ _____    ______ ____
ROOT
ATOM      1  C   UNL     1       8.218   5.648  12.672  0.00  0.00    +0.000 C 
ATOM      2  C   UNL     1       7.375   5.079  13.774  0.00  0.00    +0.000 A 
ATOM      3  C   UNL     1       6.311   4.245  13.477  0.00  0.00    +0.000 A 
ATOM      4  C   UNL     1       5.570   3.694  14.523  0.00  0.00    +0.000 A 
ATOM      5  C   UNL     1       5.893   3.985  15.853  0.00  0.00    +0.000 A 
ATOM      6  CA  UNL     1       6.928   4.902  16.062  0.00  0.00    +0.000 A 
ATOM      7  N   UNL     1       7.675   5.437  15.043  0.00  0.00    +0.000 NA
ENDROOT
BRANCH   5   8
ATOM      8  O   UNL     1       5.267   3.430  16.949  0.00  0.00    +0.000 OA
BRANCH   8   9
ATOM      9  C   UNL     1       3.837   3.561  16.951  0.00  0.00    +0.000 C 
BRANCH   9  10
ATOM     10  C   UNL     1       3.227   4.374  18.074  0.00  0.00    +0.000 A 
ATOM     11  C   UNL     1       2.104   3.977  18.793  0.00  0.00    +0.000 A 
ATOM     12  C   UNL     1       1.544   4.866  19.715  0.00  0.00    +0.000 A 
ATOM     13  C   UNL     1       2.117   6.119  19.899  0.00  0.00    +0.000 A 
ATOM     14 CL   UNL     1       1.424   7.260  20.976  0.00  0.00    +0.000 Cl
ATOM     15  C   UNL     1       3.249   6.431  19.169  0.00  0.00    +0.000 A 
ATOM     16  N   UNL     1       3.811   5.591  18.268  0.00  0.00    +0.000 NA
ENDBRANCH   9  10
ENDBRANCH   8   9
ENDBRANCH   5   8
BRANCH   6  17
ATOM     17  C   UNL     1       7.313   5.365  17.449  0.00  0.00    +0.000 C 
BRANCH  17  18
ATOM     18  O   UNL     1       7.848   4.275  18.212  0.00  0.00    +0.000 OA
ATOM     19  H   UNL     1       7.095   3.655  18.315  0.00  0.00    +0.000 HD
ENDBRANCH  17  18
ENDBRANCH   6  17
TORSDOF 5
ENDMDL
MODEL 6
REMARK VINA RESULT:      -6.3      0.980      1.029
REMARK  Name = 
REMARK  6 active torsions:
REMARK  status: ('A' for Active; 'I' for Inactive)
REMARK    1  A    between atoms: C_1  and  C_2
REMARK    2  A    between atoms: C_5  and  O_6
REMARK    3  A    between atoms: O_6  and  C_7
REMARK    4  A    between atoms: C_7  and  C_8
REMARK    5  A    between atoms: CA_15  and  C_16
REMARK    6  A    between atoms: C_16  and  O_17
REMARK                            x       y       z     vdW  Elec       q    Type
REMARK                         _______ _______ _______ _____ _____    ______ ____
ROOT
ATOM      1  C   UNL     1       7.926   5.311  12.168  0.00  0.00    +0.000 C 
ATOM      2  C   UNL     1       7.142   4.899  13.378  0.00  0.00    +0.000 A 
ATOM      3  C   UNL     1       6.144   3.947  13.271  0.00  0.00    +0.000 A 
ATOM      4  C   UNL     1       5.460   3.550  14.420  0.00  0.00    +0.000 A 
ATOM      5  C   UNL     1       5.773   4.111  15.663  0.00  0.00    +0.000 A 
ATOM      6  CA  UNL     1       6.736   5.126  15.670  0.00  0.00    +0.000 A 
ATOM      7  N   UNL     1       7.427   5.513  14.549  0.00  0.00    +0.000 NA
ENDROOT
BRANCH   5   8
ATOM      8  O   UNL     1       5.204   3.728  16.859  0.00  0.00    +0.000 OA
BRANCH   8   9
ATOM      9  C   UNL     1       3.888   4.254  17.092  0.00  0.00    +0.000 C 
BRANCH   9  10
ATOM     10  C   UNL     1       3.121   3.681  18.265  0.00  0.00    +0.000 A 
ATOM     11  C   UNL     1       1.734   3.573  18.300  0.00  0.00    +0.000 A 
ATOM     12  C   UNL     1       1.120   3.156  19.486  0.00  0.00    +0.000 A 
ATOM     13  C   UNL     1       1.900   2.856  20.597  0.00  0.00    +0.000 A 
ATOM     14 CL   UNL     1       1.182   2.401  22.086  0.00  0.00    +0.000 Cl
ATOM     15  C   UNL     1       3.274   2.960  20.475  0.00  0.00    +0.000 A 
ATOM     16  N   UNL     1       3.894   3.362  19.341  0.00  0.00    +0.000 NA
ENDBRANCH   9  10
ENDBRANCH   8   9
ENDBRANCH   5   8
BRANCH   6  17
ATOM     17  C   UNL     1       7.097   5.870  16.934  0.00  0.00    +0.000 C 
BRANCH  17  18
ATOM     18  O   UNL     1       7.841   5.024  17.820  0.00  0.00    +0.000 OA
ATOM     19  H   UNL     1       7.720   5.428  18.705  0.00  0.00    +0.000 HD
ENDBRANCH  17  18
ENDBRANCH   6  17
TORSDOF 5
ENDMDL
MODEL 7
REMARK VINA RESULT:      -6.2      1.805      2.865
REMARK  Name = 
REMARK  6 active torsions:
REMARK  status: ('A' for Active; 'I' for Inactive)
REMARK    1  A    between atoms: C_1  and  C_2
REMARK    2  A    between atoms: C_5  and  O_6
REMARK    3  A    between atoms: O_6  and  C_7
REMARK    4  A    between atoms: C_7  and  C_8
REMARK    5  A    between atoms: CA_15  and  C_16
REMARK    6  A    between atoms: C_16  and  O_17
REMARK                            x       y       z     vdW  Elec       q    Type
REMARK                         _______ _______ _______ _____ _____    ______ ____
ROOT
ATOM      1  C   UNL     1       8.077   8.359  17.771  0.00  0.00    +0.000 C 
ATOM      2  C   UNL     1       7.121   7.278  17.362  0.00  0.00    +0.000 A 
ATOM      3  C   UNL     1       5.954   7.074  18.075  0.00  0.00    +0.000 A 
ATOM      4  C   UNL     1       5.062   6.091  17.648  0.00  0.00    +0.000 A 
ATOM      5  C   UNL     1       5.345   5.316  16.517  0.00  0.00    +0.000 A 
ATOM      6  CA  UNL     1       6.584   5.530  15.905  0.00  0.00    +0.000 A 
ATOM      7  N   UNL     1       7.463   6.505  16.306  0.00  0.00    +0.000 NA
ENDROOT
BRANCH   5   8
ATOM      8  O   UNL     1       4.491   4.377  15.979  0.00  0.00    +0.000 OA
BRANCH   8   9
ATOM      9  C   UNL     1       4.498   3.108  16.651  0.00  0.00    +0.000 C 
BRANCH   9  10
ATOM     10  C   UNL     1       3.555   2.951  17.825  0.00  0.00    +0.000 A 
ATOM     11  C   UNL     1       2.198   3.257  17.771  0.00  0.00    +0.000 A 
ATOM     12  C   UNL     1       1.448   3.205  18.950  0.00  0.00    +0.000 A 
ATOM     13  C   UNL     1       2.064   2.847  20.144  0.00  0.00    +0.000 A 
ATOM     14 CL   UNL     1       1.193   2.831  21.620  0.00  0.00    +0.000 Cl
ATOM     15  C   UNL     1       3.410   2.529  20.112  0.00  0.00    +0.000 A 
ATOM     16  N   UNL     1       4.160   2.573  18.986  0.00  0.00    +0.000 NA
ENDBRANCH   9  10
ENDBRANCH   8   9
ENDBRANCH   5   8
BRANCH   6  17
ATOM     17  C   UNL     1       7.045   4.697  14.731  0.00  0.00    +0.000 C 
BRANCH  17  18
ATOM     18  O   UNL     1       7.870   5.477  13.855  0.00  0.00    +0.000 OA
ATOM     19  H   UNL     1       7.753   5.061  12.974  0.00  0.00    +0.000 HD
ENDBRANCH  17  18
ENDBRANCH   6  17
TORSDOF 5
ENDMDL
MODEL 8
REMARK VINA RESULT:      -6.2      3.200      6.185
REMARK  Name = 
REMARK  6 active torsions:
REMARK  status: ('A' for Active; 'I' for Inactive)
REMARK    1  A    between atoms: C_1  and  C_2
REMARK    2  A    between atoms: C_5  and  O_6
REMARK    3  A    between atoms: O_6  and  C_7
REMARK    4  A    between atoms: C_7  and  C_8
REMARK    5  A    between atoms: CA_15  and  C_16
REMARK    6  A    between atoms: C_16  and  O_17
REMARK                            x       y       z     vdW  Elec       q    Type
REMARK                         _______ _______ _______ _____ _____    ______ ____
ROOT
ATOM      1  C   UNL     1       1.779   6.631  20.645  0.00  0.00    +0.000 C 
ATOM      2  C   UNL     1       2.512   5.764  19.666  0.00  0.00    +0.000 A 
ATOM      3  C   UNL     1       2.536   6.096  18.323  0.00  0.00    +0.000 A 
ATOM      4  C   UNL     1       3.261   5.297  17.440  0.00  0.00    +0.000 A 
ATOM      5  C   UNL     1       3.950   4.170  17.902  0.00  0.00    +0.000 A 
ATOM      6  CA  UNL     1       3.805   3.858  19.258  0.00  0.00    +0.000 A 
ATOM      7  N   UNL     1       3.108   4.646  20.140  0.00  0.00    +0.000 NA
ENDROOT
BRANCH   5   8
ATOM      8  O   UNL     1       4.751   3.367  17.118  0.00  0.00    +0.000 OA
BRANCH   8   9
ATOM      9  C   UNL     1       5.655   4.079  16.260  0.00  0.00    +0.000 C 
BRANCH   9  10
ATOM     10  C   UNL     1       6.533   5.128  16.911  0.00  0.00    +0.000 A 
ATOM     11  C   UNL     1       7.246   4.916  18.087  0.00  0.00    +0.000 A 
ATOM     12  C   UNL     1       7.915   5.994  18.674  0.00  0.00    +0.000 A 
ATOM     13  C   UNL     1       7.859   7.248  18.076  0.00  0.00    +0.000 A 
ATOM     14 CL   UNL     1       8.614   8.608  18.797  0.00  0.00    +0.000 Cl
ATOM     15  C   UNL     1       7.153   7.374  16.893  0.00  0.00    +0.000 A 
ATOM     16  N   UNL     1       6.495   6.349  16.304  0.00  0.00    +0.000 NA
ENDBRANCH   9  10
ENDBRANCH   8   9
ENDBRANCH   5   8
BRANCH   6  17
ATOM     17  C   UNL     1       4.426   2.619  19.860  0.00  0.00    +0.000 C 
BRANCH  17  18
ATOM     18  O   UNL     1       4.234   1.491  18.996  0.00  0.00    +0.000 OA
ATOM     19  H   UNL     1       3.856   0.798  19.579  0.00  0.00    +0.000 HD
ENDBRANCH  17  18
ENDBRANCH   6  17
TORSDOF 5
ENDMDL
MODEL 9
REMARK VINA RESULT:      -6.2      1.596      2.955
REMARK  Name = 
REMARK  6 active torsions:
REMARK  status: ('A' for Active; 'I' for Inactive)
REMARK    1  A    between atoms: C_1  and  C_2
REMARK    2  A    between atoms: C_5  and  O_6
REMARK    3  A    between atoms: O_6  and  C_7
REMARK    4  A    between atoms: C_7  and  C_8
REMARK    5  A    between atoms: CA_15  and  C_16
REMARK    6  A    between atoms: C_16  and  O_17
REMARK                            x       y       z     vdW  Elec       q    Type
REMARK                         _______ _______ _______ _____ _____    ______ ____
ROOT
ATOM      1  C   UNL     1       8.309   7.884  18.169  0.00  0.00    +0.000 C 
ATOM      2  C   UNL     1       7.506   6.675  17.792  0.00  0.00    +0.000 A 
ATOM      3  C   UNL     1       7.014   5.832  18.772  0.00  0.00    +0.000 A 
ATOM      4  C   UNL     1       6.234   4.739  18.396  0.00  0.00    +0.000 A 
ATOM      5  C   UNL     1       5.958   4.493  17.046  0.00  0.00    +0.000 A 
ATOM      6  CA  UNL     1       6.564   5.344  16.116  0.00  0.00    +0.000 A 
ATOM      7  N   UNL     1       7.319   6.432  16.475  0.00  0.00    +0.000 NA
ENDROOT
BRANCH   5   8
ATOM      8  O   UNL     1       5.138   3.483  16.587  0.00  0.00    +0.000 OA
BRANCH   8   9
ATOM      9  C   UNL     1       3.735   3.715  16.786  0.00  0.00    +0.000 C 
BRANCH   9  10
ATOM     10  C   UNL     1       3.160   3.318  18.130  0.00  0.00    +0.000 A 
ATOM     11  C   UNL     1       2.840   2.009  18.476  0.00  0.00    +0.000 A 
ATOM     12  C   UNL     1       2.188   1.773  19.690  0.00  0.00    +0.000 A 
ATOM     13  C   UNL     1       1.879   2.840  20.525  0.00  0.00    +0.000 A 
ATOM     14 CL   UNL     1       1.027   2.598  21.994  0.00  0.00    +0.000 Cl
ATOM     15  C   UNL     1       2.255   4.110  20.126  0.00  0.00    +0.000 A 
ATOM     16  N   UNL     1       2.885   4.368  18.956  0.00  0.00    +0.000 NA
ENDBRANCH   9  10
ENDBRANCH   8   9
ENDBRANCH   5   8
BRANCH   6  17
ATOM     17  C   UNL     1       6.416   5.129  14.628  0.00  0.00    +0.000 C 
BRANCH  17  18
ATOM     18  O   UNL     1       6.583   3.743  14.301  0.00  0.00    +0.000 OA
ATOM     19  H   UNL     1       5.910   3.572  13.609  0.00  0.00    +0.000 HD
ENDBRANCH  17  18
ENDBRANCH   6  17
TORSDOF 5
ENDMDL
