MODEL 1
REMARK VINA RESULT:      -7.8      0.000      0.000
REMARK  Name = 
REMARK  5 active torsions:
REMARK  status: ('A' for Active; 'I' for Inactive)
REMARK    1  A    between atoms: C_1  and  O_2
REMARK    2  A    between atoms: O_2  and  C_3
REMARK    3  A    between atoms: N_11  and  C_12
REMARK    4  A    between atoms: C_12  and  C_13
REMARK    5  A    between atoms: C_13  and  C_15
REMARK                            x       y       z     vdW  Elec       q    Type
REMARK                         _______ _______ _______ _____ _____    ______ ____
ROOT
ATOM      1  C   UNL     1       7.465   6.972  17.704  0.00  0.00    +0.000 A 
ATOM      2  N   UNL     1       7.959   6.589  18.912  0.00  0.00    +0.000 NA
ATOM      3  C   UNL     1       7.454   5.470  19.471  0.00  0.00    +0.000 A 
ATOM      4  N   UNL     1       6.505   4.648  18.985  0.00  0.00    +0.000 NA
ATOM      5  C   UNL     1       6.056   5.080  17.794  0.00  0.00    +0.000 A 
ATOM      6  C   UNL     1       6.473   6.199  17.090  0.00  0.00    +0.000 A 
ATOM      7  N   UNL     1       5.801   6.293  15.888  0.00  0.00    +0.000 NA
ATOM      8  C   UNL     1       4.991   5.256  15.866  0.00  0.00    +0.000 A 
ATOM      9  N   UNL     1       5.107   4.495  16.998  0.00  0.00    +0.000 N 
ENDROOT
BRANCH   1  11
ATOM     10  C   UNL     1       8.203   9.175  17.990  0.00  0.00    +0.000 C 
ATOM     11  O   UNL     1       7.948   8.109  17.085  0.00  0.00    +0.000 OA
ENDBRANCH   1  11
BRANCH   9  12
ATOM     12  C   UNL     1       4.481   3.208  17.234  0.00  0.00    +0.000 C 
BRANCH  12  13
ATOM     13  C   UNL     1       2.994   3.276  17.504  0.00  0.00    +0.000 C 
ATOM     14  O   UNL     1       2.143   3.370  16.626  0.00  0.00    +0.000 OA
BRANCH  13  15
ATOM     15  C   UNL     1       2.565   3.225  18.934  0.00  0.00    +0.000 A 
ATOM     16  C   UNL     1       3.462   2.730  19.890  0.00  0.00    +0.000 A 
ATOM     17  C   UNL     1       3.061   2.598  21.222  0.00  0.00    +0.000 A 
ATOM     18  C   UNL     1       1.774   2.975  21.605  0.00  0.00    +0.000 A 
ATOM     19  C   UNL     1       0.891   3.504  20.665  0.00  0.00    +0.000 A 
ATOM     20  C   UNL     1       1.287   3.634  19.332  0.00  0.00    +0.000 A 
ENDBRANCH  13  15
ENDBRANCH  12  13
ENDBRANCH   9  12
TORSDOF 4
ENDMDL
MODEL 2
REMARK VINA RESULT:      -7.7      0.114      1.081
REMARK  Name = 
REMARK  5 active torsions:
REMARK  status: ('A' for Active; 'I' for Inactive)
REMARK    1  A    between atoms: C_1  and  O_2
REMARK    2  A    between atoms: O_2  and  C_3
REMARK    3  A    between atoms: N_11  and  C_12
REMARK    4  A    between atoms: C_12  and  C_13
REMARK    5  A    between atoms: C_13  and  C_15
REMARK                            x       y       z     vdW  Elec       q    Type
REMARK                         _______ _______ _______ _____ _____    ______ ____
ROOT
ATOM      1  C   UNL     1       7.468   6.957  17.679  0.00  0.00    +0.000 A 
ATOM      2  N   UNL     1       7.969   6.578  18.886  0.00  0.00    +0.000 NA
ATOM      3  C   UNL     1       7.467   5.462  19.452  0.00  0.00    +0.000 A 
ATOM      4  N   UNL     1       6.514   4.639  18.975  0.00  0.00    +0.000 NA
ATOM      5  C   UNL     1       6.058   5.067  17.785  0.00  0.00    +0.000 A 
ATOM      6  C   UNL     1       6.471   6.183  17.074  0.00  0.00    +0.000 A 
ATOM      7  N   UNL     1       5.791   6.273  15.877  0.00  0.00    +0.000 NA
ATOM      8  C   UNL     1       4.980   5.236  15.863  0.00  0.00    +0.000 A 
ATOM      9  N   UNL     1       5.103   4.479  16.998  0.00  0.00    +0.000 N 
ENDROOT
BRANCH   1  11
ATOM     10  C   UNL     1       8.142   9.184  17.942  0.00  0.00    +0.000 C 
ATOM     11  O   UNL     1       7.947   8.092  17.052  0.00  0.00    +0.000 OA
ENDBRANCH   1  11
BRANCH   9  12
ATOM     12  C   UNL     1       4.478   3.193  17.242  0.00  0.00    +0.000 C 
BRANCH  12  13
ATOM     13  C   UNL     1       2.993   3.263  17.521  0.00  0.00    +0.000 C 
ATOM     14  O   UNL     1       2.144   3.453  16.656  0.00  0.00    +0.000 OA
BRANCH  13  15
ATOM     15  C   UNL     1       2.563   3.089  18.940  0.00  0.00    +0.000 A 
ATOM     16  C   UNL     1       1.219   3.306  19.270  0.00  0.00    +0.000 A 
ATOM     17  C   UNL     1       0.804   3.226  20.602  0.00  0.00    +0.000 A 
ATOM     18  C   UNL     1       1.723   2.913  21.603  0.00  0.00    +0.000 A 
ATOM     19  C   UNL     1       3.054   2.659  21.275  0.00  0.00    +0.000 A 
ATOM     20  C   UNL     1       3.474   2.742  19.945  0.00  0.00    +0.000 A 
ENDBRANCH  13  15
ENDBRANCH  12  13
ENDBRANCH   9  12
TORSDOF 4
ENDMDL
MODEL 3
REMARK VINA RESULT:      -7.5      2.243      3.289
REMARK  Name = 
REMARK  5 active torsions:
REMARK  status: ('A' for Active; 'I' for Inactive)
REMARK    1  A    between atoms: C_1  and  O_2
REMARK    2  A    between atoms: O_2  and  C_3
REMARK    3  A    between atoms: N_11  and  C_12
REMARK    4  A    between atoms: C_12  and  C_13
REMARK    5  A    between atoms: C_13  and  C_15
REMARK                            x       y       z     vdW  Elec       q    Type
REMARK                         _______ _______ _______ _____ _____    ______ ____
ROOT
ATOM      1  C   UNL     1       7.149   5.019  14.789  0.00  0.00    +0.000 A 
ATOM      2  N   UNL     1       6.434   3.915  14.439  0.00  0.00    +0.000 NA
ATOM      3  C   UNL     1       5.571   3.412  15.344  0.00  0.00    +0.000 A 
ATOM      4  N   UNL     1       5.302   3.864  16.584  0.00  0.00    +0.000 NA
ATOM      5  C   UNL     1       6.039   4.951  16.872  0.00  0.00    +0.000 A 
ATOM      6  C   UNL     1       6.960   5.588  16.053  0.00  0.00    +0.000 A 
ATOM      7  N   UNL     1       7.490   6.692  16.689  0.00  0.00    +0.000 NA
ATOM      8  C   UNL     1       6.907   6.722  17.869  0.00  0.00    +0.000 A 
ATOM      9  N   UNL     1       6.025   5.687  18.027  0.00  0.00    +0.000 N 
ENDROOT
BRANCH   1  11
ATOM     10  C   UNL     1       7.794   5.214  12.547  0.00  0.00    +0.000 C 
ATOM     11  O   UNL     1       8.046   5.578  13.899  0.00  0.00    +0.000 OA
ENDBRANCH   1  11
BRANCH   9  12
ATOM     12  C   UNL     1       5.105   5.506  19.134  0.00  0.00    +0.000 C 
BRANCH  12  13
ATOM     13  C   UNL     1       3.675   5.893  18.828  0.00  0.00    +0.000 C 
ATOM     14  O   UNL     1       3.347   6.974  18.349  0.00  0.00    +0.000 OA
BRANCH  13  15
ATOM     15  C   UNL     1       2.621   4.882  19.139  0.00  0.00    +0.000 A 
ATOM     16  C   UNL     1       2.227   4.706  20.471  0.00  0.00    +0.000 A 
ATOM     17  C   UNL     1       1.300   3.714  20.800  0.00  0.00    +0.000 A 
ATOM     18  C   UNL     1       0.751   2.910  19.802  0.00  0.00    +0.000 A 
ATOM     19  C   UNL     1       1.111   3.108  18.469  0.00  0.00    +0.000 A 
ATOM     20  C   UNL     1       2.041   4.095  18.136  0.00  0.00    +0.000 A 
ENDBRANCH  13  15
ENDBRANCH  12  13
ENDBRANCH   9  12
TORSDOF 4
ENDMDL
MODEL 4
REMARK VINA RESULT:      -7.5      2.226      3.319
REMARK  Name = 
REMARK  5 active torsions:
REMARK  status: ('A' for Active; 'I' for Inactive)
REMARK    1  A    between atoms: C_1  and  O_2
REMARK    2  A    between atoms: O_2  and  C_3
REMARK    3  A    between atoms: N_11  and  C_12
REMARK    4  A    between atoms: C_12  and  C_13
REMARK    5  A    between atoms: C_13  and  C_15
REMARK                            x       y       z     vdW  Elec       q    Type
REMARK                         _______ _______ _______ _____ _____    ______ ____
ROOT
ATOM      1  C   UNL     1       7.153   5.011  14.772  0.00  0.00    +0.000 A 
ATOM      2  N   UNL     1       6.424   3.919  14.414  0.00  0.00    +0.000 NA
ATOM      3  C   UNL     1       5.579   3.400  15.329  0.00  0.00    +0.000 A 
ATOM      4  N   UNL     1       5.342   3.826  16.584  0.00  0.00    +0.000 NA
ATOM      5  C   UNL     1       6.092   4.902  16.879  0.00  0.00    +0.000 A 
ATOM      6  C   UNL     1       6.997   5.553  16.053  0.00  0.00    +0.000 A 
ATOM      7  N   UNL     1       7.548   6.639  16.701  0.00  0.00    +0.000 NA
ATOM      8  C   UNL     1       6.994   6.645  17.895  0.00  0.00    +0.000 A 
ATOM      9  N   UNL     1       6.109   5.612  18.050  0.00  0.00    +0.000 N 
ENDROOT
BRANCH   1  11
ATOM     10  C   UNL     1       7.784   5.205  12.526  0.00  0.00    +0.000 C 
ATOM     11  O   UNL     1       8.032   5.585  13.874  0.00  0.00    +0.000 OA
ENDBRANCH   1  11
BRANCH   9  12
ATOM     12  C   UNL     1       5.215   5.411  19.174  0.00  0.00    +0.000 C 
BRANCH  12  13
ATOM     13  C   UNL     1       3.773   5.780  18.900  0.00  0.00    +0.000 C 
ATOM     14  O   UNL     1       3.422   6.854  18.423  0.00  0.00    +0.000 OA
BRANCH  13  15
ATOM     15  C   UNL     1       2.738   4.759  19.240  0.00  0.00    +0.000 A 
ATOM     16  C   UNL     1       2.176   3.998  18.207  0.00  0.00    +0.000 A 
ATOM     17  C   UNL     1       1.151   3.090  18.485  0.00  0.00    +0.000 A 
ATOM     18  C   UNL     1       0.698   2.927  19.793  0.00  0.00    +0.000 A 
ATOM     19  C   UNL     1       1.280   3.654  20.830  0.00  0.00    +0.000 A 
ATOM     20  C   UNL     1       2.302   4.566  20.556  0.00  0.00    +0.000 A 
ENDBRANCH  13  15
ENDBRANCH  12  13
ENDBRANCH   9  12
TORSDOF 4
ENDMDL
MODEL 5
REMARK VINA RESULT:      -7.2      2.329      2.978
REMARK  Name = 
REMARK  5 active torsions:
REMARK  status: ('A' for Active; 'I' for Inactive)
REMARK    1  A    between atoms: C_1  and  O_2
REMARK    2  A    between atoms: O_2  and  C_3
REMARK    3  A    between atoms: N_11  and  C_12
REMARK    4  A    between atoms: C_12  and  C_13
REMARK    5  A    between atoms: C_13  and  C_15
REMARK                            x       y       z     vdW  Elec       q    Type
REMARK                         _______ _______ _______ _____ _____    ______ ____
ROOT
ATOM      1  C   UNL     1       7.002   5.135  15.738  0.00  0.00    +0.000 A 
ATOM      2  N   UNL     1       7.903   4.416  16.461  0.00  0.00    +0.000 NA
ATOM      3  C   UNL     1       7.721   4.342  17.795  0.00  0.00    +0.000 A 
ATOM      4  N   UNL     1       6.740   4.890  18.537  0.00  0.00    +0.000 NA
ATOM      5  C   UNL     1       5.886   5.587  17.768  0.00  0.00    +0.000 A 
ATOM      6  C   UNL     1       5.931   5.754  16.392  0.00  0.00    +0.000 A 
ATOM      7  N   UNL     1       4.860   6.510  15.961  0.00  0.00    +0.000 NA
ATOM      8  C   UNL     1       4.182   6.798  17.052  0.00  0.00    +0.000 A 
ATOM      9  N   UNL     1       4.765   6.265  18.170  0.00  0.00    +0.000 N 
ENDROOT
BRANCH   1  11
ATOM     10  C   UNL     1       6.471   4.209  13.654  0.00  0.00    +0.000 C 
ATOM     11  O   UNL     1       7.139   5.243  14.367  0.00  0.00    +0.000 OA
ENDBRANCH   1  11
BRANCH   9  12
ATOM     12  C   UNL     1       4.205   6.257  19.507  0.00  0.00    +0.000 C 
BRANCH  12  13
ATOM     13  C   UNL     1       2.693   6.280  19.552  0.00  0.00    +0.000 C 
ATOM     14  O   UNL     1       2.027   7.307  19.625  0.00  0.00    +0.000 OA
BRANCH  13  15
ATOM     15  C   UNL     1       1.996   4.960  19.505  0.00  0.00    +0.000 A 
ATOM     16  C   UNL     1       1.621   4.352  20.710  0.00  0.00    +0.000 A 
ATOM     17  C   UNL     1       1.038   3.082  20.700  0.00  0.00    +0.000 A 
ATOM     18  C   UNL     1       0.812   2.426  19.490  0.00  0.00    +0.000 A 
ATOM     19  C   UNL     1       1.149   3.043  18.287  0.00  0.00    +0.000 A 
ATOM     20  C   UNL     1       1.736   4.311  18.292  0.00  0.00    +0.000 A 
ENDBRANCH  13  15
ENDBRANCH  12  13
ENDBRANCH   9  12
TORSDOF 4
ENDMDL
MODEL 6
REMARK VINA RESULT:      -7.2      2.718      6.674
REMARK  Name = 
REMARK  5 active torsions:
REMARK  status: ('A' for Active; 'I' for Inactive)
REMARK    1  A    between atoms: C_1  and  O_2
REMARK    2  A    between atoms: O_2  and  C_3
REMARK    3  A    between atoms: N_11  and  C_12
REMARK    4  A    between atoms: C_12  and  C_13
REMARK    5  A    between atoms: C_13  and  C_15
REMARK                            x       y       z     vdW  Elec       q    Type
REMARK                         _______ _______ _______ _____ _____    ______ ____
ROOT
ATOM      1  C   UNL     1       3.270   2.856  19.720  0.00  0.00    +0.000 A 
ATOM      2  N   UNL     1       2.514   2.202  18.797  0.00  0.00    +0.000 NA
ATOM      3  C   UNL     1       2.634   2.578  17.507  0.00  0.00    +0.000 A 
ATOM      4  N   UNL     1       3.426   3.535  16.985  0.00  0.00    +0.000 NA
ATOM      5  C   UNL     1       4.143   4.144  17.945  0.00  0.00    +0.000 A 
ATOM      6  C   UNL     1       4.137   3.873  19.305  0.00  0.00    +0.000 A 
ATOM      7  N   UNL     1       5.034   4.688  19.965  0.00  0.00    +0.000 NA
ATOM      8  C   UNL     1       5.570   5.440  19.026  0.00  0.00    +0.000 A 
ATOM      9  N   UNL     1       5.060   5.150  17.789  0.00  0.00    +0.000 N 
ENDROOT
BRANCH   1  11
ATOM     10  C   UNL     1       2.075   3.097  21.719  0.00  0.00    +0.000 C 
ATOM     11  O   UNL     1       3.188   2.511  21.056  0.00  0.00    +0.000 OA
ENDBRANCH   1  11
BRANCH   9  12
ATOM     12  C   UNL     1       5.532   5.676  16.523  0.00  0.00    +0.000 C 
BRANCH  12  13
ATOM     13  C   UNL     1       6.766   4.986  15.982  0.00  0.00    +0.000 C 
ATOM     14  O   UNL     1       7.720   4.649  16.675  0.00  0.00    +0.000 OA
BRANCH  13  15
ATOM     15  C   UNL     1       6.797   4.713  14.514  0.00  0.00    +0.000 A 
ATOM     16  C   UNL     1       5.937   3.740  13.990  0.00  0.00    +0.000 A 
ATOM     17  C   UNL     1       5.999   3.408  12.634  0.00  0.00    +0.000 A 
ATOM     18  C   UNL     1       6.904   4.058  11.797  0.00  0.00    +0.000 A 
ATOM     19  C   UNL     1       7.737   5.054  12.305  0.00  0.00    +0.000 A 
ATOM     20  C   UNL     1       7.681   5.385  13.661  0.00  0.00    +0.000 A 
ENDBRANCH  13  15
ENDBRANCH  12  13
ENDBRANCH   9  12
TORSDOF 4
ENDMDL
MODEL 7
REMARK VINA RESULT:      -7.1      2.313      3.008
REMARK  Name = 
REMARK  5 active torsions:
REMARK  status: ('A' for Active; 'I' for Inactive)
REMARK    1  A    between atoms: C_1  and  O_2
REMARK    2  A    between atoms: O_2  and  C_3
REMARK    3  A    between atoms: N_11  and  C_12
REMARK    4  A    between atoms: C_12  and  C_13
REMARK    5  A    between atoms: C_13  and  C_15
REMARK                            x       y       z     vdW  Elec       q    Type
REMARK                         _______ _______ _______ _____ _____    ______ ____
ROOT
ATOM      1  C   UNL     1       7.147   5.082  15.754  0.00  0.00    +0.000 A 
ATOM      2  N   UNL     1       7.964   4.338  16.548  0.00  0.00    +0.000 NA
ATOM      3  C   UNL     1       7.705   4.319  17.871  0.00  0.00    +0.000 A 
ATOM      4  N   UNL     1       6.719   4.947  18.540  0.00  0.00    +0.000 NA
ATOM      5  C   UNL     1       5.950   5.665  17.703  0.00  0.00    +0.000 A 
ATOM      6  C   UNL     1       6.081   5.783  16.328  0.00  0.00    +0.000 A 
ATOM      7  N   UNL     1       5.081   6.583  15.814  0.00  0.00    +0.000 NA
ATOM      8  C   UNL     1       4.362   6.946  16.856  0.00  0.00    +0.000 A 
ATOM      9  N   UNL     1       4.851   6.419  18.021  0.00  0.00    +0.000 N 
ENDROOT
BRANCH   1  11
ATOM     10  C   UNL     1       6.589   4.193  13.661  0.00  0.00    +0.000 C 
ATOM     11  O   UNL     1       7.364   5.136  14.390  0.00  0.00    +0.000 OA
ENDBRANCH   1  11
BRANCH   9  12
ATOM     12  C   UNL     1       4.220   6.487  19.324  0.00  0.00    +0.000 C 
BRANCH  12  13
ATOM     13  C   UNL     1       2.708   6.438  19.290  0.00  0.00    +0.000 C 
ATOM     14  O   UNL     1       1.993   7.431  19.213  0.00  0.00    +0.000 OA
BRANCH  13  15
ATOM     15  C   UNL     1       2.075   5.087  19.357  0.00  0.00    +0.000 A 
ATOM     16  C   UNL     1       1.894   4.367  18.169  0.00  0.00    +0.000 A 
ATOM     17  C   UNL     1       1.235   3.135  18.192  0.00  0.00    +0.000 A 
ATOM     18  C   UNL     1       0.773   2.612  19.398  0.00  0.00    +0.000 A 
ATOM     19  C   UNL     1       0.984   3.306  20.589  0.00  0.00    +0.000 A 
ATOM     20  C   UNL     1       1.639   4.540  20.570  0.00  0.00    +0.000 A 
ENDBRANCH  13  15
ENDBRANCH  12  13
ENDBRANCH   9  12
TORSDOF 4
ENDMDL
MODEL 8
REMARK VINA RESULT:      -7.0      1.975      2.968
REMARK  Name = 
REMARK  5 active torsions:
REMARK  status: ('A' for Active; 'I' for Inactive)
REMARK    1  A    between atoms: C_1  and  O_2
REMARK    2  A    between atoms: O_2  and  C_3
REMARK    3  A    between atoms: N_11  and  C_12
REMARK    4  A    between atoms: C_12  and  C_13
REMARK    5  A    between atoms: C_13  and  C_15
REMARK                            x       y       z     vdW  Elec       q    Type
REMARK                         _______ _______ _______ _____ _____    ______ ____
ROOT
ATOM      1  C   UNL     1       7.016   5.798  16.851  0.00  0.00    +0.000 A 
ATOM      2  N   UNL     1       6.757   5.731  15.517  0.00  0.00    +0.000 NA
ATOM      3  C   UNL     1       5.733   4.952  15.114  0.00  0.00    +0.000 A 
ATOM      4  N   UNL     1       4.898   4.211  15.869  0.00  0.00    +0.000 NA
ATOM      5  C   UNL     1       5.206   4.317  17.173  0.00  0.00    +0.000 A 
ATOM      6  C   UNL     1       6.217   5.074  17.744  0.00  0.00    +0.000 A 
ATOM      7  N   UNL     1       6.197   4.951  19.119  0.00  0.00    +0.000 NA
ATOM      8  C   UNL     1       5.197   4.133  19.375  0.00  0.00    +0.000 A 
ATOM      9  N   UNL     1       4.570   3.720  18.230  0.00  0.00    +0.000 N 
ENDROOT
BRANCH   1  11
ATOM     10  C   UNL     1       7.678   7.938  17.530  0.00  0.00    +0.000 C 
ATOM     11  O   UNL     1       8.052   6.582  17.320  0.00  0.00    +0.000 OA
ENDBRANCH   1  11
BRANCH   9  12
ATOM     12  C   UNL     1       3.346   2.947  18.155  0.00  0.00    +0.000 C 
BRANCH  12  13
ATOM     13  C   UNL     1       2.085   3.779  18.081  0.00  0.00    +0.000 C 
ATOM     14  O   UNL     1       1.070   3.431  17.485  0.00  0.00    +0.000 OA
BRANCH  13  15
ATOM     15  C   UNL     1       2.104   5.098  18.781  0.00  0.00    +0.000 A 
ATOM     16  C   UNL     1       1.762   5.146  20.138  0.00  0.00    +0.000 A 
ATOM     17  C   UNL     1       1.696   6.375  20.799  0.00  0.00    +0.000 A 
ATOM     18  C   UNL     1       1.988   7.554  20.114  0.00  0.00    +0.000 A 
ATOM     19  C   UNL     1       2.366   7.508  18.773  0.00  0.00    +0.000 A 
ATOM     20  C   UNL     1       2.429   6.281  18.108  0.00  0.00    +0.000 A 
ENDBRANCH  13  15
ENDBRANCH  12  13
ENDBRANCH   9  12
TORSDOF 4
ENDMDL
MODEL 9
REMARK VINA RESULT:      -7.0      2.207      3.355
REMARK  Name = 
REMARK  5 active torsions:
REMARK  status: ('A' for Active; 'I' for Inactive)
REMARK    1  A    between atoms: C_1  and  O_2
REMARK    2  A    between atoms: O_2  and  C_3
REMARK    3  A    between atoms: N_11  and  C_12
REMARK    4  A    between atoms: C_12  and  C_13
REMARK    5  A    between atoms: C_13  and  C_15
REMARK                            x       y       z     vdW  Elec       q    Type
REMARK                         _______ _______ _______ _____ _____    ______ ____
ROOT
ATOM      1  C   UNL     1       7.068   5.112  14.591  0.00  0.00    +0.000 A 
ATOM      2  N   UNL     1       6.200   4.210  14.058  0.00  0.00    +0.000 NA
ATOM      3  C   UNL     1       5.179   3.787  14.832  0.00  0.00    +0.000 A 
ATOM      4  N   UNL     1       4.884   4.146  16.096  0.00  0.00    +0.000 NA
ATOM      5  C   UNL     1       5.777   5.034  16.566  0.00  0.00    +0.000 A 
ATOM      6  C   UNL     1       6.869   5.567  15.900  0.00  0.00    +0.000 A 
ATOM      7  N   UNL     1       7.531   6.474  16.702  0.00  0.00    +0.000 NA
ATOM      8  C   UNL     1       6.856   6.488  17.833  0.00  0.00    +0.000 A 
ATOM      9  N   UNL     1       5.789   5.631  17.799  0.00  0.00    +0.000 N 
ENDROOT
BRANCH   1  11
ATOM     10  C   UNL     1       7.980   5.346  12.448  0.00  0.00    +0.000 C 
ATOM     11  O   UNL     1       8.130   5.581  13.842  0.00  0.00    +0.000 OA
ENDBRANCH   1  11
BRANCH   9  12
ATOM     12  C   UNL     1       4.754   5.511  18.808  0.00  0.00    +0.000 C 
BRANCH  12  13
ATOM     13  C   UNL     1       4.548   4.105  19.328  0.00  0.00    +0.000 C 
ATOM     14  O   UNL     1       5.464   3.333  19.591  0.00  0.00    +0.000 OA
BRANCH  13  15
ATOM     15  C   UNL     1       3.137   3.657  19.523  0.00  0.00    +0.000 A 
ATOM     16  C   UNL     1       2.448   3.106  18.435  0.00  0.00    +0.000 A 
ATOM     17  C   UNL     1       1.103   2.751  18.567  0.00  0.00    +0.000 A 
ATOM     18  C   UNL     1       0.450   2.926  19.786  0.00  0.00    +0.000 A 
ATOM     19  C   UNL     1       1.141   3.439  20.883  0.00  0.00    +0.000 A 
ATOM     20  C   UNL     1       2.485   3.800  20.754  0.00  0.00    +0.000 A 
ENDBRANCH  13  15
ENDBRANCH  12  13
ENDBRANCH   9  12
TORSDOF 4
ENDMDL
