MODEL 1
REMARK VINA RESULT:      -8.0      0.000      0.000
REMARK  Name = 
REMARK  5 active torsions:
REMARK  status: ('A' for Active; 'I' for Inactive)
REMARK    1  A    between atoms: N_3  and  C_4
REMARK    2  A    between atoms: C_4  and  C_5
REMARK    3  A    between atoms: C_16  and  O_17
REMARK    4  A    between atoms: C_16  and  C_18
REMARK    5  A    between atoms: C_18  and  N_19
REMARK                            x       y       z     vdW  Elec       q    Type
REMARK                         _______ _______ _______ _____ _____    ______ ____
ROOT
ATOM      1  O   UNL     1       7.201   5.182  19.478  0.00  0.00    +0.000 OA
ATOM      2  C   UNL     1       6.431   5.293  18.527  0.00  0.00    +0.000 C 
ATOM      3  N   UNL     1       5.180   4.681  18.461  0.00  0.00    +0.000 N 
ATOM      4  C   UNL     1       4.084   5.551  18.060  0.00  0.00    +0.000 C 
ATOM      5  C   UNL     1       4.354   6.236  16.729  0.00  0.00    +0.000 C 
ATOM      6  C   UNL     1       5.697   6.963  16.757  0.00  0.00    +0.000 C 
ATOM      7  C   UNL     1       6.844   6.064  17.233  0.00  0.00    +0.000 C 
ENDROOT
BRANCH   7   8
ATOM      8  O   UNL     1       7.978   6.899  17.508  0.00  0.00    +0.000 OA
ATOM      9  H   UNL     1       7.765   7.407  18.314  0.00  0.00    +0.000 HD
ENDBRANCH   7   8
BRANCH   3  10
ATOM     10  C   UNL     1       4.857   3.568  19.358  0.00  0.00    +0.000 C 
BRANCH  10  11
ATOM     11  C   UNL     1       3.367   3.490  19.629  0.00  0.00    +0.000 A 
ATOM     12  C   UNL     1       2.757   4.286  20.620  0.00  0.00    +0.000 A 
ATOM     13  C   UNL     1       1.384   4.202  20.866  0.00  0.00    +0.000 A 
ATOM     14  C   UNL     1       0.586   3.336  20.123  0.00  0.00    +0.000 A 
ATOM     15  C   UNL     1       1.175   2.562  19.126  0.00  0.00    +0.000 A 
ATOM     16  F   UNL     1       0.407   1.737  18.401  0.00  0.00    +0.000 F 
ATOM     17  C   UNL     1       2.547   2.636  18.881  0.00  0.00    +0.000 A 
ATOM     18  F   UNL     1       3.082   1.882  17.913  0.00  0.00    +0.000 F 
ENDBRANCH  10  11
ENDBRANCH   3  10
BRANCH   7  19
ATOM     19  C   UNL     1       7.241   4.956  16.200  0.00  0.00    +0.000 C 
BRANCH  19  20
ATOM     20  N   UNL     1       6.736   5.033  14.796  0.00  0.00    +0.000 NA
ATOM     21  C   UNL     1       7.843   5.260  13.848  0.00  0.00    +0.000 C 
ATOM     22  C   UNL     1       7.504   5.173  12.351  0.00  0.00    +0.000 C 
ATOM     23  C   UNL     1       7.186   3.751  11.907  0.00  0.00    +0.000 C 
ATOM     24  O   UNL     1       5.823   3.377  12.048  0.00  0.00    +0.000 OA
ATOM     25  C   UNL     1       5.155   3.870  13.206  0.00  0.00    +0.000 C 
ATOM     26  C   UNL     1       5.972   3.796  14.504  0.00  0.00    +0.000 C 
ENDBRANCH  19  20
ENDBRANCH   7  19
TORSDOF 5
ENDMDL
MODEL 2
REMARK VINA RESULT:      -7.7      3.589      6.841
REMARK  Name = 
REMARK  5 active torsions:
REMARK  status: ('A' for Active; 'I' for Inactive)
REMARK    1  A    between atoms: N_3  and  C_4
REMARK    2  A    between atoms: C_4  and  C_5
REMARK    3  A    between atoms: C_16  and  O_17
REMARK    4  A    between atoms: C_16  and  C_18
REMARK    5  A    between atoms: C_18  and  N_19
REMARK                            x       y       z     vdW  Elec       q    Type
REMARK                         _______ _______ _______ _____ _____    ______ ____
ROOT
ATOM      1  O   UNL     1       4.816   3.133  19.815  0.00  0.00    +0.000 OA
ATOM      2  C   UNL     1       3.950   3.739  19.186  0.00  0.00    +0.000 C 
ATOM      3  N   UNL     1       4.030   4.022  17.823  0.00  0.00    +0.000 N 
ATOM      4  C   UNL     1       2.839   3.700  17.052  0.00  0.00    +0.000 C 
ATOM      5  C   UNL     1       1.595   4.375  17.611  0.00  0.00    +0.000 C 
ATOM      6  C   UNL     1       1.431   4.063  19.097  0.00  0.00    +0.000 C 
ATOM      7  C   UNL     1       2.703   4.348  19.904  0.00  0.00    +0.000 C 
ENDROOT
BRANCH   7   8
ATOM      8  O   UNL     1       2.551   3.753  21.199  0.00  0.00    +0.000 OA
ATOM      9  H   UNL     1       3.099   2.944  21.205  0.00  0.00    +0.000 HD
ENDBRANCH   7   8
BRANCH   3  10
ATOM     10  C   UNL     1       5.318   3.942  17.130  0.00  0.00    +0.000 C 
BRANCH  10  11
ATOM     11  C   UNL     1       6.266   5.029  17.598  0.00  0.00    +0.000 A 
ATOM     12  C   UNL     1       7.291   4.760  18.528  0.00  0.00    +0.000 A 
ATOM     13  C   UNL     1       8.156   5.771  18.958  0.00  0.00    +0.000 A 
ATOM     14  C   UNL     1       8.028   7.066  18.463  0.00  0.00    +0.000 A 
ATOM     15  C   UNL     1       7.033   7.337  17.528  0.00  0.00    +0.000 A 
ATOM     16  F   UNL     1       6.916   8.580  17.040  0.00  0.00    +0.000 F 
ATOM     17  C   UNL     1       6.162   6.334  17.100  0.00  0.00    +0.000 A 
ATOM     18  F   UNL     1       5.219   6.626  16.196  0.00  0.00    +0.000 F 
ENDBRANCH  10  11
ENDBRANCH   3  10
BRANCH   7  19
ATOM     19  C   UNL     1       3.019   5.874  20.057  0.00  0.00    +0.000 C 
BRANCH  19  20
ATOM     20  N   UNL     1       2.012   6.889  19.622  0.00  0.00    +0.000 NA
ATOM     21  C   UNL     1       1.532   7.682  20.770  0.00  0.00    +0.000 C 
ATOM     22  C   UNL     1       0.635   8.889  20.453  0.00  0.00    +0.000 C 
ATOM     23  C   UNL     1       1.397  10.018  19.771  0.00  0.00    +0.000 C 
ATOM     24  O   UNL     1       1.453   9.923  18.354  0.00  0.00    +0.000 OA
ATOM     25  C   UNL     1       1.603   8.611  17.820  0.00  0.00    +0.000 C 
ATOM     26  C   UNL     1       2.618   7.725  18.558  0.00  0.00    +0.000 C 
ENDBRANCH  19  20
ENDBRANCH   7  19
TORSDOF 5
ENDMDL
MODEL 3
REMARK VINA RESULT:      -7.7      1.126      1.512
REMARK  Name = 
REMARK  5 active torsions:
REMARK  status: ('A' for Active; 'I' for Inactive)
REMARK    1  A    between atoms: N_3  and  C_4
REMARK    2  A    between atoms: C_4  and  C_5
REMARK    3  A    between atoms: C_16  and  O_17
REMARK    4  A    between atoms: C_16  and  C_18
REMARK    5  A    between atoms: C_18  and  N_19
REMARK                            x       y       z     vdW  Elec       q    Type
REMARK                         _______ _______ _______ _____ _____    ______ ____
ROOT
ATOM      1  O   UNL     1       7.394   5.536  19.341  0.00  0.00    +0.000 OA
ATOM      2  C   UNL     1       6.569   5.594  18.432  0.00  0.00    +0.000 C 
ATOM      3  N   UNL     1       5.299   5.020  18.494  0.00  0.00    +0.000 N 
ATOM      4  C   UNL     1       4.205   5.889  18.089  0.00  0.00    +0.000 C 
ATOM      5  C   UNL     1       4.410   6.455  16.692  0.00  0.00    +0.000 C 
ATOM      6  C   UNL     1       5.771   7.137  16.577  0.00  0.00    +0.000 C 
ATOM      7  C   UNL     1       6.921   6.243  17.056  0.00  0.00    +0.000 C 
ENDROOT
BRANCH   7   8
ATOM      8  O   UNL     1       8.092   7.059  17.192  0.00  0.00    +0.000 OA
ATOM      9  H   UNL     1       8.739   6.736  16.534  0.00  0.00    +0.000 HD
ENDBRANCH   7   8
BRANCH   3  10
ATOM     10  C   UNL     1       5.003   3.995  19.498  0.00  0.00    +0.000 C 
BRANCH  10  11
ATOM     11  C   UNL     1       3.649   3.356  19.253  0.00  0.00    +0.000 A 
ATOM     12  C   UNL     1       3.437   2.470  18.178  0.00  0.00    +0.000 A 
ATOM     13  C   UNL     1       2.184   1.892  17.958  0.00  0.00    +0.000 A 
ATOM     14  C   UNL     1       1.119   2.172  18.810  0.00  0.00    +0.000 A 
ATOM     15  C   UNL     1       1.323   3.029  19.888  0.00  0.00    +0.000 A 
ATOM     16  F   UNL     1       0.304   3.290  20.717  0.00  0.00    +0.000 F 
ATOM     17  C   UNL     1       2.571   3.615  20.109  0.00  0.00    +0.000 A 
ATOM     18  F   UNL     1       2.736   4.431  21.157  0.00  0.00    +0.000 F 
ENDBRANCH  10  11
ENDBRANCH   3  10
BRANCH   7  19
ATOM     19  C   UNL     1       7.222   5.042  16.097  0.00  0.00    +0.000 C 
BRANCH  19  20
ATOM     20  N   UNL     1       6.703   5.063  14.696  0.00  0.00    +0.000 NA
ATOM     21  C   UNL     1       7.804   5.239  13.728  0.00  0.00    +0.000 C 
ATOM     22  C   UNL     1       7.450   5.091  12.240  0.00  0.00    +0.000 C 
ATOM     23  C   UNL     1       7.118   3.654  11.861  0.00  0.00    +0.000 C 
ATOM     24  O   UNL     1       5.752   3.297  12.029  0.00  0.00    +0.000 OA
ATOM     25  C   UNL     1       5.099   3.845  13.171  0.00  0.00    +0.000 C 
ATOM     26  C   UNL     1       5.928   3.820  14.464  0.00  0.00    +0.000 C 
ENDBRANCH  19  20
ENDBRANCH   7  19
TORSDOF 5
ENDMDL
MODEL 4
REMARK VINA RESULT:      -7.6      4.004      5.575
REMARK  Name = 
REMARK  5 active torsions:
REMARK  status: ('A' for Active; 'I' for Inactive)
REMARK    1  A    between atoms: N_3  and  C_4
REMARK    2  A    between atoms: C_4  and  C_5
REMARK    3  A    between atoms: C_16  and  O_17
REMARK    4  A    between atoms: C_16  and  C_18
REMARK    5  A    between atoms: C_18  and  N_19
REMARK                            x       y       z     vdW  Elec       q    Type
REMARK                         _______ _______ _______ _____ _____    ______ ____
ROOT
ATOM      1  O   UNL     1       1.769   5.659  17.486  0.00  0.00    +0.000 OA
ATOM      2  C   UNL     1       2.045   5.091  18.541  0.00  0.00    +0.000 C 
ATOM      3  N   UNL     1       2.428   5.754  19.706  0.00  0.00    +0.000 N 
ATOM      4  C   UNL     1       1.735   5.336  20.915  0.00  0.00    +0.000 C 
ATOM      5  C   UNL     1       1.853   3.838  21.153  0.00  0.00    +0.000 C 
ATOM      6  C   UNL     1       1.403   3.056  19.921  0.00  0.00    +0.000 C 
ATOM      7  C   UNL     1       2.091   3.533  18.636  0.00  0.00    +0.000 C 
ENDROOT
BRANCH   7   8
ATOM      8  O   UNL     1       1.396   2.959  17.521  0.00  0.00    +0.000 OA
ATOM      9  H   UNL     1       2.059   2.470  16.997  0.00  0.00    +0.000 HD
ENDBRANCH   7   8
BRANCH   3  10
ATOM     10  C   UNL     1       2.886   7.145  19.645  0.00  0.00    +0.000 C 
BRANCH  10  11
ATOM     11  C   UNL     1       1.747   8.114  19.901  0.00  0.00    +0.000 A 
ATOM     12  C   UNL     1       1.144   8.220  21.170  0.00  0.00    +0.000 A 
ATOM     13  C   UNL     1       0.091   9.113  21.394  0.00  0.00    +0.000 A 
ATOM     14  C   UNL     1      -0.374   9.927  20.365  0.00  0.00    +0.000 A 
ATOM     15  C   UNL     1       0.230   9.845  19.113  0.00  0.00    +0.000 A 
ATOM     16  F   UNL     1      -0.208  10.636  18.124  0.00  0.00    +0.000 F 
ATOM     17  C   UNL     1       1.277   8.951  18.881  0.00  0.00    +0.000 A 
ATOM     18  F   UNL     1       1.839   8.900  17.668  0.00  0.00    +0.000 F 
ENDBRANCH  10  11
ENDBRANCH   3  10
BRANCH   7  19
ATOM     19  C   UNL     1       3.609   3.159  18.563  0.00  0.00    +0.000 C 
BRANCH  19  20
ATOM     20  N   UNL     1       4.594   4.151  18.033  0.00  0.00    +0.000 NA
ATOM     21  C   UNL     1       5.630   4.454  19.038  0.00  0.00    +0.000 C 
ATOM     22  C   UNL     1       6.818   5.313  18.573  0.00  0.00    +0.000 C 
ATOM     23  C   UNL     1       7.730   4.570  17.605  0.00  0.00    +0.000 C 
ATOM     24  O   UNL     1       7.356   4.677  16.238  0.00  0.00    +0.000 OA
ATOM     25  C   UNL     1       5.957   4.660  15.969  0.00  0.00    +0.000 C 
ATOM     26  C   UNL     1       5.157   3.621  16.767  0.00  0.00    +0.000 C 
ENDBRANCH  19  20
ENDBRANCH   7  19
TORSDOF 5
ENDMDL
MODEL 5
REMARK VINA RESULT:      -7.5      3.645      6.797
REMARK  Name = 
REMARK  5 active torsions:
REMARK  status: ('A' for Active; 'I' for Inactive)
REMARK    1  A    between atoms: N_3  and  C_4
REMARK    2  A    between atoms: C_4  and  C_5
REMARK    3  A    between atoms: C_16  and  O_17
REMARK    4  A    between atoms: C_16  and  C_18
REMARK    5  A    between atoms: C_18  and  N_19
REMARK                            x       y       z     vdW  Elec       q    Type
REMARK                         _______ _______ _______ _____ _____    ______ ____
ROOT
ATOM      1  O   UNL     1       4.707   2.304  20.096  0.00  0.00    +0.000 OA
ATOM      2  C   UNL     1       3.735   2.911  19.650  0.00  0.00    +0.000 C 
ATOM      3  N   UNL     1       3.587   3.271  18.311  0.00  0.00    +0.000 N 
ATOM      4  C   UNL     1       2.297   2.949  17.721  0.00  0.00    +0.000 C 
ATOM      5  C   UNL     1       1.142   3.547  18.509  0.00  0.00    +0.000 C 
ATOM      6  C   UNL     1       1.227   3.149  19.981  0.00  0.00    +0.000 C 
ATOM      7  C   UNL     1       2.604   3.435  20.591  0.00  0.00    +0.000 C 
ENDROOT
BRANCH   7   8
ATOM      8  O   UNL     1       2.678   2.764  21.857  0.00  0.00    +0.000 OA
ATOM      9  H   UNL     1       2.711   3.459  22.543  0.00  0.00    +0.000 HD
ENDBRANCH   7   8
BRANCH   3  10
ATOM     10  C   UNL     1       4.749   3.276  17.418  0.00  0.00    +0.000 C 
BRANCH  10  11
ATOM     11  C   UNL     1       5.343   4.666  17.291  0.00  0.00    +0.000 A 
ATOM     12  C   UNL     1       4.743   5.651  16.482  0.00  0.00    +0.000 A 
ATOM     13  C   UNL     1       5.302   6.927  16.369  0.00  0.00    +0.000 A 
ATOM     14  C   UNL     1       6.462   7.254  17.066  0.00  0.00    +0.000 A 
ATOM     15  C   UNL     1       7.050   6.294  17.885  0.00  0.00    +0.000 A 
ATOM     16  F   UNL     1       8.159   6.610  18.568  0.00  0.00    +0.000 F 
ATOM     17  C   UNL     1       6.500   5.016  17.998  0.00  0.00    +0.000 A 
ATOM     18  F   UNL     1       7.088   4.117  18.797  0.00  0.00    +0.000 F 
ENDBRANCH  10  11
ENDBRANCH   3  10
BRANCH   7  19
ATOM     19  C   UNL     1       2.899   4.960  20.783  0.00  0.00    +0.000 C 
BRANCH  19  20
ATOM     20  N   UNL     1       2.004   5.976  20.150  0.00  0.00    +0.000 NA
ATOM     21  C   UNL     1       1.352   6.816  21.173  0.00  0.00    +0.000 C 
ATOM     22  C   UNL     1       0.550   8.026  20.670  0.00  0.00    +0.000 C 
ATOM     23  C   UNL     1       1.442   9.118  20.094  0.00  0.00    +0.000 C 
ATOM     24  O   UNL     1       1.738   8.975  18.712  0.00  0.00    +0.000 OA
ATOM     25  C   UNL     1       1.949   7.642  18.253  0.00  0.00    +0.000 C 
ATOM     26  C   UNL     1       2.802   6.765  19.181  0.00  0.00    +0.000 C 
ENDBRANCH  19  20
ENDBRANCH   7  19
TORSDOF 5
ENDMDL
MODEL 6
REMARK VINA RESULT:      -7.5      3.538      6.652
REMARK  Name = 
REMARK  5 active torsions:
REMARK  status: ('A' for Active; 'I' for Inactive)
REMARK    1  A    between atoms: N_3  and  C_4
REMARK    2  A    between atoms: C_4  and  C_5
REMARK    3  A    between atoms: C_16  and  O_17
REMARK    4  A    between atoms: C_16  and  C_18
REMARK    5  A    between atoms: C_18  and  N_19
REMARK                            x       y       z     vdW  Elec       q    Type
REMARK                         _______ _______ _______ _____ _____    ______ ____
ROOT
ATOM      1  O   UNL     1       4.221   2.159  20.776  0.00  0.00    +0.000 OA
ATOM      2  C   UNL     1       3.371   2.801  20.162  0.00  0.00    +0.000 C 
ATOM      3  N   UNL     1       3.438   3.079  18.798  0.00  0.00    +0.000 N 
ATOM      4  C   UNL     1       2.220   2.810  18.048  0.00  0.00    +0.000 C 
ATOM      5  C   UNL     1       1.018   3.539  18.629  0.00  0.00    +0.000 C 
ATOM      6  C   UNL     1       0.868   3.236  20.118  0.00  0.00    +0.000 C 
ATOM      7  C   UNL     1       2.166   3.465  20.901  0.00  0.00    +0.000 C 
ENDROOT
BRANCH   7   8
ATOM      8  O   UNL     1       2.011   2.878  22.200  0.00  0.00    +0.000 OA
ATOM      9  H   UNL     1       2.456   2.008  22.172  0.00  0.00    +0.000 HD
ENDBRANCH   7   8
BRANCH   3  10
ATOM     10  C   UNL     1       4.709   2.943  18.081  0.00  0.00    +0.000 C 
BRANCH  10  11
ATOM     11  C   UNL     1       5.301   4.298  17.743  0.00  0.00    +0.000 A 
ATOM     12  C   UNL     1       6.236   4.924  18.592  0.00  0.00    +0.000 A 
ATOM     13  C   UNL     1       6.771   6.176  18.274  0.00  0.00    +0.000 A 
ATOM     14  C   UNL     1       6.398   6.824  17.100  0.00  0.00    +0.000 A 
ATOM     15  C   UNL     1       5.492   6.204  16.243  0.00  0.00    +0.000 A 
ATOM     16  F   UNL     1       5.142   6.821  15.106  0.00  0.00    +0.000 F 
ATOM     17  C   UNL     1       4.949   4.958  16.559  0.00  0.00    +0.000 A 
ATOM     18  F   UNL     1       4.084   4.386  15.712  0.00  0.00    +0.000 F 
ENDBRANCH  10  11
ENDBRANCH   3  10
BRANCH   7  19
ATOM     19  C   UNL     1       2.551   4.975  21.046  0.00  0.00    +0.000 C 
BRANCH  19  20
ATOM     20  N   UNL     1       1.838   6.006  20.232  0.00  0.00    +0.000 NA
ATOM     21  C   UNL     1       1.214   7.025  21.098  0.00  0.00    +0.000 C 
ATOM     22  C   UNL     1       0.606   8.252  20.400  0.00  0.00    +0.000 C 
ATOM     23  C   UNL     1       1.666   9.164  19.798  0.00  0.00    +0.000 C 
ATOM     24  O   UNL     1       2.050   8.831  18.471  0.00  0.00    +0.000 OA
ATOM     25  C   UNL     1       2.133   7.440  18.174  0.00  0.00    +0.000 C 
ATOM     26  C   UNL     1       2.799   6.585  19.262  0.00  0.00    +0.000 C 
ENDBRANCH  19  20
ENDBRANCH   7  19
TORSDOF 5
ENDMDL
MODEL 7
REMARK VINA RESULT:      -7.4      3.529      5.090
REMARK  Name = 
REMARK  5 active torsions:
REMARK  status: ('A' for Active; 'I' for Inactive)
REMARK    1  A    between atoms: N_3  and  C_4
REMARK    2  A    between atoms: C_4  and  C_5
REMARK    3  A    between atoms: C_16  and  O_17
REMARK    4  A    between atoms: C_16  and  C_18
REMARK    5  A    between atoms: C_18  and  N_19
REMARK                            x       y       z     vdW  Elec       q    Type
REMARK                         _______ _______ _______ _____ _____    ______ ____
ROOT
ATOM      1  O   UNL     1       0.632   3.518  18.959  0.00  0.00    +0.000 OA
ATOM      2  C   UNL     1       1.852   3.452  19.098  0.00  0.00    +0.000 C 
ATOM      3  N   UNL     1       2.562   4.131  20.087  0.00  0.00    +0.000 N 
ATOM      4  C   UNL     1       3.516   3.323  20.832  0.00  0.00    +0.000 C 
ATOM      5  C   UNL     1       4.513   2.627  19.917  0.00  0.00    +0.000 C 
ATOM      6  C   UNL     1       3.789   1.828  18.835  0.00  0.00    +0.000 C 
ATOM      7  C   UNL     1       2.742   2.662  18.087  0.00  0.00    +0.000 C 
ENDROOT
BRANCH   7   8
ATOM      8  O   UNL     1       1.926   1.766  17.320  0.00  0.00    +0.000 OA
ATOM      9  H   UNL     1       2.514   1.058  16.992  0.00  0.00    +0.000 HD
ENDBRANCH   7   8
BRANCH   3  10
ATOM     10  C   UNL     1       1.946   5.258  20.792  0.00  0.00    +0.000 C 
BRANCH  10  11
ATOM     11  C   UNL     1       2.010   6.529  19.966  0.00  0.00    +0.000 A 
ATOM     12  C   UNL     1       2.613   6.548  18.692  0.00  0.00    +0.000 A 
ATOM     13  C   UNL     1       2.671   7.725  17.942  0.00  0.00    +0.000 A 
ATOM     14  C   UNL     1       2.122   8.905  18.436  0.00  0.00    +0.000 A 
ATOM     15  C   UNL     1       1.505   8.892  19.684  0.00  0.00    +0.000 A 
ATOM     16  F   UNL     1       0.963  10.023  20.157  0.00  0.00    +0.000 F 
ATOM     17  C   UNL     1       1.449   7.720  20.441  0.00  0.00    +0.000 A 
ATOM     18  F   UNL     1       0.844   7.740  21.636  0.00  0.00    +0.000 F 
ENDBRANCH  10  11
ENDBRANCH   3  10
BRANCH   7  19
ATOM     19  C   UNL     1       3.363   3.748  17.146  0.00  0.00    +0.000 C 
BRANCH  19  20
ATOM     20  N   UNL     1       4.801   3.654  16.749  0.00  0.00    +0.000 NA
ATOM     21  C   UNL     1       4.951   3.749  15.285  0.00  0.00    +0.000 C 
ATOM     22  C   UNL     1       6.385   3.858  14.740  0.00  0.00    +0.000 C 
ATOM     23  C   UNL     1       7.032   5.198  15.066  0.00  0.00    +0.000 C 
ATOM     24  O   UNL     1       7.703   5.243  16.318  0.00  0.00    +0.000 OA
ATOM     25  C   UNL     1       7.081   4.534  17.386  0.00  0.00    +0.000 C 
ATOM     26  C   UNL     1       5.557   4.703  17.475  0.00  0.00    +0.000 C 
ENDBRANCH  19  20
ENDBRANCH   7  19
TORSDOF 5
ENDMDL
MODEL 8
REMARK VINA RESULT:      -7.4      1.351      1.471
REMARK  Name = 
REMARK  5 active torsions:
REMARK  status: ('A' for Active; 'I' for Inactive)
REMARK    1  A    between atoms: N_3  and  C_4
REMARK    2  A    between atoms: C_4  and  C_5
REMARK    3  A    between atoms: C_16  and  O_17
REMARK    4  A    between atoms: C_16  and  C_18
REMARK    5  A    between atoms: C_18  and  N_19
REMARK                            x       y       z     vdW  Elec       q    Type
REMARK                         _______ _______ _______ _____ _____    ______ ____
ROOT
ATOM      1  O   UNL     1       6.105   4.011  19.130  0.00  0.00    +0.000 OA
ATOM      2  C   UNL     1       5.822   4.639  18.112  0.00  0.00    +0.000 C 
ATOM      3  N   UNL     1       4.645   4.460  17.387  0.00  0.00    +0.000 N 
ATOM      4  C   UNL     1       3.937   5.683  17.040  0.00  0.00    +0.000 C 
ATOM      5  C   UNL     1       4.823   6.663  16.284  0.00  0.00    +0.000 C 
ATOM      6  C   UNL     1       6.113   6.932  17.055  0.00  0.00    +0.000 C 
ATOM      7  C   UNL     1       6.832   5.644  17.471  0.00  0.00    +0.000 C 
ENDROOT
BRANCH   7   8
ATOM      8  O   UNL     1       7.845   5.987  18.427  0.00  0.00    +0.000 OA
ATOM      9  H   UNL     1       7.802   6.956  18.547  0.00  0.00    +0.000 HD
ENDBRANCH   7   8
BRANCH   3  10
ATOM     10  C   UNL     1       3.838   3.252  17.580  0.00  0.00    +0.000 C 
BRANCH  10  11
ATOM     11  C   UNL     1       2.946   3.372  18.801  0.00  0.00    +0.000 A 
ATOM     12  C   UNL     1       1.796   4.187  18.795  0.00  0.00    +0.000 A 
ATOM     13  C   UNL     1       0.985   4.294  19.928  0.00  0.00    +0.000 A 
ATOM     14  C   UNL     1       1.292   3.585  21.086  0.00  0.00    +0.000 A 
ATOM     15  C   UNL     1       2.414   2.761  21.095  0.00  0.00    +0.000 A 
ATOM     16  F   UNL     1       2.706   2.068  22.204  0.00  0.00    +0.000 F 
ATOM     17  C   UNL     1       3.233   2.655  19.969  0.00  0.00    +0.000 A 
ATOM     18  F   UNL     1       4.302   1.850  20.009  0.00  0.00    +0.000 F 
ENDBRANCH  10  11
ENDBRANCH   3  10
BRANCH   7  19
ATOM     19  C   UNL     1       7.478   4.872  16.272  0.00  0.00    +0.000 C 
BRANCH  19  20
ATOM     20  N   UNL     1       6.895   5.006  14.902  0.00  0.00    +0.000 NA
ATOM     21  C   UNL     1       7.943   5.321  13.911  0.00  0.00    +0.000 C 
ATOM     22  C   UNL     1       7.527   5.303  12.431  0.00  0.00    +0.000 C 
ATOM     23  C   UNL     1       7.231   3.897  11.927  0.00  0.00    +0.000 C 
ATOM     24  O   UNL     1       5.889   3.470  12.117  0.00  0.00    +0.000 OA
ATOM     25  C   UNL     1       5.269   3.877  13.334  0.00  0.00    +0.000 C 
ATOM     26  C   UNL     1       6.156   3.761  14.582  0.00  0.00    +0.000 C 
ENDBRANCH  19  20
ENDBRANCH   7  19
TORSDOF 5
ENDMDL
MODEL 9
REMARK VINA RESULT:      -7.2      4.153      5.749
REMARK  Name = 
REMARK  5 active torsions:
REMARK  status: ('A' for Active; 'I' for Inactive)
REMARK    1  A    between atoms: N_3  and  C_4
REMARK    2  A    between atoms: C_4  and  C_5
REMARK    3  A    between atoms: C_16  and  O_17
REMARK    4  A    between atoms: C_16  and  C_18
REMARK    5  A    between atoms: C_18  and  N_19
REMARK                            x       y       z     vdW  Elec       q    Type
REMARK                         _______ _______ _______ _____ _____    ______ ____
ROOT
ATOM      1  O   UNL     1       2.015   6.177  17.396  0.00  0.00    +0.000 OA
ATOM      2  C   UNL     1       2.085   5.511  18.428  0.00  0.00    +0.000 C 
ATOM      3  N   UNL     1       2.264   6.057  19.698  0.00  0.00    +0.000 N 
ATOM      4  C   UNL     1       1.356   5.561  20.721  0.00  0.00    +0.000 C 
ATOM      5  C   UNL     1       1.400   4.045  20.839  0.00  0.00    +0.000 C 
ATOM      6  C   UNL     1       1.165   3.388  19.481  0.00  0.00    +0.000 C 
ATOM      7  C   UNL     1       2.082   3.949  18.388  0.00  0.00    +0.000 C 
ENDROOT
BRANCH   7   8
ATOM      8  O   UNL     1       1.589   3.498  17.119  0.00  0.00    +0.000 OA
ATOM      9  H   UNL     1       0.662   3.223  17.257  0.00  0.00    +0.000 HD
ENDBRANCH   7   8
BRANCH   3  10
ATOM     10  C   UNL     1       2.753   7.431  19.846  0.00  0.00    +0.000 C 
BRANCH  10  11
ATOM     11  C   UNL     1       1.619   8.434  19.752  0.00  0.00    +0.000 A 
ATOM     12  C   UNL     1       1.221   8.980  18.515  0.00  0.00    +0.000 A 
ATOM     13  C   UNL     1       0.179   9.908  18.440  0.00  0.00    +0.000 A 
ATOM     14  C   UNL     1      -0.498  10.303  19.591  0.00  0.00    +0.000 A 
ATOM     15  C   UNL     1      -0.127   9.753  20.815  0.00  0.00    +0.000 A 
ATOM     16  F   UNL     1      -0.785  10.122  21.922  0.00  0.00    +0.000 F 
ATOM     17  C   UNL     1       0.918   8.831  20.897  0.00  0.00    +0.000 A 
ATOM     18  F   UNL     1       1.247   8.317  22.088  0.00  0.00    +0.000 F 
ENDBRANCH  10  11
ENDBRANCH   3  10
BRANCH   7  19
ATOM     19  C   UNL     1       3.581   3.529  18.552  0.00  0.00    +0.000 C 
BRANCH  19  20
ATOM     20  N   UNL     1       4.664   4.419  18.032  0.00  0.00    +0.000 NA
ATOM     21  C   UNL     1       5.663   4.703  19.079  0.00  0.00    +0.000 C 
ATOM     22  C   UNL     1       6.934   5.449  18.643  0.00  0.00    +0.000 C 
ATOM     23  C   UNL     1       7.841   4.593  17.768  0.00  0.00    +0.000 C 
ATOM     24  O   UNL     1       7.551   4.653  16.378  0.00  0.00    +0.000 OA
ATOM     25  C   UNL     1       6.172   4.720  16.028  0.00  0.00    +0.000 C 
ATOM     26  C   UNL     1       5.255   3.784  16.829  0.00  0.00    +0.000 C 
ENDBRANCH  19  20
ENDBRANCH   7  19
TORSDOF 5
ENDMDL
