MODEL 1
REMARK VINA RESULT:      -9.3      0.000      0.000
REMARK  Name = 
REMARK  6 active torsions:
REMARK  status: ('A' for Active; 'I' for Inactive)
REMARK    1  A    between atoms: C_1  and  C_2
REMARK    2  A    between atoms: C_4  and  C_5
REMARK    3  A    between atoms: C_5  and  O_6
REMARK    4  A    between atoms: C_13  and  C_14
REMARK    5  A    between atoms: C_15  and  C_16
REMARK    6  A    between atoms: C_19  and  C_20
REMARK                            x       y       z     vdW  Elec       q    Type
REMARK                         _______ _______ _______ _____ _____    ______ ____
ROOT
ATOM      1  C   UNL     1       2.684   5.574  19.538  0.00  0.00    +0.000 C 
ATOM      2  C   UNL     1       1.530   4.557  19.864  0.00  0.00    +0.000 C 
ATOM      3  O   UNL     1       0.792   4.570  20.836  0.00  0.00    +0.000 OA
ATOM      4  N   UNL     1       1.530   3.588  18.859  0.00  0.00    +0.000 N 
ATOM      5  C   UNL     1       2.557   3.807  17.953  0.00  0.00    +0.000 A 
ATOM      6  C   UNL     1       2.910   3.033  16.870  0.00  0.00    +0.000 A 
ATOM      7  C   UNL     1       4.043   3.423  16.135  0.00  0.00    +0.000 A 
ATOM      8  C   UNL     1       4.773   4.592  16.458  0.00  0.00    +0.000 A 
ATOM      9  C   UNL     1       4.336   5.381  17.530  0.00  0.00    +0.000 A 
ATOM     10  C   UNL     1       3.258   4.959  18.288  0.00  0.00    +0.000 A 
ATOM     11  H   UNL     1       0.897   2.802  18.859  0.00  0.00    +0.000 HD
ENDROOT
BRANCH   1  15
ATOM     12  C   UNL     1       0.581   9.807  21.362  0.00  0.00    +0.000 C 
ATOM     13  C   UNL     1       1.158   9.034  20.217  0.00  0.00    +0.000 A 
ATOM     14  C   UNL     1       1.658   7.738  20.402  0.00  0.00    +0.000 A 
ATOM     15  C   UNL     1       2.196   7.004  19.325  0.00  0.00    +0.000 A 
ATOM     16  C   UNL     1       2.206   7.599  18.049  0.00  0.00    +0.000 A 
ATOM     17  C   UNL     1       1.718   8.892  17.861  0.00  0.00    +0.000 A 
ATOM     18  C   UNL     1       1.204   9.597  18.943  0.00  0.00    +0.000 A 
ATOM     19  F   UNL     1       0.728  10.835  18.745  0.00  0.00    +0.000 F 
ENDBRANCH   1  15
BRANCH   8  20
ATOM     20  C   UNL     1       5.979   4.963  15.727  0.00  0.00    +0.000 A 
ATOM     21  C   UNL     1       6.450   4.634  14.420  0.00  0.00    +0.000 A 
ATOM     22  C   UNL     1       5.837   3.812  13.350  0.00  0.00    +0.000 C 
ATOM     23  N   UNL     1       7.638   5.198  14.171  0.00  0.00    +0.000 NA
ATOM     24  O   UNL     1       7.970   5.902  15.303  0.00  0.00    +0.000 OA
ATOM     25  C   UNL     1       6.992   5.762  16.236  0.00  0.00    +0.000 A 
ATOM     26  C   UNL     1       7.254   6.455  17.517  0.00  0.00    +0.000 C 
ENDBRANCH   8  20
BRANCH   1  27
ATOM     27  O   UNL     1       3.690   5.509  20.547  0.00  0.00    +0.000 OA
ATOM     28  H   UNL     1       3.715   4.576  20.825  0.00  0.00    +0.000 HD
ENDBRANCH   1  27
TORSDOF 3
ENDMDL
MODEL 2
REMARK VINA RESULT:      -9.0      3.237      6.688
REMARK  Name = 
REMARK  6 active torsions:
REMARK  status: ('A' for Active; 'I' for Inactive)
REMARK    1  A    between atoms: C_1  and  C_2
REMARK    2  A    between atoms: C_4  and  C_5
REMARK    3  A    between atoms: C_5  and  O_6
REMARK    4  A    between atoms: C_13  and  C_14
REMARK    5  A    between atoms: C_15  and  C_16
REMARK    6  A    between atoms: C_19  and  C_20
REMARK                            x       y       z     vdW  Elec       q    Type
REMARK                         _______ _______ _______ _____ _____    ______ ____
ROOT
ATOM      1  C   UNL     1       3.231   3.542  17.869  0.00  0.00    +0.000 C 
ATOM      2  C   UNL     1       3.343   2.215  18.705  0.00  0.00    +0.000 C 
ATOM      3  O   UNL     1       3.598   1.099  18.281  0.00  0.00    +0.000 OA
ATOM      4  N   UNL     1       3.041   2.529  20.031  0.00  0.00    +0.000 N 
ATOM      5  C   UNL     1       2.699   3.867  20.163  0.00  0.00    +0.000 A 
ATOM      6  C   UNL     1       2.286   4.527  21.299  0.00  0.00    +0.000 A 
ATOM      7  C   UNL     1       1.923   5.879  21.167  0.00  0.00    +0.000 A 
ATOM      8  C   UNL     1       2.020   6.559  19.930  0.00  0.00    +0.000 A 
ATOM      9  C   UNL     1       2.508   5.861  18.818  0.00  0.00    +0.000 A 
ATOM     10  C   UNL     1       2.805   4.514  18.938  0.00  0.00    +0.000 A 
ATOM     11  H   UNL     1       3.013   1.835  20.763  0.00  0.00    +0.000 HD
ENDROOT
BRANCH   1  15
ATOM     12  C   UNL     1       6.035   3.963  13.670  0.00  0.00    +0.000 C 
ATOM     13  C   UNL     1       5.885   4.121  15.152  0.00  0.00    +0.000 A 
ATOM     14  C   UNL     1       4.679   3.804  15.791  0.00  0.00    +0.000 A 
ATOM     15  C   UNL     1       4.535   3.945  17.187  0.00  0.00    +0.000 A 
ATOM     16  C   UNL     1       5.642   4.398  17.931  0.00  0.00    +0.000 A 
ATOM     17  C   UNL     1       6.841   4.724  17.298  0.00  0.00    +0.000 A 
ATOM     18  C   UNL     1       6.951   4.586  15.919  0.00  0.00    +0.000 A 
ATOM     19  F   UNL     1       8.114   4.892  15.326  0.00  0.00    +0.000 F 
ENDBRANCH   1  15
BRANCH   8  20
ATOM     20  C   UNL     1       1.593   7.945  19.787  0.00  0.00    +0.000 A 
ATOM     21  C   UNL     1       0.777   8.789  20.601  0.00  0.00    +0.000 A 
ATOM     22  C   UNL     1       0.110   8.528  21.898  0.00  0.00    +0.000 C 
ATOM     23  N   UNL     1       0.637  10.005  20.059  0.00  0.00    +0.000 NA
ATOM     24  O   UNL     1       1.351   9.984  18.885  0.00  0.00    +0.000 OA
ATOM     25  C   UNL     1       1.917   8.761  18.712  0.00  0.00    +0.000 A 
ATOM     26  C   UNL     1       2.691   8.608  17.460  0.00  0.00    +0.000 C 
ENDBRANCH   8  20
BRANCH   1  27
ATOM     27  O   UNL     1       2.160   3.440  16.933  0.00  0.00    +0.000 OA
ATOM     28  H   UNL     1       2.264   4.205  16.340  0.00  0.00    +0.000 HD
ENDBRANCH   1  27
TORSDOF 3
ENDMDL
MODEL 3
REMARK VINA RESULT:      -8.8      0.722      1.423
REMARK  Name = 
REMARK  6 active torsions:
REMARK  status: ('A' for Active; 'I' for Inactive)
REMARK    1  A    between atoms: C_1  and  C_2
REMARK    2  A    between atoms: C_4  and  C_5
REMARK    3  A    between atoms: C_5  and  O_6
REMARK    4  A    between atoms: C_13  and  C_14
REMARK    5  A    between atoms: C_15  and  C_16
REMARK    6  A    between atoms: C_19  and  C_20
REMARK                            x       y       z     vdW  Elec       q    Type
REMARK                         _______ _______ _______ _____ _____    ______ ____
ROOT
ATOM      1  C   UNL     1       2.643   4.946  19.948  0.00  0.00    +0.000 C 
ATOM      2  C   UNL     1       1.524   3.858  20.141  0.00  0.00    +0.000 C 
ATOM      3  O   UNL     1       0.803   3.711  21.115  0.00  0.00    +0.000 OA
ATOM      4  N   UNL     1       1.534   3.041  19.010  0.00  0.00    +0.000 N 
ATOM      5  C   UNL     1       2.539   3.417  18.131  0.00  0.00    +0.000 A 
ATOM      6  C   UNL     1       2.896   2.816  16.944  0.00  0.00    +0.000 A 
ATOM      7  C   UNL     1       4.004   3.341  16.258  0.00  0.00    +0.000 A 
ATOM      8  C   UNL     1       4.706   4.474  16.734  0.00  0.00    +0.000 A 
ATOM      9  C   UNL     1       4.265   5.090  17.912  0.00  0.00    +0.000 A 
ATOM     10  C   UNL     1       3.212   4.532  18.616  0.00  0.00    +0.000 A 
ATOM     11  H   UNL     1       0.924   2.244  18.906  0.00  0.00    +0.000 HD
ENDROOT
BRANCH   1  15
ATOM     12  C   UNL     1       2.081   9.413  17.625  0.00  0.00    +0.000 C 
ATOM     13  C   UNL     1       1.867   8.536  18.819  0.00  0.00    +0.000 A 
ATOM     14  C   UNL     1       2.304   7.204  18.821  0.00  0.00    +0.000 A 
ATOM     15  C   UNL     1       2.110   6.376  19.946  0.00  0.00    +0.000 A 
ATOM     16  C   UNL     1       1.480   6.924  21.080  0.00  0.00    +0.000 A 
ATOM     17  C   UNL     1       1.036   8.246  21.079  0.00  0.00    +0.000 A 
ATOM     18  C   UNL     1       1.229   9.037  19.952  0.00  0.00    +0.000 A 
ATOM     19  F   UNL     1       0.807  10.309  19.970  0.00  0.00    +0.000 F 
ENDBRANCH   1  15
BRANCH   8  20
ATOM     20  C   UNL     1       5.888   4.982  16.047  0.00  0.00    +0.000 A 
ATOM     21  C   UNL     1       6.413   4.752  14.739  0.00  0.00    +0.000 A 
ATOM     22  C   UNL     1       5.898   3.925  13.622  0.00  0.00    +0.000 C 
ATOM     23  N   UNL     1       7.550   5.429  14.542  0.00  0.00    +0.000 NA
ATOM     24  O   UNL     1       7.795   6.111  15.710  0.00  0.00    +0.000 OA
ATOM     25  C   UNL     1       6.815   5.845  16.612  0.00  0.00    +0.000 A 
ATOM     26  C   UNL     1       6.988   6.504  17.927  0.00  0.00    +0.000 C 
ENDBRANCH   8  20
BRANCH   1  27
ATOM     27  O   UNL     1       3.667   4.770  20.925  0.00  0.00    +0.000 OA
ATOM     28  H   UNL     1       4.271   5.524  20.802  0.00  0.00    +0.000 HD
ENDBRANCH   1  27
TORSDOF 3
ENDMDL
MODEL 4
REMARK VINA RESULT:      -8.8      3.236      6.600
REMARK  Name = 
REMARK  6 active torsions:
REMARK  status: ('A' for Active; 'I' for Inactive)
REMARK    1  A    between atoms: C_1  and  C_2
REMARK    2  A    between atoms: C_4  and  C_5
REMARK    3  A    between atoms: C_5  and  O_6
REMARK    4  A    between atoms: C_13  and  C_14
REMARK    5  A    between atoms: C_15  and  C_16
REMARK    6  A    between atoms: C_19  and  C_20
REMARK                            x       y       z     vdW  Elec       q    Type
REMARK                         _______ _______ _______ _____ _____    ______ ____
ROOT
ATOM      1  C   UNL     1       3.240   3.564  17.827  0.00  0.00    +0.000 C 
ATOM      2  C   UNL     1       3.353   2.243  18.673  0.00  0.00    +0.000 C 
ATOM      3  O   UNL     1       3.609   1.125  18.257  0.00  0.00    +0.000 OA
ATOM      4  N   UNL     1       3.053   2.567  19.997  0.00  0.00    +0.000 N 
ATOM      5  C   UNL     1       2.711   3.906  20.119  0.00  0.00    +0.000 A 
ATOM      6  C   UNL     1       2.298   4.575  21.250  0.00  0.00    +0.000 A 
ATOM      7  C   UNL     1       1.935   5.925  21.109  0.00  0.00    +0.000 A 
ATOM      8  C   UNL     1       2.030   6.596  19.866  0.00  0.00    +0.000 A 
ATOM      9  C   UNL     1       2.518   5.889  18.759  0.00  0.00    +0.000 A 
ATOM     10  C   UNL     1       2.816   4.544  18.889  0.00  0.00    +0.000 A 
ATOM     11  H   UNL     1       3.027   1.879  20.735  0.00  0.00    +0.000 HD
ENDROOT
BRANCH   1  15
ATOM     12  C   UNL     1       6.041   3.950  13.623  0.00  0.00    +0.000 C 
ATOM     13  C   UNL     1       5.892   4.122  15.103  0.00  0.00    +0.000 A 
ATOM     14  C   UNL     1       4.687   3.809  15.745  0.00  0.00    +0.000 A 
ATOM     15  C   UNL     1       4.543   3.962  17.140  0.00  0.00    +0.000 A 
ATOM     16  C   UNL     1       5.650   4.424  17.879  0.00  0.00    +0.000 A 
ATOM     17  C   UNL     1       6.848   4.745  17.243  0.00  0.00    +0.000 A 
ATOM     18  C   UNL     1       6.958   4.595  15.865  0.00  0.00    +0.000 A 
ATOM     19  F   UNL     1       8.120   4.897  15.269  0.00  0.00    +0.000 F 
ENDBRANCH   1  15
BRANCH   8  20
ATOM     20  C   UNL     1       1.602   7.981  19.713  0.00  0.00    +0.000 A 
ATOM     21  C   UNL     1       1.823   8.948  18.685  0.00  0.00    +0.000 A 
ATOM     22  C   UNL     1       2.552   8.842  17.399  0.00  0.00    +0.000 C 
ATOM     23  N   UNL     1       1.243  10.117  18.980  0.00  0.00    +0.000 NA
ATOM     24  O   UNL     1       0.635   9.944  20.200  0.00  0.00    +0.000 OA
ATOM     25  C   UNL     1       0.850   8.679  20.646  0.00  0.00    +0.000 A 
ATOM     26  C   UNL     1       0.266   8.382  21.974  0.00  0.00    +0.000 C 
ENDBRANCH   8  20
BRANCH   1  27
ATOM     27  O   UNL     1       2.169   3.454  16.893  0.00  0.00    +0.000 OA
ATOM     28  H   UNL     1       2.117   2.506  16.671  0.00  0.00    +0.000 HD
ENDBRANCH   1  27
TORSDOF 3
ENDMDL
MODEL 5
REMARK VINA RESULT:      -8.8      0.398      1.598
REMARK  Name = 
REMARK  6 active torsions:
REMARK  status: ('A' for Active; 'I' for Inactive)
REMARK    1  A    between atoms: C_1  and  C_2
REMARK    2  A    between atoms: C_4  and  C_5
REMARK    3  A    between atoms: C_5  and  O_6
REMARK    4  A    between atoms: C_13  and  C_14
REMARK    5  A    between atoms: C_15  and  C_16
REMARK    6  A    between atoms: C_19  and  C_20
REMARK                            x       y       z     vdW  Elec       q    Type
REMARK                         _______ _______ _______ _____ _____    ______ ____
ROOT
ATOM      1  C   UNL     1       2.593   5.534  19.578  0.00  0.00    +0.000 C 
ATOM      2  C   UNL     1       1.417   4.525  19.842  0.00  0.00    +0.000 C 
ATOM      3  O   UNL     1       0.648   4.525  20.789  0.00  0.00    +0.000 OA
ATOM      4  N   UNL     1       1.438   3.580  18.815  0.00  0.00    +0.000 N 
ATOM      5  C   UNL     1       2.497   3.806  17.949  0.00  0.00    +0.000 A 
ATOM      6  C   UNL     1       2.877   3.054  16.859  0.00  0.00    +0.000 A 
ATOM      7  C   UNL     1       4.038   3.447  16.172  0.00  0.00    +0.000 A 
ATOM      8  C   UNL     1       4.771   4.597  16.546  0.00  0.00    +0.000 A 
ATOM      9  C   UNL     1       4.309   5.367  17.622  0.00  0.00    +0.000 A 
ATOM     10  C   UNL     1       3.200   4.942  18.333  0.00  0.00    +0.000 A 
ATOM     11  H   UNL     1       0.796   2.802  18.775  0.00  0.00    +0.000 HD
ENDROOT
BRANCH   1  15
ATOM     12  C   UNL     1       0.579   9.784  21.461  0.00  0.00    +0.000 C 
ATOM     13  C   UNL     1       1.135   9.014  20.304  0.00  0.00    +0.000 A 
ATOM     14  C   UNL     1       1.612   7.707  20.472  0.00  0.00    +0.000 A 
ATOM     15  C   UNL     1       2.130   6.975  19.384  0.00  0.00    +0.000 A 
ATOM     16  C   UNL     1       2.142   7.583  18.113  0.00  0.00    +0.000 A 
ATOM     17  C   UNL     1       1.677   8.887  17.943  0.00  0.00    +0.000 A 
ATOM     18  C   UNL     1       1.182   9.589  19.035  0.00  0.00    +0.000 A 
ATOM     19  F   UNL     1       0.728  10.838  18.853  0.00  0.00    +0.000 F 
ENDBRANCH   1  15
BRANCH   8  20
ATOM     20  C   UNL     1       6.004   4.971  15.864  0.00  0.00    +0.000 A 
ATOM     21  C   UNL     1       7.131   5.749  16.270  0.00  0.00    +0.000 A 
ATOM     22  C   UNL     1       7.428   6.419  17.558  0.00  0.00    +0.000 C 
ATOM     23  N   UNL     1       8.040   5.843  15.292  0.00  0.00    +0.000 NA
ATOM     24  O   UNL     1       7.530   5.136  14.230  0.00  0.00    +0.000 OA
ATOM     25  C   UNL     1       6.317   4.619  14.559  0.00  0.00    +0.000 A 
ATOM     26  C   UNL     1       5.654   3.858  13.477  0.00  0.00    +0.000 C 
ENDBRANCH   8  20
BRANCH   1  27
ATOM     27  O   UNL     1       3.564   5.432  20.618  0.00  0.00    +0.000 OA
ATOM     28  H   UNL     1       3.477   6.255  21.132  0.00  0.00    +0.000 HD
ENDBRANCH   1  27
TORSDOF 3
ENDMDL
MODEL 6
REMARK VINA RESULT:      -8.8      3.228      6.492
REMARK  Name = 
REMARK  6 active torsions:
REMARK  status: ('A' for Active; 'I' for Inactive)
REMARK    1  A    between atoms: C_1  and  C_2
REMARK    2  A    between atoms: C_4  and  C_5
REMARK    3  A    between atoms: C_5  and  O_6
REMARK    4  A    between atoms: C_13  and  C_14
REMARK    5  A    between atoms: C_15  and  C_16
REMARK    6  A    between atoms: C_19  and  C_20
REMARK                            x       y       z     vdW  Elec       q    Type
REMARK                         _______ _______ _______ _____ _____    ______ ____
ROOT
ATOM      1  C   UNL     1       3.125   3.544  17.885  0.00  0.00    +0.000 C 
ATOM      2  C   UNL     1       3.206   2.211  18.715  0.00  0.00    +0.000 C 
ATOM      3  O   UNL     1       3.446   1.094  18.288  0.00  0.00    +0.000 OA
ATOM      4  N   UNL     1       2.897   2.524  20.039  0.00  0.00    +0.000 N 
ATOM      5  C   UNL     1       2.577   3.867  20.175  0.00  0.00    +0.000 A 
ATOM      6  C   UNL     1       2.164   4.529  21.310  0.00  0.00    +0.000 A 
ATOM      7  C   UNL     1       1.826   5.887  21.182  0.00  0.00    +0.000 A 
ATOM      8  C   UNL     1       1.947   6.571  19.949  0.00  0.00    +0.000 A 
ATOM      9  C   UNL     1       2.434   5.870  18.838  0.00  0.00    +0.000 A 
ATOM     10  C   UNL     1       2.706   4.519  18.954  0.00  0.00    +0.000 A 
ATOM     11  H   UNL     1       2.850   1.827  20.768  0.00  0.00    +0.000 HD
ENDROOT
BRANCH   1  15
ATOM     12  C   UNL     1       7.923   5.134  18.242  0.00  0.00    +0.000 C 
ATOM     13  C   UNL     1       6.753   4.718  17.405  0.00  0.00    +0.000 A 
ATOM     14  C   UNL     1       5.550   4.314  18.001  0.00  0.00    +0.000 A 
ATOM     15  C   UNL     1       4.443   3.928  17.217  0.00  0.00    +0.000 A 
ATOM     16  C   UNL     1       4.567   3.974  15.815  0.00  0.00    +0.000 A 
ATOM     17  C   UNL     1       5.765   4.367  15.218  0.00  0.00    +0.000 A 
ATOM     18  C   UNL     1       6.844   4.731  16.015  0.00  0.00    +0.000 A 
ATOM     19  F   UNL     1       7.985   5.118  15.427  0.00  0.00    +0.000 F 
ENDBRANCH   1  15
BRANCH   8  20
ATOM     20  C   UNL     1       1.545   7.966  19.809  0.00  0.00    +0.000 A 
ATOM     21  C   UNL     1       0.743   8.822  20.623  0.00  0.00    +0.000 A 
ATOM     22  C   UNL     1       0.069   8.570  21.919  0.00  0.00    +0.000 C 
ATOM     23  N   UNL     1       0.626  10.041  20.085  0.00  0.00    +0.000 NA
ATOM     24  O   UNL     1       1.342  10.011  18.913  0.00  0.00    +0.000 OA
ATOM     25  C   UNL     1       1.886   8.778  18.737  0.00  0.00    +0.000 A 
ATOM     26  C   UNL     1       2.659   8.615  17.486  0.00  0.00    +0.000 C 
ENDBRANCH   8  20
BRANCH   1  27
ATOM     27  O   UNL     1       2.062   3.465  16.937  0.00  0.00    +0.000 OA
ATOM     28  H   UNL     1       2.445   3.026  16.157  0.00  0.00    +0.000 HD
ENDBRANCH   1  27
TORSDOF 3
ENDMDL
MODEL 7
REMARK VINA RESULT:      -8.4      3.152      6.363
REMARK  Name = 
REMARK  6 active torsions:
REMARK  status: ('A' for Active; 'I' for Inactive)
REMARK    1  A    between atoms: C_1  and  C_2
REMARK    2  A    between atoms: C_4  and  C_5
REMARK    3  A    between atoms: C_5  and  O_6
REMARK    4  A    between atoms: C_13  and  C_14
REMARK    5  A    between atoms: C_15  and  C_16
REMARK    6  A    between atoms: C_19  and  C_20
REMARK                            x       y       z     vdW  Elec       q    Type
REMARK                         _______ _______ _______ _____ _____    ______ ____
ROOT
ATOM      1  C   UNL     1       3.194   3.734  17.790  0.00  0.00    +0.000 C 
ATOM      2  C   UNL     1       3.345   2.404  18.615  0.00  0.00    +0.000 C 
ATOM      3  O   UNL     1       3.612   1.296  18.180  0.00  0.00    +0.000 OA
ATOM      4  N   UNL     1       3.062   2.706  19.949  0.00  0.00    +0.000 N 
ATOM      5  C   UNL     1       2.700   4.036  20.095  0.00  0.00    +0.000 A 
ATOM      6  C   UNL     1       2.295   4.683  21.242  0.00  0.00    +0.000 A 
ATOM      7  C   UNL     1       1.906   6.029  21.125  0.00  0.00    +0.000 A 
ATOM      8  C   UNL     1       1.968   6.717  19.890  0.00  0.00    +0.000 A 
ATOM      9  C   UNL     1       2.448   6.034  18.765  0.00  0.00    +0.000 A 
ATOM     10  C   UNL     1       2.771   4.692  18.872  0.00  0.00    +0.000 A 
ATOM     11  H   UNL     1       3.061   2.007  20.677  0.00  0.00    +0.000 HD
ENDROOT
BRANCH   1  15
ATOM     12  C   UNL     1       7.484   6.428  17.755  0.00  0.00    +0.000 C 
ATOM     13  C   UNL     1       6.536   5.490  17.075  0.00  0.00    +0.000 A 
ATOM     14  C   UNL     1       5.378   5.043  17.724  0.00  0.00    +0.000 A 
ATOM     15  C   UNL     1       4.478   4.164  17.086  0.00  0.00    +0.000 A 
ATOM     16  C   UNL     1       4.763   3.756  15.768  0.00  0.00    +0.000 A 
ATOM     17  C   UNL     1       5.919   4.191  15.122  0.00  0.00    +0.000 A 
ATOM     18  C   UNL     1       6.794   5.048  15.779  0.00  0.00    +0.000 A 
ATOM     19  F   UNL     1       7.896   5.467  15.140  0.00  0.00    +0.000 F 
ENDBRANCH   1  15
BRANCH   8  20
ATOM     20  C   UNL     1       1.513   8.096  19.763  0.00  0.00    +0.000 A 
ATOM     21  C   UNL     1       1.713   9.086  18.752  0.00  0.00    +0.000 A 
ATOM     22  C   UNL     1       2.441   9.017  17.463  0.00  0.00    +0.000 C 
ATOM     23  N   UNL     1       1.112  10.238  19.070  0.00  0.00    +0.000 NA
ATOM     24  O   UNL     1       0.511  10.032  20.288  0.00  0.00    +0.000 OA
ATOM     25  C   UNL     1       0.751   8.763  20.711  0.00  0.00    +0.000 A 
ATOM     26  C   UNL     1       0.175   8.431  22.034  0.00  0.00    +0.000 C 
ENDBRANCH   8  20
BRANCH   1  27
ATOM     27  O   UNL     1       2.108   3.617  16.873  0.00  0.00    +0.000 OA
ATOM     28  H   UNL     1       1.696   2.757  17.070  0.00  0.00    +0.000 HD
ENDBRANCH   1  27
TORSDOF 3
ENDMDL
MODEL 8
REMARK VINA RESULT:      -8.4      0.815      2.136
REMARK  Name = 
REMARK  6 active torsions:
REMARK  status: ('A' for Active; 'I' for Inactive)
REMARK    1  A    between atoms: C_1  and  C_2
REMARK    2  A    between atoms: C_4  and  C_5
REMARK    3  A    between atoms: C_5  and  O_6
REMARK    4  A    between atoms: C_13  and  C_14
REMARK    5  A    between atoms: C_15  and  C_16
REMARK    6  A    between atoms: C_19  and  C_20
REMARK                            x       y       z     vdW  Elec       q    Type
REMARK                         _______ _______ _______ _____ _____    ______ ____
ROOT
ATOM      1  C   UNL     1       2.565   4.984  19.960  0.00  0.00    +0.000 C 
ATOM      2  C   UNL     1       1.425   3.908  20.089  0.00  0.00    +0.000 C 
ATOM      3  O   UNL     1       0.666   3.752  21.031  0.00  0.00    +0.000 OA
ATOM      4  N   UNL     1       1.468   3.114  18.942  0.00  0.00    +0.000 N 
ATOM      5  C   UNL     1       2.510   3.493  18.109  0.00  0.00    +0.000 A 
ATOM      6  C   UNL     1       2.904   2.910  16.925  0.00  0.00    +0.000 A 
ATOM      7  C   UNL     1       4.044   3.433  16.292  0.00  0.00    +0.000 A 
ATOM      8  C   UNL     1       4.743   4.546  16.817  0.00  0.00    +0.000 A 
ATOM      9  C   UNL     1       4.265   5.145  17.990  0.00  0.00    +0.000 A 
ATOM     10  C   UNL     1       3.179   4.589  18.643  0.00  0.00    +0.000 A 
ATOM     11  H   UNL     1       0.852   2.327  18.800  0.00  0.00    +0.000 HD
ENDROOT
BRANCH   1  15
ATOM     12  C   UNL     1       2.045   9.466  17.655  0.00  0.00    +0.000 C 
ATOM     13  C   UNL     1       1.829   8.588  18.848  0.00  0.00    +0.000 A 
ATOM     14  C   UNL     1       2.247   7.250  18.843  0.00  0.00    +0.000 A 
ATOM     15  C   UNL     1       2.052   6.421  19.967  0.00  0.00    +0.000 A 
ATOM     16  C   UNL     1       1.438   6.974  21.108  0.00  0.00    +0.000 A 
ATOM     17  C   UNL     1       1.012   8.302  21.114  0.00  0.00    +0.000 A 
ATOM     18  C   UNL     1       1.207   9.093  19.988  0.00  0.00    +0.000 A 
ATOM     19  F   UNL     1       0.802  10.371  20.014  0.00  0.00    +0.000 F 
ENDBRANCH   1  15
BRANCH   8  20
ATOM     20  C   UNL     1       5.956   5.051  16.186  0.00  0.00    +0.000 A 
ATOM     21  C   UNL     1       6.998   5.909  16.653  0.00  0.00    +0.000 A 
ATOM     22  C   UNL     1       7.200   6.553  17.972  0.00  0.00    +0.000 C 
ATOM     23  N   UNL     1       7.921   6.120  15.707  0.00  0.00    +0.000 NA
ATOM     24  O   UNL     1       7.505   5.411  14.605  0.00  0.00    +0.000 OA
ATOM     25  C   UNL     1       6.334   4.779  14.879  0.00  0.00    +0.000 A 
ATOM     26  C   UNL     1       5.769   4.004  13.751  0.00  0.00    +0.000 C 
ENDBRANCH   8  20
BRANCH   1  27
ATOM     27  O   UNL     1       3.549   4.774  20.971  0.00  0.00    +0.000 OA
ATOM     28  H   UNL     1       3.284   5.350  21.711  0.00  0.00    +0.000 HD
ENDBRANCH   1  27
TORSDOF 3
ENDMDL
MODEL 9
REMARK VINA RESULT:      -8.0      6.332     10.959
REMARK  Name = 
REMARK  6 active torsions:
REMARK  status: ('A' for Active; 'I' for Inactive)
REMARK    1  A    between atoms: C_1  and  C_2
REMARK    2  A    between atoms: C_4  and  C_5
REMARK    3  A    between atoms: C_5  and  O_6
REMARK    4  A    between atoms: C_13  and  C_14
REMARK    5  A    between atoms: C_15  and  C_16
REMARK    6  A    between atoms: C_19  and  C_20
REMARK                            x       y       z     vdW  Elec       q    Type
REMARK                         _______ _______ _______ _____ _____    ______ ____
ROOT
ATOM      1  C   UNL     1      -1.798  11.504  18.057  0.00  0.00    +0.000 C 
ATOM      2  C   UNL     1      -2.671  10.746  16.992  0.00  0.00    +0.000 C 
ATOM      3  O   UNL     1      -2.282  10.224  15.960  0.00  0.00    +0.000 OA
ATOM      4  N   UNL     1      -4.000  10.820  17.412  0.00  0.00    +0.000 N 
ATOM      5  C   UNL     1      -4.116  11.565  18.576  0.00  0.00    +0.000 A 
ATOM      6  C   UNL     1      -5.267  11.906  19.252  0.00  0.00    +0.000 A 
ATOM      7  C   UNL     1      -5.135  12.737  20.379  0.00  0.00    +0.000 A 
ATOM      8  C   UNL     1      -3.870  13.174  20.837  0.00  0.00    +0.000 A 
ATOM      9  C   UNL     1      -2.724  12.747  20.154  0.00  0.00    +0.000 A 
ATOM     10  C   UNL     1      -2.863  11.980  19.010  0.00  0.00    +0.000 A 
ATOM     11  H   UNL     1      -4.763  10.433  16.878  0.00  0.00    +0.000 HD
ENDROOT
BRANCH   1  15
ATOM     12  C   UNL     1       2.332   8.584  17.751  0.00  0.00    +0.000 C 
ATOM     13  C   UNL     1       1.231   9.193  18.563  0.00  0.00    +0.000 A 
ATOM     14  C   UNL     1       0.291  10.048  17.973  0.00  0.00    +0.000 A 
ATOM     15  C   UNL     1      -0.752  10.619  18.731  0.00  0.00    +0.000 A 
ATOM     16  C   UNL     1      -0.838  10.296  20.099  0.00  0.00    +0.000 A 
ATOM     17  C   UNL     1       0.101   9.453  20.693  0.00  0.00    +0.000 A 
ATOM     18  C   UNL     1       1.125   8.914  19.924  0.00  0.00    +0.000 A 
ATOM     19  F   UNL     1       2.013   8.095  20.506  0.00  0.00    +0.000 F 
ENDBRANCH   1  15
BRANCH   8  20
ATOM     20  C   UNL     1      -3.742  14.078  21.974  0.00  0.00    +0.000 A 
ATOM     21  C   UNL     1      -3.795  13.863  23.385  0.00  0.00    +0.000 A 
ATOM     22  C   UNL     1      -3.971  12.617  24.166  0.00  0.00    +0.000 C 
ATOM     23  N   UNL     1      -3.641  15.008  24.061  0.00  0.00    +0.000 NA
ATOM     24  O   UNL     1      -3.488  15.992  23.114  0.00  0.00    +0.000 OA
ATOM     25  C   UNL     1      -3.554  15.449  21.870  0.00  0.00    +0.000 A 
ATOM     26  C   UNL     1      -3.432  16.422  20.761  0.00  0.00    +0.000 C 
ENDBRANCH   8  20
BRANCH   1  27
ATOM     27  O   UNL     1      -1.203  12.659  17.467  0.00  0.00    +0.000 OA
ATOM     28  H   UNL     1      -1.382  12.580  16.513  0.00  0.00    +0.000 HD
ENDBRANCH   1  27
TORSDOF 3
ENDMDL
