MODEL 1
REMARK VINA RESULT:      -7.2      0.000      0.000
REMARK  Name = 
REMARK  5 active torsions:
REMARK  status: ('A' for Active; 'I' for Inactive)
REMARK    1  A    between atoms: C_1  and  O_2
REMARK    2  A    between atoms: O_2  and  C_3
REMARK    3  A    between atoms: C_7  and  N_8
REMARK    4  A    between atoms: C_9  and  C_11
REMARK    5  A    between atoms: C_12  and  C_13
REMARK                            x       y       z     vdW  Elec       q    Type
REMARK                         _______ _______ _______ _____ _____    ______ ____
ROOT
ATOM      1  N   UNL     1       7.454   4.977  16.037  0.00  0.00    +0.000 N 
ATOM      2  C   UNL     1       6.830   5.948  16.784  0.00  0.00    +0.000 C 
ATOM      3  O   UNL     1       6.086   6.837  16.379  0.00  0.00    +0.000 OA
ATOM      4  H   UNL     1       8.162   4.410  16.482  0.00  0.00    +0.000 HD
ENDROOT
BRANCH   1   9
ATOM      5  C   UNL     1       6.057   3.591  12.887  0.00  0.00    +0.000 A 
ATOM      6  C   UNL     1       6.818   4.264  11.931  0.00  0.00    +0.000 A 
ATOM      7  C   UNL     1       7.773   5.195  12.320  0.00  0.00    +0.000 A 
ATOM      8  C   UNL     1       7.984   5.446  13.674  0.00  0.00    +0.000 A 
ATOM      9  C   UNL     1       7.244   4.770  14.649  0.00  0.00    +0.000 A 
ATOM     10  C   UNL     1       6.263   3.855  14.248  0.00  0.00    +0.000 A 
BRANCH   5  12
ATOM     11  C   UNL     1       4.313   3.156  11.332  0.00  0.00    +0.000 C 
ATOM     12  O   UNL     1       5.166   2.691  12.370  0.00  0.00    +0.000 OA
ENDBRANCH   5  12
ENDBRANCH   1   9
BRANCH   2  13
ATOM     13  C   UNL     1       7.206   5.923  18.216  0.00  0.00    +0.000 C 
ATOM     14  C   UNL     1       6.344   5.529  19.165  0.00  0.00    +0.000 C 
BRANCH  14  15
ATOM     15  C   UNL     1       5.025   4.933  18.931  0.00  0.00    +0.000 A 
ATOM     16  C   UNL     1       4.914   3.548  18.761  0.00  0.00    +0.000 A 
ATOM     17  C   UNL     1       3.659   2.954  18.603  0.00  0.00    +0.000 A 
ATOM     18  C   UNL     1       2.512   3.746  18.610  0.00  0.00    +0.000 A 
ATOM     19 CL   UNL     1       0.965   3.008  18.463  0.00  0.00    +0.000 Cl
ATOM     20  C   UNL     1       2.612   5.128  18.748  0.00  0.00    +0.000 A 
ATOM     21  C   UNL     1       3.869   5.723  18.904  0.00  0.00    +0.000 A 
ENDBRANCH  14  15
ENDBRANCH   2  13
TORSDOF 4
ENDMDL
MODEL 2
REMARK VINA RESULT:      -7.1      0.297      1.118
REMARK  Name = 
REMARK  5 active torsions:
REMARK  status: ('A' for Active; 'I' for Inactive)
REMARK    1  A    between atoms: C_1  and  O_2
REMARK    2  A    between atoms: O_2  and  C_3
REMARK    3  A    between atoms: C_7  and  N_8
REMARK    4  A    between atoms: C_9  and  C_11
REMARK    5  A    between atoms: C_12  and  C_13
REMARK                            x       y       z     vdW  Elec       q    Type
REMARK                         _______ _______ _______ _____ _____    ______ ____
ROOT
ATOM      1  N   UNL     1       7.522   4.900  16.030  0.00  0.00    +0.000 N 
ATOM      2  C   UNL     1       7.070   5.957  16.784  0.00  0.00    +0.000 C 
ATOM      3  O   UNL     1       6.482   6.959  16.384  0.00  0.00    +0.000 OA
ATOM      4  H   UNL     1       8.127   4.221  16.472  0.00  0.00    +0.000 HD
ENDROOT
BRANCH   1   9
ATOM      5  C   UNL     1       6.058   3.601  12.874  0.00  0.00    +0.000 A 
ATOM      6  C   UNL     1       6.785   4.315  11.921  0.00  0.00    +0.000 A 
ATOM      7  C   UNL     1       7.739   5.245  12.316  0.00  0.00    +0.000 A 
ATOM      8  C   UNL     1       7.984   5.453  13.672  0.00  0.00    +0.000 A 
ATOM      9  C   UNL     1       7.278   4.736  14.642  0.00  0.00    +0.000 A 
ATOM     10  C   UNL     1       6.297   3.823  14.237  0.00  0.00    +0.000 A 
BRANCH   5  12
ATOM     11  C   UNL     1       4.244   3.209  11.390  0.00  0.00    +0.000 C 
ATOM     12  O   UNL     1       5.164   2.708  12.351  0.00  0.00    +0.000 OA
ENDBRANCH   5  12
ENDBRANCH   1   9
BRANCH   2  13
ATOM     13  C   UNL     1       7.440   5.864  18.214  0.00  0.00    +0.000 C 
ATOM     14  C   UNL     1       6.551   5.501  19.151  0.00  0.00    +0.000 C 
BRANCH  14  15
ATOM     15  C   UNL     1       5.195   5.005  18.899  0.00  0.00    +0.000 A 
ATOM     16  C   UNL     1       4.123   5.905  18.880  0.00  0.00    +0.000 A 
ATOM     17  C   UNL     1       2.833   5.463  18.576  0.00  0.00    +0.000 A 
ATOM     18  C   UNL     1       2.611   4.116  18.296  0.00  0.00    +0.000 A 
ATOM     19 CL   UNL     1       1.031   3.581  17.876  0.00  0.00    +0.000 Cl
ATOM     20  C   UNL     1       3.663   3.205  18.342  0.00  0.00    +0.000 A 
ATOM     21  C   UNL     1       4.955   3.648  18.648  0.00  0.00    +0.000 A 
ENDBRANCH  14  15
ENDBRANCH   2  13
TORSDOF 4
ENDMDL
MODEL 3
REMARK VINA RESULT:      -6.8      4.366      7.393
REMARK  Name = 
REMARK  5 active torsions:
REMARK  status: ('A' for Active; 'I' for Inactive)
REMARK    1  A    between atoms: C_1  and  O_2
REMARK    2  A    between atoms: O_2  and  C_3
REMARK    3  A    between atoms: C_7  and  N_8
REMARK    4  A    between atoms: C_9  and  C_11
REMARK    5  A    between atoms: C_12  and  C_13
REMARK                            x       y       z     vdW  Elec       q    Type
REMARK                         _______ _______ _______ _____ _____    ______ ____
ROOT
ATOM      1  N   UNL     1       2.561   5.872  20.523  0.00  0.00    +0.000 N 
ATOM      2  C   UNL     1       1.782   4.743  20.599  0.00  0.00    +0.000 C 
ATOM      3  O   UNL     1       0.590   4.640  20.318  0.00  0.00    +0.000 OA
ATOM      4  H   UNL     1       3.483   5.847  20.936  0.00  0.00    +0.000 HD
ENDROOT
BRANCH   1   9
ATOM      5  C   UNL     1       0.950   9.212  20.307  0.00  0.00    +0.000 A 
ATOM      6  C   UNL     1       1.202   9.552  18.978  0.00  0.00    +0.000 A 
ATOM      7  C   UNL     1       1.926   8.695  18.158  0.00  0.00    +0.000 A 
ATOM      8  C   UNL     1       2.388   7.480  18.661  0.00  0.00    +0.000 A 
ATOM      9  C   UNL     1       2.132   7.114  19.986  0.00  0.00    +0.000 A 
ATOM     10  C   UNL     1       1.429   7.996  20.815  0.00  0.00    +0.000 A 
BRANCH   5  12
ATOM     11  C   UNL     1       0.399  11.499  20.642  0.00  0.00    +0.000 C 
ATOM     12  O   UNL     1       0.215  10.136  20.998  0.00  0.00    +0.000 OA
ENDBRANCH   5  12
ENDBRANCH   1   9
BRANCH   2  13
ATOM     13  C   UNL     1       2.488   3.576  21.175  0.00  0.00    +0.000 C 
ATOM     14  C   UNL     1       3.416   2.900  20.481  0.00  0.00    +0.000 C 
BRANCH  14  15
ATOM     15  C   UNL     1       3.967   3.291  19.180  0.00  0.00    +0.000 A 
ATOM     16  C   UNL     1       3.268   2.970  18.010  0.00  0.00    +0.000 A 
ATOM     17  C   UNL     1       3.742   3.391  16.765  0.00  0.00    +0.000 A 
ATOM     18  C   UNL     1       4.921   4.131  16.687  0.00  0.00    +0.000 A 
ATOM     19 CL   UNL     1       5.478   4.689  15.158  0.00  0.00    +0.000 Cl
ATOM     20  C   UNL     1       5.641   4.431  17.840  0.00  0.00    +0.000 A 
ATOM     21  C   UNL     1       5.167   4.007  19.087  0.00  0.00    +0.000 A 
ENDBRANCH  14  15
ENDBRANCH   2  13
TORSDOF 4
ENDMDL
MODEL 4
REMARK VINA RESULT:      -6.8      4.162      7.470
REMARK  Name = 
REMARK  5 active torsions:
REMARK  status: ('A' for Active; 'I' for Inactive)
REMARK    1  A    between atoms: C_1  and  O_2
REMARK    2  A    between atoms: O_2  and  C_3
REMARK    3  A    between atoms: C_7  and  N_8
REMARK    4  A    between atoms: C_9  and  C_11
REMARK    5  A    between atoms: C_12  and  C_13
REMARK                            x       y       z     vdW  Elec       q    Type
REMARK                         _______ _______ _______ _____ _____    ______ ____
ROOT
ATOM      1  N   UNL     1       2.654   5.915  20.323  0.00  0.00    +0.000 N 
ATOM      2  C   UNL     1       2.129   4.700  19.952  0.00  0.00    +0.000 C 
ATOM      3  O   UNL     1       1.118   4.499  19.283  0.00  0.00    +0.000 OA
ATOM      4  H   UNL     1       3.399   5.927  21.006  0.00  0.00    +0.000 HD
ENDROOT
BRANCH   1   9
ATOM      5  C   UNL     1       0.894   9.186  20.383  0.00  0.00    +0.000 A 
ATOM      6  C   UNL     1       1.111   9.637  19.081  0.00  0.00    +0.000 A 
ATOM      7  C   UNL     1       1.859   8.878  18.189  0.00  0.00    +0.000 A 
ATOM      8  C   UNL     1       2.382   7.651  18.592  0.00  0.00    +0.000 A 
ATOM      9  C   UNL     1       2.162   7.173  19.887  0.00  0.00    +0.000 A 
ATOM     10  C   UNL     1       1.433   7.957  20.790  0.00  0.00    +0.000 A 
BRANCH   5  12
ATOM     11  C   UNL     1      -0.141   9.600  22.481  0.00  0.00    +0.000 C 
ATOM     12  O   UNL     1       0.129  10.020  21.150  0.00  0.00    +0.000 OA
ENDBRANCH   5  12
ENDBRANCH   1   9
BRANCH   2  13
ATOM     13  C   UNL     1       2.853   3.544  20.526  0.00  0.00    +0.000 C 
ATOM     14  C   UNL     1       3.932   3.018  19.927  0.00  0.00    +0.000 C 
BRANCH  14  15
ATOM     15  C   UNL     1       4.625   3.581  18.763  0.00  0.00    +0.000 A 
ATOM     16  C   UNL     1       5.741   4.403  18.956  0.00  0.00    +0.000 A 
ATOM     17  C   UNL     1       6.455   4.895  17.860  0.00  0.00    +0.000 A 
ATOM     18  C   UNL     1       6.049   4.569  16.567  0.00  0.00    +0.000 A 
ATOM     19 CL   UNL     1       6.957   5.135  15.220  0.00  0.00    +0.000 Cl
ATOM     20  C   UNL     1       4.923   3.777  16.361  0.00  0.00    +0.000 A 
ATOM     21  C   UNL     1       4.207   3.286  17.460  0.00  0.00    +0.000 A 
ENDBRANCH  14  15
ENDBRANCH   2  13
TORSDOF 4
ENDMDL
MODEL 5
REMARK VINA RESULT:      -6.8      1.088      1.088
REMARK  Name = 
REMARK  5 active torsions:
REMARK  status: ('A' for Active; 'I' for Inactive)
REMARK    1  A    between atoms: C_1  and  O_2
REMARK    2  A    between atoms: O_2  and  C_3
REMARK    3  A    between atoms: C_7  and  N_8
REMARK    4  A    between atoms: C_9  and  C_11
REMARK    5  A    between atoms: C_12  and  C_13
REMARK                            x       y       z     vdW  Elec       q    Type
REMARK                         _______ _______ _______ _____ _____    ______ ____
ROOT
ATOM      1  N   UNL     1       6.895   5.738  15.792  0.00  0.00    +0.000 N 
ATOM      2  C   UNL     1       7.475   5.163  16.897  0.00  0.00    +0.000 C 
ATOM      3  O   UNL     1       8.024   4.066  16.964  0.00  0.00    +0.000 OA
ATOM      4  H   UNL     1       6.342   6.574  15.921  0.00  0.00    +0.000 HD
ENDROOT
BRANCH   1   9
ATOM      5  C   UNL     1       6.036   3.616  12.867  0.00  0.00    +0.000 A 
ATOM      6  C   UNL     1       6.995   4.026  11.940  0.00  0.00    +0.000 A 
ATOM      7  C   UNL     1       7.910   5.020  12.268  0.00  0.00    +0.000 A 
ATOM      8  C   UNL     1       7.879   5.600  13.534  0.00  0.00    +0.000 A 
ATOM      9  C   UNL     1       6.936   5.192  14.483  0.00  0.00    +0.000 A 
ATOM     10  C   UNL     1       5.999   4.211  14.136  0.00  0.00    +0.000 A 
BRANCH   5  12
ATOM     11  C   UNL     1       5.711   1.782  11.391  0.00  0.00    +0.000 C 
ATOM     12  O   UNL     1       5.210   2.621  12.423  0.00  0.00    +0.000 OA
ENDBRANCH   5  12
ENDBRANCH   1   9
BRANCH   2  13
ATOM     13  C   UNL     1       7.308   5.959  18.133  0.00  0.00    +0.000 C 
ATOM     14  C   UNL     1       6.178   5.915  18.855  0.00  0.00    +0.000 C 
BRANCH  14  15
ATOM     15  C   UNL     1       5.058   4.995  18.637  0.00  0.00    +0.000 A 
ATOM     16  C   UNL     1       5.064   3.741  19.261  0.00  0.00    +0.000 A 
ATOM     17  C   UNL     1       3.976   2.876  19.120  0.00  0.00    +0.000 A 
ATOM     18  C   UNL     1       2.881   3.261  18.349  0.00  0.00    +0.000 A 
ATOM     19 CL   UNL     1       1.522   2.215  18.215  0.00  0.00    +0.000 Cl
ATOM     20  C   UNL     1       2.875   4.492  17.699  0.00  0.00    +0.000 A 
ATOM     21  C   UNL     1       3.967   5.358  17.839  0.00  0.00    +0.000 A 
ENDBRANCH  14  15
ENDBRANCH   2  13
TORSDOF 4
ENDMDL
MODEL 6
REMARK VINA RESULT:      -6.7      1.017      1.399
REMARK  Name = 
REMARK  5 active torsions:
REMARK  status: ('A' for Active; 'I' for Inactive)
REMARK    1  A    between atoms: C_1  and  O_2
REMARK    2  A    between atoms: O_2  and  C_3
REMARK    3  A    between atoms: C_7  and  N_8
REMARK    4  A    between atoms: C_9  and  C_11
REMARK    5  A    between atoms: C_12  and  C_13
REMARK                            x       y       z     vdW  Elec       q    Type
REMARK                         _______ _______ _______ _____ _____    ______ ____
ROOT
ATOM      1  N   UNL     1       6.810   5.771  15.727  0.00  0.00    +0.000 N 
ATOM      2  C   UNL     1       7.420   5.243  16.839  0.00  0.00    +0.000 C 
ATOM      3  O   UNL     1       7.984   4.155  16.934  0.00  0.00    +0.000 OA
ATOM      4  H   UNL     1       6.250   6.606  15.838  0.00  0.00    +0.000 HD
ENDROOT
BRANCH   1   9
ATOM      5  C   UNL     1       5.803   3.663  12.840  0.00  0.00    +0.000 A 
ATOM      6  C   UNL     1       6.833   3.925  11.937  0.00  0.00    +0.000 A 
ATOM      7  C   UNL     1       7.847   4.816  12.266  0.00  0.00    +0.000 A 
ATOM      8  C   UNL     1       7.844   5.440  13.513  0.00  0.00    +0.000 A 
ATOM      9  C   UNL     1       6.829   5.178  14.438  0.00  0.00    +0.000 A 
ATOM     10  C   UNL     1       5.795   4.302  14.088  0.00  0.00    +0.000 A 
BRANCH   5  12
ATOM     11  C   UNL     1       4.095   3.134  11.275  0.00  0.00    +0.000 C 
ATOM     12  O   UNL     1       4.879   2.756  12.398  0.00  0.00    +0.000 OA
ENDBRANCH   5  12
ENDBRANCH   1   9
BRANCH   2  13
ATOM     13  C   UNL     1       7.271   6.082  18.049  0.00  0.00    +0.000 C 
ATOM     14  C   UNL     1       6.167   6.036  18.809  0.00  0.00    +0.000 C 
BRANCH  14  15
ATOM     15  C   UNL     1       5.066   5.079  18.664  0.00  0.00    +0.000 A 
ATOM     16  C   UNL     1       3.938   5.433  17.915  0.00  0.00    +0.000 A 
ATOM     17  C   UNL     1       2.908   4.512  17.709  0.00  0.00    +0.000 A 
ATOM     18  C   UNL     1       3.002   3.234  18.257  0.00  0.00    +0.000 A 
ATOM     19 CL   UNL     1       1.755   2.086  17.964  0.00  0.00    +0.000 Cl
ATOM     20  C   UNL     1       4.104   2.879  19.030  0.00  0.00    +0.000 A 
ATOM     21  C   UNL     1       5.135   3.804  19.238  0.00  0.00    +0.000 A 
ENDBRANCH  14  15
ENDBRANCH   2  13
TORSDOF 4
ENDMDL
MODEL 7
REMARK VINA RESULT:      -6.7      3.556      6.585
REMARK  Name = 
REMARK  5 active torsions:
REMARK  status: ('A' for Active; 'I' for Inactive)
REMARK    1  A    between atoms: C_1  and  O_2
REMARK    2  A    between atoms: O_2  and  C_3
REMARK    3  A    between atoms: C_7  and  N_8
REMARK    4  A    between atoms: C_9  and  C_11
REMARK    5  A    between atoms: C_12  and  C_13
REMARK                            x       y       z     vdW  Elec       q    Type
REMARK                         _______ _______ _______ _____ _____    ______ ____
ROOT
ATOM      1  N   UNL     1       3.062   6.441  17.433  0.00  0.00    +0.000 N 
ATOM      2  C   UNL     1       4.416   6.245  17.304  0.00  0.00    +0.000 C 
ATOM      3  O   UNL     1       5.317   6.958  17.740  0.00  0.00    +0.000 OA
ATOM      4  H   UNL     1       2.440   5.859  16.889  0.00  0.00    +0.000 HD
ENDROOT
BRANCH   1   9
ATOM      5  C   UNL     1       1.617   8.210  20.362  0.00  0.00    +0.000 A 
ATOM      6  C   UNL     1       1.239   9.424  19.789  0.00  0.00    +0.000 A 
ATOM      7  C   UNL     1       1.483   9.673  18.444  0.00  0.00    +0.000 A 
ATOM      8  C   UNL     1       2.094   8.698  17.658  0.00  0.00    +0.000 A 
ATOM      9  C   UNL     1       2.466   7.468  18.209  0.00  0.00    +0.000 A 
ATOM     10  C   UNL     1       2.244   7.235  19.572  0.00  0.00    +0.000 A 
BRANCH   5  12
ATOM     11  C   UNL     1       0.810   9.250  22.340  0.00  0.00    +0.000 C 
ATOM     12  O   UNL     1       1.304   8.088  21.688  0.00  0.00    +0.000 OA
ENDBRANCH   5  12
ENDBRANCH   1   9
BRANCH   2  13
ATOM     13  C   UNL     1       4.767   5.080  16.461  0.00  0.00    +0.000 C 
ATOM     14  C   UNL     1       4.493   3.824  16.843  0.00  0.00    +0.000 C 
BRANCH  14  15
ATOM     15  C   UNL     1       3.696   3.439  18.012  0.00  0.00    +0.000 A 
ATOM     16  C   UNL     1       4.321   3.298  19.257  0.00  0.00    +0.000 A 
ATOM     17  C   UNL     1       3.570   2.997  20.396  0.00  0.00    +0.000 A 
ATOM     18  C   UNL     1       2.190   2.829  20.290  0.00  0.00    +0.000 A 
ATOM     19 CL   UNL     1       1.260   2.505  21.700  0.00  0.00    +0.000 Cl
ATOM     20  C   UNL     1       1.561   2.936  19.053  0.00  0.00    +0.000 A 
ATOM     21  C   UNL     1       2.314   3.236  17.912  0.00  0.00    +0.000 A 
ENDBRANCH  14  15
ENDBRANCH   2  13
TORSDOF 4
ENDMDL
MODEL 8
REMARK VINA RESULT:      -6.6      4.211      7.248
REMARK  Name = 
REMARK  5 active torsions:
REMARK  status: ('A' for Active; 'I' for Inactive)
REMARK    1  A    between atoms: C_1  and  O_2
REMARK    2  A    between atoms: O_2  and  C_3
REMARK    3  A    between atoms: C_7  and  N_8
REMARK    4  A    between atoms: C_9  and  C_11
REMARK    5  A    between atoms: C_12  and  C_13
REMARK                            x       y       z     vdW  Elec       q    Type
REMARK                         _______ _______ _______ _____ _____    ______ ____
ROOT
ATOM      1  N   UNL     1       2.366   5.824  20.867  0.00  0.00    +0.000 N 
ATOM      2  C   UNL     1       1.736   4.619  20.668  0.00  0.00    +0.000 C 
ATOM      3  O   UNL     1       0.600   4.434  20.238  0.00  0.00    +0.000 OA
ATOM      4  H   UNL     1       3.240   5.829  21.376  0.00  0.00    +0.000 HD
ENDROOT
BRANCH   1   9
ATOM      5  C   UNL     1       1.723   8.883  18.862  0.00  0.00    +0.000 A 
ATOM      6  C   UNL     1       0.872   9.592  19.709  0.00  0.00    +0.000 A 
ATOM      7  C   UNL     1       0.486   9.052  20.931  0.00  0.00    +0.000 A 
ATOM      8  C   UNL     1       0.966   7.803  21.319  0.00  0.00    +0.000 A 
ATOM      9  C   UNL     1       1.834   7.084  20.491  0.00  0.00    +0.000 A 
ATOM     10  C   UNL     1       2.194   7.621  19.249  0.00  0.00    +0.000 A 
BRANCH   5  12
ATOM     11  C   UNL     1       2.252  10.936  17.788  0.00  0.00    +0.000 C 
ATOM     12  O   UNL     1       2.035   9.534  17.700  0.00  0.00    +0.000 OA
ENDBRANCH   5  12
ENDBRANCH   1   9
BRANCH   2  13
ATOM     13  C   UNL     1       2.528   3.455  21.126  0.00  0.00    +0.000 C 
ATOM     14  C   UNL     1       3.503   2.925  20.372  0.00  0.00    +0.000 C 
BRANCH  14  15
ATOM     15  C   UNL     1       4.020   3.487  19.120  0.00  0.00    +0.000 A 
ATOM     16  C   UNL     1       5.155   4.307  19.149  0.00  0.00    +0.000 A 
ATOM     17  C   UNL     1       5.703   4.798  17.962  0.00  0.00    +0.000 A 
ATOM     18  C   UNL     1       5.112   4.475  16.741  0.00  0.00    +0.000 A 
ATOM     19 CL   UNL     1       5.815   5.041  15.277  0.00  0.00    +0.000 Cl
ATOM     20  C   UNL     1       3.966   3.686  16.701  0.00  0.00    +0.000 A 
ATOM     21  C   UNL     1       3.416   3.195  17.891  0.00  0.00    +0.000 A 
ENDBRANCH  14  15
ENDBRANCH   2  13
TORSDOF 4
ENDMDL
MODEL 9
REMARK VINA RESULT:      -6.6      4.175      7.143
REMARK  Name = 
REMARK  5 active torsions:
REMARK  status: ('A' for Active; 'I' for Inactive)
REMARK    1  A    between atoms: C_1  and  O_2
REMARK    2  A    between atoms: O_2  and  C_3
REMARK    3  A    between atoms: C_7  and  N_8
REMARK    4  A    between atoms: C_9  and  C_11
REMARK    5  A    between atoms: C_12  and  C_13
REMARK                            x       y       z     vdW  Elec       q    Type
REMARK                         _______ _______ _______ _____ _____    ______ ____
ROOT
ATOM      1  N   UNL     1       2.508   5.588  20.742  0.00  0.00    +0.000 N 
ATOM      2  C   UNL     1       1.833   4.397  20.611  0.00  0.00    +0.000 C 
ATOM      3  O   UNL     1       0.657   4.239  20.293  0.00  0.00    +0.000 OA
ATOM      4  H   UNL     1       3.426   5.574  21.163  0.00  0.00    +0.000 HD
ENDROOT
BRANCH   1   9
ATOM      5  C   UNL     1       1.849   8.714  18.847  0.00  0.00    +0.000 A 
ATOM      6  C   UNL     1       1.001   9.391  19.722  0.00  0.00    +0.000 A 
ATOM      7  C   UNL     1       0.623   8.809  20.927  0.00  0.00    +0.000 A 
ATOM      8  C   UNL     1       1.107   7.548  21.269  0.00  0.00    +0.000 A 
ATOM      9  C   UNL     1       1.971   6.859  20.413  0.00  0.00    +0.000 A 
ATOM     10  C   UNL     1       2.324   7.439  19.188  0.00  0.00    +0.000 A 
BRANCH   5  12
ATOM     11  C   UNL     1       2.139  10.823  17.792  0.00  0.00    +0.000 C 
ATOM     12  O   UNL     1       2.155   9.404  17.707  0.00  0.00    +0.000 OA
ENDBRANCH   5  12
ENDBRANCH   1   9
BRANCH   2  13
ATOM     13  C   UNL     1       2.638   3.217  20.996  0.00  0.00    +0.000 C 
ATOM     14  C   UNL     1       3.636   2.761  20.224  0.00  0.00    +0.000 C 
BRANCH  14  15
ATOM     15  C   UNL     1       4.166   3.424  19.028  0.00  0.00    +0.000 A 
ATOM     16  C   UNL     1       3.551   3.205  17.789  0.00  0.00    +0.000 A 
ATOM     17  C   UNL     1       3.999   3.878  16.650  0.00  0.00    +0.000 A 
ATOM     18  C   UNL     1       5.067   4.768  16.746  0.00  0.00    +0.000 A 
ATOM     19 CL   UNL     1       5.587   5.632  15.352  0.00  0.00    +0.000 Cl
ATOM     20  C   UNL     1       5.707   4.971  17.966  0.00  0.00    +0.000 A 
ATOM     21  C   UNL     1       5.259   4.295  19.107  0.00  0.00    +0.000 A 
ENDBRANCH  14  15
ENDBRANCH   2  13
TORSDOF 4
ENDMDL
