MODEL 1
REMARK VINA RESULT:      -6.7      0.000      0.000
REMARK  Name = 
REMARK  8 active torsions:
REMARK  status: ('A' for Active; 'I' for Inactive)
REMARK    1  A    between atoms: C_1  and  O_2
REMARK    2  A    between atoms: O_2  and  C_3
REMARK    3  A    between atoms: C_6  and  C_7
REMARK    4  A    between atoms: N_12  and  C_13
REMARK    5  A    between atoms: C_13  and  C_14
REMARK    6  A    between atoms: C_14  and  O_16
REMARK    7  A    between atoms: C_20  and  O_21
REMARK    8  A    between atoms: O_21  and  C_22
REMARK                            x       y       z     vdW  Elec       q    Type
REMARK                         _______ _______ _______ _____ _____    ______ ____
ROOT
ATOM      1  C   UNL     1       2.964   7.369  17.892  0.00  0.00    +0.000 C 
ATOM      2  C   UNL     1       2.241   8.096  18.753  0.00  0.00    +0.000 C 
ATOM      3  S   UNL     1       1.699   7.645  20.326  0.00  0.00    +0.000 S 
ATOM      4  C   UNL     1       0.841   9.157  20.562  0.00  0.00    +0.000 C 
ATOM      5  O   UNL     1       0.251   9.430  21.594  0.00  0.00    +0.000 OA
ATOM      6  N   UNL     1       0.931   9.925  19.435  0.00  0.00    +0.000 N 
ATOM      7  C   UNL     1       1.737   9.457  18.431  0.00  0.00    +0.000 C 
ATOM      8  O   UNL     1       2.028  10.105  17.433  0.00  0.00    +0.000 OA
ENDROOT
BRANCH   1  12
ATOM      9  C   UNL     1       3.859   3.289  18.802  0.00  0.00    +0.000 A 
ATOM     10  C   UNL     1       4.835   4.285  18.984  0.00  0.00    +0.000 A 
ATOM     11  C   UNL     1       4.571   5.621  18.668  0.00  0.00    +0.000 A 
ATOM     12  C   UNL     1       3.339   5.972  18.125  0.00  0.00    +0.000 A 
ATOM     13  C   UNL     1       2.409   4.966  17.844  0.00  0.00    +0.000 A 
ATOM     14  C   UNL     1       2.654   3.622  18.170  0.00  0.00    +0.000 A 
BRANCH   9  16
ATOM     15  C   UNL     1       4.673   1.865  20.506  0.00  0.00    +0.000 C 
ATOM     16  O   UNL     1       4.086   2.001  19.210  0.00  0.00    +0.000 OA
ENDBRANCH   9  16
BRANCH  14  17
ATOM     17  O   UNL     1       1.601   2.819  17.826  0.00  0.00    +0.000 OA
ATOM     18  C   UNL     1       0.701   2.383  18.830  0.00  0.00    +0.000 C 
ENDBRANCH  14  17
ENDBRANCH   1  12
BRANCH   6  19
ATOM     19  C   UNL     1       0.205  11.180  19.318  0.00  0.00    +0.000 C 
BRANCH  19  20
ATOM     20  C   UNL     1      -1.035  11.068  18.449  0.00  0.00    +0.000 C 
ATOM     21  O   UNL     1      -1.775  10.096  18.442  0.00  0.00    +0.000 OA
BRANCH  20  22
ATOM     22  O   UNL     1      -1.205  12.096  17.580  0.00  0.00    +0.000 OA
ATOM     23  H   UNL     1      -0.370  12.528  17.273  0.00  0.00    +0.000 HD
ENDBRANCH  20  22
ENDBRANCH  19  20
ENDBRANCH   6  19
TORSDOF 6
ENDMDL
MODEL 2
REMARK VINA RESULT:      -6.7      3.125      4.609
REMARK  Name = 
REMARK  8 active torsions:
REMARK  status: ('A' for Active; 'I' for Inactive)
REMARK    1  A    between atoms: C_1  and  O_2
REMARK    2  A    between atoms: O_2  and  C_3
REMARK    3  A    between atoms: C_6  and  C_7
REMARK    4  A    between atoms: N_12  and  C_13
REMARK    5  A    between atoms: C_13  and  C_14
REMARK    6  A    between atoms: C_14  and  O_16
REMARK    7  A    between atoms: C_20  and  O_21
REMARK    8  A    between atoms: O_21  and  C_22
REMARK                            x       y       z     vdW  Elec       q    Type
REMARK                         _______ _______ _______ _____ _____    ______ ____
ROOT
ATOM      1  C   UNL     1       3.636   5.740  18.816  0.00  0.00    +0.000 C 
ATOM      2  C   UNL     1       2.863   6.833  18.840  0.00  0.00    +0.000 C 
ATOM      3  S   UNL     1       2.786   8.101  17.676  0.00  0.00    +0.000 S 
ATOM      4  C   UNL     1       1.612   9.011  18.610  0.00  0.00    +0.000 C 
ATOM      5  O   UNL     1       1.131  10.063  18.226  0.00  0.00    +0.000 OA
ATOM      6  N   UNL     1       1.363   8.372  19.793  0.00  0.00    +0.000 N 
ATOM      7  C   UNL     1       1.944   7.144  19.967  0.00  0.00    +0.000 C 
ATOM      8  O   UNL     1       1.691   6.397  20.904  0.00  0.00    +0.000 OA
ENDROOT
BRANCH   1  12
ATOM      9  C   UNL     1       6.545   5.282  15.717  0.00  0.00    +0.000 A 
ATOM     10  C   UNL     1       5.435   4.421  15.778  0.00  0.00    +0.000 A 
ATOM     11  C   UNL     1       4.486   4.537  16.799  0.00  0.00    +0.000 A 
ATOM     12  C   UNL     1       4.658   5.491  17.797  0.00  0.00    +0.000 A 
ATOM     13  C   UNL     1       5.817   6.275  17.795  0.00  0.00    +0.000 A 
ATOM     14  C   UNL     1       6.770   6.180  16.769  0.00  0.00    +0.000 A 
BRANCH   9  16
ATOM     15  C   UNL     1       6.962   4.480  13.532  0.00  0.00    +0.000 C 
ATOM     16  O   UNL     1       7.415   5.232  14.659  0.00  0.00    +0.000 OA
ENDBRANCH   9  16
BRANCH  14  17
ATOM     17  O   UNL     1       7.807   7.053  16.960  0.00  0.00    +0.000 OA
ATOM     18  C   UNL     1       7.590   8.237  17.709  0.00  0.00    +0.000 C 
ENDBRANCH  14  17
ENDBRANCH   1  12
BRANCH   6  19
ATOM     19  C   UNL     1       0.518   8.975  20.811  0.00  0.00    +0.000 C 
BRANCH  19  20
ATOM     20  C   UNL     1       1.291   9.854  21.779  0.00  0.00    +0.000 C 
ATOM     21  O   UNL     1       1.837   9.437  22.789  0.00  0.00    +0.000 OA
BRANCH  20  22
ATOM     22  O   UNL     1       1.238  11.181  21.496  0.00  0.00    +0.000 OA
ATOM     23  H   UNL     1       1.498  11.778  22.239  0.00  0.00    +0.000 HD
ENDBRANCH  20  22
ENDBRANCH  19  20
ENDBRANCH   6  19
TORSDOF 6
ENDMDL
MODEL 3
REMARK VINA RESULT:      -6.6      3.605      7.583
REMARK  Name = 
REMARK  8 active torsions:
REMARK  status: ('A' for Active; 'I' for Inactive)
REMARK    1  A    between atoms: C_1  and  O_2
REMARK    2  A    between atoms: O_2  and  C_3
REMARK    3  A    between atoms: C_6  and  C_7
REMARK    4  A    between atoms: N_12  and  C_13
REMARK    5  A    between atoms: C_13  and  C_14
REMARK    6  A    between atoms: C_14  and  O_16
REMARK    7  A    between atoms: C_20  and  O_21
REMARK    8  A    between atoms: O_21  and  C_22
REMARK                            x       y       z     vdW  Elec       q    Type
REMARK                         _______ _______ _______ _____ _____    ______ ____
ROOT
ATOM      1  C   UNL     1       2.842   6.231  17.987  0.00  0.00    +0.000 C 
ATOM      2  C   UNL     1       4.096   6.082  17.543  0.00  0.00    +0.000 C 
ATOM      3  S   UNL     1       5.376   7.236  17.579  0.00  0.00    +0.000 S 
ATOM      4  C   UNL     1       6.489   6.163  16.751  0.00  0.00    +0.000 C 
ATOM      5  O   UNL     1       7.648   6.462  16.518  0.00  0.00    +0.000 OA
ATOM      6  N   UNL     1       5.852   5.001  16.414  0.00  0.00    +0.000 N 
ATOM      7  C   UNL     1       4.571   4.843  16.872  0.00  0.00    +0.000 C 
ATOM      8  O   UNL     1       3.936   3.800  16.775  0.00  0.00    +0.000 OA
ENDROOT
BRANCH   1  12
ATOM      9  C   UNL     1       1.016   9.770  19.540  0.00  0.00    +0.000 A 
ATOM     10  C   UNL     1       1.457   9.729  18.206  0.00  0.00    +0.000 A 
ATOM     11  C   UNL     1       2.080   8.590  17.686  0.00  0.00    +0.000 A 
ATOM     12  C   UNL     1       2.308   7.491  18.508  0.00  0.00    +0.000 A 
ATOM     13  C   UNL     1       1.966   7.573  19.862  0.00  0.00    +0.000 A 
ATOM     14  C   UNL     1       1.325   8.703  20.394  0.00  0.00    +0.000 A 
BRANCH   9  16
ATOM     15  C   UNL     1      -0.869  11.174  19.283  0.00  0.00    +0.000 C 
ATOM     16  O   UNL     1       0.313  10.847  20.015  0.00  0.00    +0.000 OA
ENDBRANCH   9  16
BRANCH  14  17
ATOM     17  O   UNL     1       1.066   8.554  21.730  0.00  0.00    +0.000 OA
ATOM     18  C   UNL     1      -0.251   8.763  22.210  0.00  0.00    +0.000 C 
ENDBRANCH  14  17
ENDBRANCH   1  12
BRANCH   6  19
ATOM     19  C   UNL     1       6.513   3.986  15.610  0.00  0.00    +0.000 C 
BRANCH  19  20
ATOM     20  C   UNL     1       6.494   4.302  14.124  0.00  0.00    +0.000 C 
ATOM     21  O   UNL     1       5.814   3.696  13.310  0.00  0.00    +0.000 OA
BRANCH  20  22
ATOM     22  O   UNL     1       7.387   5.249  13.741  0.00  0.00    +0.000 OA
ATOM     23  H   UNL     1       7.045   5.905  13.086  0.00  0.00    +0.000 HD
ENDBRANCH  20  22
ENDBRANCH  19  20
ENDBRANCH   6  19
TORSDOF 6
ENDMDL
MODEL 4
REMARK VINA RESULT:      -6.6      2.810      7.313
REMARK  Name = 
REMARK  8 active torsions:
REMARK  status: ('A' for Active; 'I' for Inactive)
REMARK    1  A    between atoms: C_1  and  O_2
REMARK    2  A    between atoms: O_2  and  C_3
REMARK    3  A    between atoms: C_6  and  C_7
REMARK    4  A    between atoms: N_12  and  C_13
REMARK    5  A    between atoms: C_13  and  C_14
REMARK    6  A    between atoms: C_14  and  O_16
REMARK    7  A    between atoms: C_20  and  O_21
REMARK    8  A    between atoms: O_21  and  C_22
REMARK                            x       y       z     vdW  Elec       q    Type
REMARK                         _______ _______ _______ _____ _____    ______ ____
ROOT
ATOM      1  C   UNL     1       2.990   7.839  17.902  0.00  0.00    +0.000 C 
ATOM      2  C   UNL     1       3.287   6.543  17.743  0.00  0.00    +0.000 C 
ATOM      3  S   UNL     1       2.528   5.185  18.485  0.00  0.00    +0.000 S 
ATOM      4  C   UNL     1       3.626   4.045  17.729  0.00  0.00    +0.000 C 
ATOM      5  O   UNL     1       3.534   2.837  17.878  0.00  0.00    +0.000 OA
ATOM      6  N   UNL     1       4.566   4.717  16.999  0.00  0.00    +0.000 N 
ATOM      7  C   UNL     1       4.411   6.074  16.891  0.00  0.00    +0.000 C 
ATOM      8  O   UNL     1       5.085   6.780  16.152  0.00  0.00    +0.000 OA
ENDROOT
BRANCH   1  12
ATOM      9  C   UNL     1       0.231   9.544  20.687  0.00  0.00    +0.000 A 
ATOM     10  C   UNL     1       1.041   8.460  21.067  0.00  0.00    +0.000 A 
ATOM     11  C   UNL     1       1.932   7.871  20.164  0.00  0.00    +0.000 A 
ATOM     12  C   UNL     1       1.992   8.333  18.853  0.00  0.00    +0.000 A 
ATOM     13  C   UNL     1       1.110   9.340  18.447  0.00  0.00    +0.000 A 
ATOM     14  C   UNL     1       0.223   9.952  19.346  0.00  0.00    +0.000 A 
BRANCH   9  16
ATOM     15  C   UNL     1      -0.417   9.737  22.953  0.00  0.00    +0.000 C 
ATOM     16  O   UNL     1      -0.562  10.184  21.604  0.00  0.00    +0.000 OA
ENDBRANCH   9  16
BRANCH  14  17
ATOM     17  O   UNL     1      -0.526  10.922  18.737  0.00  0.00    +0.000 OA
ATOM     18  C   UNL     1      -1.656  10.549  17.968  0.00  0.00    +0.000 C 
ENDBRANCH  14  17
ENDBRANCH   1  12
BRANCH   6  19
ATOM     19  C   UNL     1       5.672   4.016  16.367  0.00  0.00    +0.000 C 
BRANCH  19  20
ATOM     20  C   UNL     1       7.031   4.517  16.828  0.00  0.00    +0.000 C 
ATOM     21  O   UNL     1       7.473   4.343  17.953  0.00  0.00    +0.000 OA
BRANCH  20  22
ATOM     22  O   UNL     1       7.684   5.282  15.917  0.00  0.00    +0.000 OA
ATOM     23  H   UNL     1       7.125   5.957  15.459  0.00  0.00    +0.000 HD
ENDBRANCH  20  22
ENDBRANCH  19  20
ENDBRANCH   6  19
TORSDOF 6
ENDMDL
MODEL 5
REMARK VINA RESULT:      -6.5      3.036      7.299
REMARK  Name = 
REMARK  8 active torsions:
REMARK  status: ('A' for Active; 'I' for Inactive)
REMARK    1  A    between atoms: C_1  and  O_2
REMARK    2  A    between atoms: O_2  and  C_3
REMARK    3  A    between atoms: C_6  and  C_7
REMARK    4  A    between atoms: N_12  and  C_13
REMARK    5  A    between atoms: C_13  and  C_14
REMARK    6  A    between atoms: C_14  and  O_16
REMARK    7  A    between atoms: C_20  and  O_21
REMARK    8  A    between atoms: O_21  and  C_22
REMARK                            x       y       z     vdW  Elec       q    Type
REMARK                         _______ _______ _______ _____ _____    ______ ____
ROOT
ATOM      1  C   UNL     1       3.172   7.796  17.662  0.00  0.00    +0.000 C 
ATOM      2  C   UNL     1       3.928   6.713  17.880  0.00  0.00    +0.000 C 
ATOM      3  S   UNL     1       3.822   5.593  19.186  0.00  0.00    +0.000 S 
ATOM      4  C   UNL     1       5.199   4.665  18.621  0.00  0.00    +0.000 C 
ATOM      5  O   UNL     1       5.593   3.655  19.181  0.00  0.00    +0.000 OA
ATOM      6  N   UNL     1       5.737   5.257  17.513  0.00  0.00    +0.000 N 
ATOM      7  C   UNL     1       5.062   6.332  16.998  0.00  0.00    +0.000 C 
ATOM      8  O   UNL     1       5.342   6.865  15.931  0.00  0.00    +0.000 OA
ENDROOT
BRANCH   1  12
ATOM      9  C   UNL     1       0.353   9.461  20.411  0.00  0.00    +0.000 A 
ATOM     10  C   UNL     1       1.150   8.367  20.791  0.00  0.00    +0.000 A 
ATOM     11  C   UNL     1       2.060   7.791  19.898  0.00  0.00    +0.000 A 
ATOM     12  C   UNL     1       2.153   8.277  18.598  0.00  0.00    +0.000 A 
ATOM     13  C   UNL     1       1.285   9.294  18.189  0.00  0.00    +0.000 A 
ATOM     14  C   UNL     1       0.378   9.893  19.078  0.00  0.00    +0.000 A 
BRANCH   9  16
ATOM     15  C   UNL     1      -0.402   9.567  22.649  0.00  0.00    +0.000 C 
ATOM     16  O   UNL     1      -0.459  10.087  21.320  0.00  0.00    +0.000 OA
ENDBRANCH   9  16
BRANCH  14  17
ATOM     17  O   UNL     1      -0.353  10.877  18.469  0.00  0.00    +0.000 OA
ATOM     18  C   UNL     1      -1.592  10.550  17.863  0.00  0.00    +0.000 C 
ENDBRANCH  14  17
ENDBRANCH   1  12
BRANCH   6  19
ATOM     19  C   UNL     1       6.964   4.759  16.913  0.00  0.00    +0.000 C 
BRANCH  19  20
ATOM     20  C   UNL     1       6.832   4.501  15.422  0.00  0.00    +0.000 C 
ATOM     21  O   UNL     1       6.178   3.585  14.946  0.00  0.00    +0.000 OA
BRANCH  20  22
ATOM     22  O   UNL     1       7.596   5.308  14.643  0.00  0.00    +0.000 OA
ATOM     23  H   UNL     1       7.188   5.568  13.782  0.00  0.00    +0.000 HD
ENDBRANCH  20  22
ENDBRANCH  19  20
ENDBRANCH   6  19
TORSDOF 6
ENDMDL
MODEL 6
REMARK VINA RESULT:      -6.5      1.188      1.512
REMARK  Name = 
REMARK  8 active torsions:
REMARK  status: ('A' for Active; 'I' for Inactive)
REMARK    1  A    between atoms: C_1  and  O_2
REMARK    2  A    between atoms: O_2  and  C_3
REMARK    3  A    between atoms: C_6  and  C_7
REMARK    4  A    between atoms: N_12  and  C_13
REMARK    5  A    between atoms: C_13  and  C_14
REMARK    6  A    between atoms: C_14  and  O_16
REMARK    7  A    between atoms: C_20  and  O_21
REMARK    8  A    between atoms: O_21  and  C_22
REMARK                            x       y       z     vdW  Elec       q    Type
REMARK                         _______ _______ _______ _____ _____    ______ ____
ROOT
ATOM      1  C   UNL     1       2.891   7.378  17.896  0.00  0.00    +0.000 C 
ATOM      2  C   UNL     1       2.218   8.086  18.811  0.00  0.00    +0.000 C 
ATOM      3  S   UNL     1       1.779   7.608  20.408  0.00  0.00    +0.000 S 
ATOM      4  C   UNL     1       0.926   9.108  20.721  0.00  0.00    +0.000 C 
ATOM      5  O   UNL     1       0.400   9.361  21.792  0.00  0.00    +0.000 OA
ATOM      6  N   UNL     1       0.937   9.893  19.601  0.00  0.00    +0.000 N 
ATOM      7  C   UNL     1       1.682   9.446  18.541  0.00  0.00    +0.000 C 
ATOM      8  O   UNL     1       1.904  10.111  17.537  0.00  0.00    +0.000 OA
ENDROOT
BRANCH   1  12
ATOM      9  C   UNL     1       3.876   3.294  18.687  0.00  0.00    +0.000 A 
ATOM     10  C   UNL     1       4.852   4.296  18.825  0.00  0.00    +0.000 A 
ATOM     11  C   UNL     1       4.557   5.635  18.546  0.00  0.00    +0.000 A 
ATOM     12  C   UNL     1       3.292   5.981  18.084  0.00  0.00    +0.000 A 
ATOM     13  C   UNL     1       2.355   4.970  17.845  0.00  0.00    +0.000 A 
ATOM     14  C   UNL     1       2.631   3.625  18.135  0.00  0.00    +0.000 A 
BRANCH   9  16
ATOM     15  C   UNL     1       4.600   1.837  20.403  0.00  0.00    +0.000 C 
ATOM     16  O   UNL     1       4.139   2.002  19.061  0.00  0.00    +0.000 OA
ENDBRANCH   9  16
BRANCH  14  17
ATOM     17  O   UNL     1       1.566   2.816  17.844  0.00  0.00    +0.000 OA
ATOM     18  C   UNL     1       0.719   2.377  18.891  0.00  0.00    +0.000 C 
ENDBRANCH  14  17
ENDBRANCH   1  12
BRANCH   6  19
ATOM     19  C   UNL     1       0.195  11.142  19.549  0.00  0.00    +0.000 C 
BRANCH  19  20
ATOM     20  C   UNL     1       0.943  12.302  20.184  0.00  0.00    +0.000 C 
ATOM     21  O   UNL     1       1.756  12.993  19.589  0.00  0.00    +0.000 OA
BRANCH  20  22
ATOM     22  O   UNL     1       0.724  12.449  21.515  0.00  0.00    +0.000 OA
ATOM     23  H   UNL     1       0.948  11.660  22.066  0.00  0.00    +0.000 HD
ENDBRANCH  20  22
ENDBRANCH  19  20
ENDBRANCH   6  19
TORSDOF 6
ENDMDL
MODEL 7
REMARK VINA RESULT:      -6.5      1.117      2.194
REMARK  Name = 
REMARK  8 active torsions:
REMARK  status: ('A' for Active; 'I' for Inactive)
REMARK    1  A    between atoms: C_1  and  O_2
REMARK    2  A    between atoms: O_2  and  C_3
REMARK    3  A    between atoms: C_6  and  C_7
REMARK    4  A    between atoms: N_12  and  C_13
REMARK    5  A    between atoms: C_13  and  C_14
REMARK    6  A    between atoms: C_14  and  O_16
REMARK    7  A    between atoms: C_20  and  O_21
REMARK    8  A    between atoms: O_21  and  C_22
REMARK                            x       y       z     vdW  Elec       q    Type
REMARK                         _______ _______ _______ _____ _____    ______ ____
ROOT
ATOM      1  C   UNL     1       2.836   7.787  17.857  0.00  0.00    +0.000 C 
ATOM      2  C   UNL     1       2.109   8.521  18.709  0.00  0.00    +0.000 C 
ATOM      3  S   UNL     1       1.458   8.042  20.231  0.00  0.00    +0.000 S 
ATOM      4  C   UNL     1       0.674   9.590  20.486  0.00  0.00    +0.000 C 
ATOM      5  O   UNL     1       0.044   9.856  21.496  0.00  0.00    +0.000 OA
ATOM      6  N   UNL     1       0.866  10.394  19.397  0.00  0.00    +0.000 N 
ATOM      7  C   UNL     1       1.697   9.919  18.417  0.00  0.00    +0.000 C 
ATOM      8  O   UNL     1       2.077  10.587  17.463  0.00  0.00    +0.000 OA
ENDROOT
BRANCH   1  12
ATOM      9  C   UNL     1       3.828   3.640  18.163  0.00  0.00    +0.000 A 
ATOM     10  C   UNL     1       2.495   4.034  17.953  0.00  0.00    +0.000 A 
ATOM     11  C   UNL     1       2.145   5.387  17.876  0.00  0.00    +0.000 A 
ATOM     12  C   UNL     1       3.121   6.363  18.051  0.00  0.00    +0.000 A 
ATOM     13  C   UNL     1       4.426   5.971  18.366  0.00  0.00    +0.000 A 
ATOM     14  C   UNL     1       4.795   4.618  18.431  0.00  0.00    +0.000 A 
BRANCH   9  16
ATOM     15  C   UNL     1       3.279   1.428  18.794  0.00  0.00    +0.000 C 
ATOM     16  O   UNL     1       4.181   2.316  18.133  0.00  0.00    +0.000 OA
ENDBRANCH   9  16
BRANCH  14  17
ATOM     17  O   UNL     1       6.122   4.470  18.732  0.00  0.00    +0.000 OA
ATOM     18  C   UNL     1       7.094   4.711  17.729  0.00  0.00    +0.000 C 
ENDBRANCH  14  17
ENDBRANCH   1  12
BRANCH   6  19
ATOM     19  C   UNL     1       0.217  11.691  19.295  0.00  0.00    +0.000 C 
BRANCH  19  20
ATOM     20  C   UNL     1      -1.027  11.664  18.424  0.00  0.00    +0.000 C 
ATOM     21  O   UNL     1      -1.832  10.745  18.418  0.00  0.00    +0.000 OA
BRANCH  20  22
ATOM     22  O   UNL     1      -1.127  12.702  17.555  0.00  0.00    +0.000 OA
ATOM     23  H   UNL     1      -2.049  12.991  17.352  0.00  0.00    +0.000 HD
ENDBRANCH  20  22
ENDBRANCH  19  20
ENDBRANCH   6  19
TORSDOF 6
ENDMDL
MODEL 8
REMARK VINA RESULT:      -6.3      4.120      6.424
REMARK  Name = 
REMARK  8 active torsions:
REMARK  status: ('A' for Active; 'I' for Inactive)
REMARK    1  A    between atoms: C_1  and  O_2
REMARK    2  A    between atoms: O_2  and  C_3
REMARK    3  A    between atoms: C_6  and  C_7
REMARK    4  A    between atoms: N_12  and  C_13
REMARK    5  A    between atoms: C_13  and  C_14
REMARK    6  A    between atoms: C_14  and  O_16
REMARK    7  A    between atoms: C_20  and  O_21
REMARK    8  A    between atoms: O_21  and  C_22
REMARK                            x       y       z     vdW  Elec       q    Type
REMARK                         _______ _______ _______ _____ _____    ______ ____
ROOT
ATOM      1  C   UNL     1       3.968   3.573  16.761  0.00  0.00    +0.000 C 
ATOM      2  C   UNL     1       3.365   4.348  17.671  0.00  0.00    +0.000 C 
ATOM      3  S   UNL     1       3.680   6.005  18.027  0.00  0.00    +0.000 S 
ATOM      4  C   UNL     1       2.496   6.046  19.321  0.00  0.00    +0.000 C 
ATOM      5  O   UNL     1       2.246   7.056  19.959  0.00  0.00    +0.000 OA
ATOM      6  N   UNL     1       1.949   4.805  19.492  0.00  0.00    +0.000 N 
ATOM      7  C   UNL     1       2.310   3.841  18.587  0.00  0.00    +0.000 C 
ATOM      8  O   UNL     1       1.789   2.735  18.527  0.00  0.00    +0.000 OA
ENDROOT
BRANCH   1  12
ATOM      9  C   UNL     1       7.179   5.112  14.395  0.00  0.00    +0.000 A 
ATOM     10  C   UNL     1       6.333   4.116  13.877  0.00  0.00    +0.000 A 
ATOM     11  C   UNL     1       5.293   3.580  14.644  0.00  0.00    +0.000 A 
ATOM     12  C   UNL     1       5.113   4.006  15.956  0.00  0.00    +0.000 A 
ATOM     13  C   UNL     1       6.020   4.919  16.505  0.00  0.00    +0.000 A 
ATOM     14  C   UNL     1       7.058   5.476  15.743  0.00  0.00    +0.000 A 
BRANCH   9  16
ATOM     15  C   UNL     1       7.947   5.537  12.200  0.00  0.00    +0.000 C 
ATOM     16  O   UNL     1       8.128   5.707  13.606  0.00  0.00    +0.000 OA
ENDBRANCH   9  16
BRANCH  14  17
ATOM     17  O   UNL     1       7.805   6.358  16.476  0.00  0.00    +0.000 OA
ATOM     18  C   UNL     1       7.442   6.630  17.819  0.00  0.00    +0.000 C 
ENDBRANCH  14  17
ENDBRANCH   1  12
BRANCH   6  19
ATOM     19  C   UNL     1       1.027   4.532  20.582  0.00  0.00    +0.000 C 
BRANCH  19  20
ATOM     20  C   UNL     1       1.520   3.440  21.515  0.00  0.00    +0.000 C 
ATOM     21  O   UNL     1       2.490   3.561  22.249  0.00  0.00    +0.000 OA
BRANCH  20  22
ATOM     22  O   UNL     1       0.864   2.259  21.394  0.00  0.00    +0.000 OA
ATOM     23  H   UNL     1       1.444   1.465  21.295  0.00  0.00    +0.000 HD
ENDBRANCH  20  22
ENDBRANCH  19  20
ENDBRANCH   6  19
TORSDOF 6
ENDMDL
MODEL 9
REMARK VINA RESULT:      -6.3      1.648      2.678
REMARK  Name = 
REMARK  8 active torsions:
REMARK  status: ('A' for Active; 'I' for Inactive)
REMARK    1  A    between atoms: C_1  and  O_2
REMARK    2  A    between atoms: O_2  and  C_3
REMARK    3  A    between atoms: C_6  and  C_7
REMARK    4  A    between atoms: N_12  and  C_13
REMARK    5  A    between atoms: C_13  and  C_14
REMARK    6  A    between atoms: C_14  and  O_16
REMARK    7  A    between atoms: C_20  and  O_21
REMARK    8  A    between atoms: O_21  and  C_22
REMARK                            x       y       z     vdW  Elec       q    Type
REMARK                         _______ _______ _______ _____ _____    ______ ____
ROOT
ATOM      1  C   UNL     1       2.510   7.666  18.137  0.00  0.00    +0.000 C 
ATOM      2  C   UNL     1       1.909   8.314  19.143  0.00  0.00    +0.000 C 
ATOM      3  S   UNL     1       1.537   7.715  20.715  0.00  0.00    +0.000 S 
ATOM      4  C   UNL     1       0.750   9.208  21.196  0.00  0.00    +0.000 C 
ATOM      5  O   UNL     1       0.288   9.384  22.312  0.00  0.00    +0.000 OA
ATOM      6  N   UNL     1       0.730  10.083  20.147  0.00  0.00    +0.000 N 
ATOM      7  C   UNL     1       1.405   9.707  19.015  0.00  0.00    +0.000 C 
ATOM      8  O   UNL     1       1.597  10.447  18.059  0.00  0.00    +0.000 OA
ENDROOT
BRANCH   1  12
ATOM      9  C   UNL     1       3.744   3.575  18.033  0.00  0.00    +0.000 A 
ATOM     10  C   UNL     1       2.400   3.914  17.800  0.00  0.00    +0.000 A 
ATOM     11  C   UNL     1       1.970   5.244  17.855  0.00  0.00    +0.000 A 
ATOM     12  C   UNL     1       2.874   6.249  18.187  0.00  0.00    +0.000 A 
ATOM     13  C   UNL     1       4.186   5.898  18.523  0.00  0.00    +0.000 A 
ATOM     14  C   UNL     1       4.635   4.570  18.457  0.00  0.00    +0.000 A 
BRANCH   9  16
ATOM     15  C   UNL     1       3.501   1.310  18.668  0.00  0.00    +0.000 C 
ATOM     16  O   UNL     1       4.180   2.285  17.875  0.00  0.00    +0.000 OA
ENDBRANCH   9  16
BRANCH  14  17
ATOM     17  O   UNL     1       5.954   4.464  18.807  0.00  0.00    +0.000 OA
ATOM     18  C   UNL     1       6.955   4.743  17.843  0.00  0.00    +0.000 C 
ENDBRANCH  14  17
ENDBRANCH   1  12
BRANCH   6  19
ATOM     19  C   UNL     1       0.028  11.353  20.238  0.00  0.00    +0.000 C 
BRANCH  19  20
ATOM     20  C   UNL     1       0.904  12.478  20.763  0.00  0.00    +0.000 C 
ATOM     21  O   UNL     1       0.741  13.016  21.847  0.00  0.00    +0.000 OA
BRANCH  20  22
ATOM     22  O   UNL     1       1.828  12.927  19.877  0.00  0.00    +0.000 OA
ATOM     23  H   UNL     1       2.638  12.367  19.796  0.00  0.00    +0.000 HD
ENDBRANCH  20  22
ENDBRANCH  19  20
ENDBRANCH   6  19
TORSDOF 6
ENDMDL
