MODEL 1
REMARK VINA RESULT:      -8.1      0.000      0.000
REMARK  Name = 
REMARK  9 active torsions:
REMARK  status: ('A' for Active; 'I' for Inactive)
REMARK    1  A    between atoms: C_1  and  O_2
REMARK    2  A    between atoms: O_2  and  C_3
REMARK    3  A    between atoms: C_3  and  C_5
REMARK    4  A    between atoms: C_10  and  N_11
REMARK    5  A    between atoms: C_12  and  C_14
REMARK    6  A    between atoms: C_14  and  S_15
REMARK    7  A    between atoms: S_15  and  C_16
REMARK    8  A    between atoms: C_18  and  C_19
REMARK    9  A    between atoms: C_26  and  C_27
REMARK                            x       y       z     vdW  Elec       q    Type
REMARK                         _______ _______ _______ _____ _____    ______ ____
ROOT
ATOM      1  C   UNL     1       3.206   3.888  20.157  0.00  0.00    +0.000 C 
ENDROOT
BRANCH   1   3
ATOM      2  N   UNL     1       2.605   6.256  20.200  0.00  0.00    +0.000 N 
ATOM      3  C   UNL     1       2.128   4.951  20.263  0.00  0.00    +0.000 C 
ATOM      4  O   UNL     1       0.956   4.615  20.420  0.00  0.00    +0.000 OA
ATOM      5  H   UNL     1       3.556   6.372  19.854  0.00  0.00    +0.000 HD
BRANCH   2  11
ATOM      6  C   UNL     1       1.770   8.403  19.289  0.00  0.00    +0.000 A 
ATOM      7  C   UNL     1       0.960   9.548  19.461  0.00  0.00    +0.000 A 
ATOM      8  C   UNL     1       0.238   9.759  20.634  0.00  0.00    +0.000 A 
ATOM      9  C   UNL     1       0.332   8.839  21.664  0.00  0.00    +0.000 A 
ATOM     10  C   UNL     1       1.131   7.704  21.514  0.00  0.00    +0.000 A 
ATOM     11  C   UNL     1       1.840   7.445  20.328  0.00  0.00    +0.000 A 
BRANCH   6  12
ATOM     12  C   UNL     1       2.453   8.331  17.962  0.00  0.00    +0.000 C 
ATOM     13  O   UNL     1       2.324   9.195  17.104  0.00  0.00    +0.000 OA
BRANCH  12  15
ATOM     14  C   UNL     1       4.380   7.447  17.003  0.00  0.00    +0.000 C 
ATOM     15  O   UNL     1       3.215   7.219  17.807  0.00  0.00    +0.000 OA
ENDBRANCH  12  15
ENDBRANCH   6  12
ENDBRANCH   2  11
ENDBRANCH   1   3
BRANCH   1  16
ATOM     16  S   UNL     1       3.228   3.185  18.484  0.00  0.00    +0.000 S 
BRANCH  16  17
ATOM     17  C   UNL     1       4.756   3.876  17.879  0.00  0.00    +0.000 A 
ATOM     18  C   UNL     1       4.990   3.825  16.527  0.00  0.00    +0.000 A 
ATOM     19  C   UNL     1       6.175   4.369  16.076  0.00  0.00    +0.000 A 
ATOM     20  N   UNL     1       7.067   4.918  16.930  0.00  0.00    +0.000 NA
ATOM     21  C   UNL     1       6.751   4.921  18.238  0.00  0.00    +0.000 A 
ATOM     22  C   UNL     1       7.727   5.530  19.199  0.00  0.00    +0.000 C 
ATOM     23  N   UNL     1       5.614   4.424  18.752  0.00  0.00    +0.000 NA
BRANCH  19  24
ATOM     24  C   UNL     1       6.555   4.325  14.649  0.00  0.00    +0.000 A 
ATOM     25  C   UNL     1       7.528   5.192  14.113  0.00  0.00    +0.000 A 
ATOM     26  C   UNL     1       7.802   5.224  12.743  0.00  0.00    +0.000 A 
ATOM     27  C   UNL     1       7.120   4.374  11.879  0.00  0.00    +0.000 A 
ATOM     28  C   UNL     1       6.186   3.475  12.387  0.00  0.00    +0.000 A 
ATOM     29  C   UNL     1       5.912   3.448  13.758  0.00  0.00    +0.000 A 
ENDBRANCH  19  24
ENDBRANCH  16  17
ENDBRANCH   1  16
TORSDOF 7
ENDMDL
MODEL 2
REMARK VINA RESULT:      -8.0      1.618      2.903
REMARK  Name = 
REMARK  9 active torsions:
REMARK  status: ('A' for Active; 'I' for Inactive)
REMARK    1  A    between atoms: C_1  and  O_2
REMARK    2  A    between atoms: O_2  and  C_3
REMARK    3  A    between atoms: C_3  and  C_5
REMARK    4  A    between atoms: C_10  and  N_11
REMARK    5  A    between atoms: C_12  and  C_14
REMARK    6  A    between atoms: C_14  and  S_15
REMARK    7  A    between atoms: S_15  and  C_16
REMARK    8  A    between atoms: C_18  and  C_19
REMARK    9  A    between atoms: C_26  and  C_27
REMARK                            x       y       z     vdW  Elec       q    Type
REMARK                         _______ _______ _______ _____ _____    ______ ____
ROOT
ATOM      1  C   UNL     1       3.160   4.873  20.073  0.00  0.00    +0.000 C 
ENDROOT
BRANCH   1   3
ATOM      2  N   UNL     1       2.368   7.184  20.032  0.00  0.00    +0.000 N 
ATOM      3  C   UNL     1       2.539   6.018  19.295  0.00  0.00    +0.000 C 
ATOM      4  O   UNL     1       2.212   5.849  18.121  0.00  0.00    +0.000 OA
ATOM      5  H   UNL     1       2.879   7.240  20.912  0.00  0.00    +0.000 HD
BRANCH   2  11
ATOM      6  C   UNL     1       1.116   9.275  20.478  0.00  0.00    +0.000 A 
ATOM      7  C   UNL     1       0.570  10.478  19.978  0.00  0.00    +0.000 A 
ATOM      8  C   UNL     1       0.645  10.806  18.626  0.00  0.00    +0.000 A 
ATOM      9  C   UNL     1       1.250   9.924  17.747  0.00  0.00    +0.000 A 
ATOM     10  C   UNL     1       1.792   8.728  18.221  0.00  0.00    +0.000 A 
ATOM     11  C   UNL     1       1.765   8.389  19.586  0.00  0.00    +0.000 A 
BRANCH   6  12
ATOM     12  C   UNL     1       0.962   9.100  21.954  0.00  0.00    +0.000 C 
ATOM     13  O   UNL     1       1.914   9.095  22.723  0.00  0.00    +0.000 OA
BRANCH  12  15
ATOM     14  C   UNL     1      -0.790   9.999  23.193  0.00  0.00    +0.000 C 
ATOM     15  O   UNL     1      -0.328   8.940  22.345  0.00  0.00    +0.000 OA
ENDBRANCH  12  15
ENDBRANCH   6  12
ENDBRANCH   2  11
ENDBRANCH   1   3
BRANCH   1  16
ATOM     16  S   UNL     1       3.559   3.500  18.955  0.00  0.00    +0.000 S 
BRANCH  16  17
ATOM     17  C   UNL     1       5.026   4.153  18.179  0.00  0.00    +0.000 A 
ATOM     18  C   UNL     1       5.117   4.069  16.811  0.00  0.00    +0.000 A 
ATOM     19  C   UNL     1       6.256   4.582  16.227  0.00  0.00    +0.000 A 
ATOM     20  N   UNL     1       7.241   5.133  16.971  0.00  0.00    +0.000 NA
ATOM     21  C   UNL     1       7.063   5.169  18.305  0.00  0.00    +0.000 A 
ATOM     22  C   UNL     1       8.144   5.780  19.144  0.00  0.00    +0.000 C 
ATOM     23  N   UNL     1       5.979   4.703  18.945  0.00  0.00    +0.000 NA
BRANCH  19  24
ATOM     24  C   UNL     1       6.484   4.502  14.769  0.00  0.00    +0.000 A 
ATOM     25  C   UNL     1       5.745   3.626  13.950  0.00  0.00    +0.000 A 
ATOM     26  C   UNL     1       6.040   3.472  12.593  0.00  0.00    +0.000 A 
ATOM     27  C   UNL     1       7.073   4.207  12.020  0.00  0.00    +0.000 A 
ATOM     28  C   UNL     1       7.790   5.113  12.796  0.00  0.00    +0.000 A 
ATOM     29  C   UNL     1       7.494   5.262  14.154  0.00  0.00    +0.000 A 
ENDBRANCH  19  24
ENDBRANCH  16  17
ENDBRANCH   1  16
TORSDOF 7
ENDMDL
MODEL 3
REMARK VINA RESULT:      -8.0      5.335      7.633
REMARK  Name = 
REMARK  9 active torsions:
REMARK  status: ('A' for Active; 'I' for Inactive)
REMARK    1  A    between atoms: C_1  and  O_2
REMARK    2  A    between atoms: O_2  and  C_3
REMARK    3  A    between atoms: C_3  and  C_5
REMARK    4  A    between atoms: C_10  and  N_11
REMARK    5  A    between atoms: C_12  and  C_14
REMARK    6  A    between atoms: C_14  and  S_15
REMARK    7  A    between atoms: S_15  and  C_16
REMARK    8  A    between atoms: C_18  and  C_19
REMARK    9  A    between atoms: C_26  and  C_27
REMARK                            x       y       z     vdW  Elec       q    Type
REMARK                         _______ _______ _______ _____ _____    ______ ____
ROOT
ATOM      1  C   UNL     1       7.842   8.619  17.696  0.00  0.00    +0.000 C 
ENDROOT
BRANCH   1   3
ATOM      2  N   UNL     1       9.063  10.733  17.587  0.00  0.00    +0.000 N 
ATOM      3  C   UNL     1       8.718   9.648  18.386  0.00  0.00    +0.000 C 
ATOM      4  O   UNL     1       9.080   9.459  19.546  0.00  0.00    +0.000 OA
ATOM      5  H   UNL     1       8.517  10.857  16.735  0.00  0.00    +0.000 HD
BRANCH   2  11
ATOM      6  C   UNL     1       9.441  13.146  18.001  0.00  0.00    +0.000 A 
ATOM      7  C   UNL     1      10.326  14.172  18.401  0.00  0.00    +0.000 A 
ATOM      8  C   UNL     1      11.653  13.903  18.730  0.00  0.00    +0.000 A 
ATOM      9  C   UNL     1      12.123  12.604  18.642  0.00  0.00    +0.000 A 
ATOM     10  C   UNL     1      11.265  11.577  18.244  0.00  0.00    +0.000 A 
ATOM     11  C   UNL     1       9.912  11.813  17.944  0.00  0.00    +0.000 A 
BRANCH   6  12
ATOM     12  C   UNL     1       8.053  13.615  17.707  0.00  0.00    +0.000 C 
ATOM     13  O   UNL     1       7.230  12.922  17.123  0.00  0.00    +0.000 OA
BRANCH  12  15
ATOM     14  C   UNL     1       6.460  15.058  18.597  0.00  0.00    +0.000 C 
ATOM     15  O   UNL     1       7.807  14.877  18.143  0.00  0.00    +0.000 OA
ENDBRANCH  12  15
ENDBRANCH   6  12
ENDBRANCH   2  11
ENDBRANCH   1   3
BRANCH   1  16
ATOM     16  S   UNL     1       8.026   7.002  18.499  0.00  0.00    +0.000 S 
BRANCH  16  17
ATOM     17  C   UNL     1       6.994   6.011  17.435  0.00  0.00    +0.000 A 
ATOM     18  C   UNL     1       5.853   5.469  17.976  0.00  0.00    +0.000 A 
ATOM     19  C   UNL     1       5.064   4.708  17.137  0.00  0.00    +0.000 A 
ATOM     20  N   UNL     1       5.407   4.501  15.847  0.00  0.00    +0.000 NA
ATOM     21  C   UNL     1       6.543   5.071  15.407  0.00  0.00    +0.000 A 
ATOM     22  C   UNL     1       6.935   4.854  13.977  0.00  0.00    +0.000 C 
ATOM     23  N   UNL     1       7.356   5.833  16.156  0.00  0.00    +0.000 NA
BRANCH  19  24
ATOM     24  C   UNL     1       3.841   4.036  17.622  0.00  0.00    +0.000 A 
ATOM     25  C   UNL     1       3.829   2.665  17.949  0.00  0.00    +0.000 A 
ATOM     26  C   UNL     1       2.645   2.009  18.299  0.00  0.00    +0.000 A 
ATOM     27  C   UNL     1       1.448   2.717  18.347  0.00  0.00    +0.000 A 
ATOM     28  C   UNL     1       1.440   4.081  18.073  0.00  0.00    +0.000 A 
ATOM     29  C   UNL     1       2.625   4.734  17.720  0.00  0.00    +0.000 A 
ENDBRANCH  19  24
ENDBRANCH  16  17
ENDBRANCH   1  16
TORSDOF 7
ENDMDL
MODEL 4
REMARK VINA RESULT:      -7.7      1.367      2.606
REMARK  Name = 
REMARK  9 active torsions:
REMARK  status: ('A' for Active; 'I' for Inactive)
REMARK    1  A    between atoms: C_1  and  O_2
REMARK    2  A    between atoms: O_2  and  C_3
REMARK    3  A    between atoms: C_3  and  C_5
REMARK    4  A    between atoms: C_10  and  N_11
REMARK    5  A    between atoms: C_12  and  C_14
REMARK    6  A    between atoms: C_14  and  S_15
REMARK    7  A    between atoms: S_15  and  C_16
REMARK    8  A    between atoms: C_18  and  C_19
REMARK    9  A    between atoms: C_26  and  C_27
REMARK                            x       y       z     vdW  Elec       q    Type
REMARK                         _______ _______ _______ _____ _____    ______ ____
ROOT
ATOM      1  C   UNL     1       2.950   4.113  19.736  0.00  0.00    +0.000 C 
ENDROOT
BRANCH   1   3
ATOM      2  N   UNL     1       2.635   6.534  19.639  0.00  0.00    +0.000 N 
ATOM      3  C   UNL     1       2.433   5.325  18.983  0.00  0.00    +0.000 C 
ATOM      4  O   UNL     1       1.868   5.173  17.902  0.00  0.00    +0.000 OA
ATOM      5  H   UNL     1       3.301   6.523  20.411  0.00  0.00    +0.000 HD
BRANCH   2  11
ATOM      6  C   UNL     1       1.382   8.639  20.004  0.00  0.00    +0.000 A 
ATOM      7  C   UNL     1       1.024   9.923  19.531  0.00  0.00    +0.000 A 
ATOM      8  C   UNL     1       1.458  10.389  18.293  0.00  0.00    +0.000 A 
ATOM      9  C   UNL     1       2.240   9.571  17.495  0.00  0.00    +0.000 A 
ATOM     10  C   UNL     1       2.600   8.299  17.943  0.00  0.00    +0.000 A 
ATOM     11  C   UNL     1       2.209   7.816  19.204  0.00  0.00    +0.000 A 
BRANCH   6  12
ATOM     12  C   UNL     1       0.844   8.315  21.360  0.00  0.00    +0.000 C 
ATOM     13  O   UNL     1       0.259   7.268  21.607  0.00  0.00    +0.000 OA
BRANCH  12  15
ATOM     14  C   UNL     1      -0.055   9.502  23.148  0.00  0.00    +0.000 C 
ATOM     15  O   UNL     1       1.062   9.294  22.274  0.00  0.00    +0.000 OA
ENDBRANCH  12  15
ENDBRANCH   6  12
ENDBRANCH   2  11
ENDBRANCH   1   3
BRANCH   1  16
ATOM     16  S   UNL     1       3.574   2.871  18.569  0.00  0.00    +0.000 S 
BRANCH  16  17
ATOM     17  C   UNL     1       4.998   3.735  17.933  0.00  0.00    +0.000 A 
ATOM     18  C   UNL     1       5.208   3.710  16.576  0.00  0.00    +0.000 A 
ATOM     19  C   UNL     1       6.313   4.387  16.102  0.00  0.00    +0.000 A 
ATOM     20  N   UNL     1       7.153   5.036  16.938  0.00  0.00    +0.000 NA
ATOM     21  C   UNL     1       6.867   5.003  18.252  0.00  0.00    +0.000 A 
ATOM     22  C   UNL     1       7.786   5.721  19.193  0.00  0.00    +0.000 C 
ATOM     23  N   UNL     1       5.806   4.378  18.789  0.00  0.00    +0.000 NA
BRANCH  19  24
ATOM     24  C   UNL     1       6.665   4.387  14.666  0.00  0.00    +0.000 A 
ATOM     25  C   UNL     1       7.557   5.331  14.121  0.00  0.00    +0.000 A 
ATOM     26  C   UNL     1       7.799   5.398  12.746  0.00  0.00    +0.000 A 
ATOM     27  C   UNL     1       7.166   4.507  11.886  0.00  0.00    +0.000 A 
ATOM     28  C   UNL     1       6.314   3.535  12.403  0.00  0.00    +0.000 A 
ATOM     29  C   UNL     1       6.072   3.473  13.779  0.00  0.00    +0.000 A 
ENDBRANCH  19  24
ENDBRANCH  16  17
ENDBRANCH   1  16
TORSDOF 7
ENDMDL
MODEL 5
REMARK VINA RESULT:      -7.6      3.610      8.625
REMARK  Name = 
REMARK  9 active torsions:
REMARK  status: ('A' for Active; 'I' for Inactive)
REMARK    1  A    between atoms: C_1  and  O_2
REMARK    2  A    between atoms: O_2  and  C_3
REMARK    3  A    between atoms: C_3  and  C_5
REMARK    4  A    between atoms: C_10  and  N_11
REMARK    5  A    between atoms: C_12  and  C_14
REMARK    6  A    between atoms: C_14  and  S_15
REMARK    7  A    between atoms: S_15  and  C_16
REMARK    8  A    between atoms: C_18  and  C_19
REMARK    9  A    between atoms: C_26  and  C_27
REMARK                            x       y       z     vdW  Elec       q    Type
REMARK                         _______ _______ _______ _____ _____    ______ ____
ROOT
ATOM      1  C   UNL     1       1.884   8.110  19.943  0.00  0.00    +0.000 C 
ENDROOT
BRANCH   1   3
ATOM      2  N   UNL     1       2.454   6.051  18.757  0.00  0.00    +0.000 N 
ATOM      3  C   UNL     1       2.074   6.604  19.974  0.00  0.00    +0.000 C 
ATOM      4  O   UNL     1       1.863   5.986  21.016  0.00  0.00    +0.000 OA
ATOM      5  H   UNL     1       2.797   6.702  18.052  0.00  0.00    +0.000 HD
BRANCH   2  11
ATOM      6  C   UNL     1       3.938   4.122  18.293  0.00  0.00    +0.000 A 
ATOM      7  C   UNL     1       4.067   2.735  18.055  0.00  0.00    +0.000 A 
ATOM      8  C   UNL     1       2.953   1.901  17.984  0.00  0.00    +0.000 A 
ATOM      9  C   UNL     1       1.688   2.445  18.128  0.00  0.00    +0.000 A 
ATOM     10  C   UNL     1       1.540   3.814  18.360  0.00  0.00    +0.000 A 
ATOM     11  C   UNL     1       2.647   4.672  18.475  0.00  0.00    +0.000 A 
BRANCH   6  12
ATOM     12  C   UNL     1       5.238   4.855  18.358  0.00  0.00    +0.000 C 
ATOM     13  O   UNL     1       6.240   4.380  18.876  0.00  0.00    +0.000 OA
BRANCH  12  15
ATOM     14  C   UNL     1       5.256   6.057  16.366  0.00  0.00    +0.000 C 
ATOM     15  O   UNL     1       5.189   6.090  17.797  0.00  0.00    +0.000 OA
ENDBRANCH  12  15
ENDBRANCH   6  12
ENDBRANCH   2  11
ENDBRANCH   1   3
BRANCH   1  16
ATOM     16  S   UNL     1       1.174   8.683  21.511  0.00  0.00    +0.000 S 
BRANCH  16  17
ATOM     17  C   UNL     1       0.318  10.142  20.947  0.00  0.00    +0.000 A 
ATOM     18  C   UNL     1      -0.580   9.998  19.917  0.00  0.00    +0.000 A 
ATOM     19  C   UNL     1      -1.236  11.136  19.497  0.00  0.00    +0.000 A 
ATOM     20  N   UNL     1      -0.996  12.338  20.067  0.00  0.00    +0.000 NA
ATOM     21  C   UNL     1      -0.098  12.381  21.067  0.00  0.00    +0.000 A 
ATOM     22  C   UNL     1       0.178  13.705  21.713  0.00  0.00    +0.000 C 
ATOM     23  N   UNL     1       0.571  11.317  21.541  0.00  0.00    +0.000 NA
BRANCH  19  24
ATOM     24  C   UNL     1      -2.187  11.109  18.366  0.00  0.00    +0.000 A 
ATOM     25  C   UNL     1      -3.468  11.689  18.460  0.00  0.00    +0.000 A 
ATOM     26  C   UNL     1      -4.404  11.563  17.429  0.00  0.00    +0.000 A 
ATOM     27  C   UNL     1      -4.070  10.867  16.271  0.00  0.00    +0.000 A 
ATOM     28  C   UNL     1      -2.796  10.324  16.133  0.00  0.00    +0.000 A 
ATOM     29  C   UNL     1      -1.864  10.449  17.168  0.00  0.00    +0.000 A 
ENDBRANCH  19  24
ENDBRANCH  16  17
ENDBRANCH   1  16
TORSDOF 7
ENDMDL
MODEL 6
REMARK VINA RESULT:      -7.6      2.194      8.112
REMARK  Name = 
REMARK  9 active torsions:
REMARK  status: ('A' for Active; 'I' for Inactive)
REMARK    1  A    between atoms: C_1  and  O_2
REMARK    2  A    between atoms: O_2  and  C_3
REMARK    3  A    between atoms: C_3  and  C_5
REMARK    4  A    between atoms: C_10  and  N_11
REMARK    5  A    between atoms: C_12  and  C_14
REMARK    6  A    between atoms: C_14  and  S_15
REMARK    7  A    between atoms: S_15  and  C_16
REMARK    8  A    between atoms: C_18  and  C_19
REMARK    9  A    between atoms: C_26  and  C_27
REMARK                            x       y       z     vdW  Elec       q    Type
REMARK                         _______ _______ _______ _____ _____    ______ ____
ROOT
ATOM      1  C   UNL     1       1.871   3.782  19.267  0.00  0.00    +0.000 C 
ENDROOT
BRANCH   1   3
ATOM      2  N   UNL     1       3.621   4.517  17.729  0.00  0.00    +0.000 N 
ATOM      3  C   UNL     1       3.172   3.485  18.544  0.00  0.00    +0.000 C 
ATOM      4  O   UNL     1       3.713   2.390  18.691  0.00  0.00    +0.000 OA
ATOM      5  H   UNL     1       3.190   5.429  17.877  0.00  0.00    +0.000 HD
BRANCH   2  11
ATOM      6  C   UNL     1       6.060   4.793  17.395  0.00  0.00    +0.000 A 
ATOM      7  C   UNL     1       7.170   4.721  16.523  0.00  0.00    +0.000 A 
ATOM      8  C   UNL     1       7.020   4.380  15.180  0.00  0.00    +0.000 A 
ATOM      9  C   UNL     1       5.753   4.128  14.682  0.00  0.00    +0.000 A 
ATOM     10  C   UNL     1       4.644   4.198  15.527  0.00  0.00    +0.000 A 
ATOM     11  C   UNL     1       4.770   4.501  16.894  0.00  0.00    +0.000 A 
BRANCH   6  12
ATOM     12  C   UNL     1       6.411   5.152  18.802  0.00  0.00    +0.000 C 
ATOM     13  O   UNL     1       5.567   5.300  19.678  0.00  0.00    +0.000 OA
BRANCH  12  15
ATOM     14  C   UNL     1       8.158   6.675  19.003  0.00  0.00    +0.000 C 
ATOM     15  O   UNL     1       7.744   5.303  19.004  0.00  0.00    +0.000 OA
ENDBRANCH  12  15
ENDBRANCH   6  12
ENDBRANCH   2  11
ENDBRANCH   1   3
BRANCH   1  16
ATOM     16  S   UNL     1       2.203   4.687  20.804  0.00  0.00    +0.000 S 
BRANCH  16  17
ATOM     17  C   UNL     1       1.997   6.361  20.226  0.00  0.00    +0.000 A 
ATOM     18  C   UNL     1       1.305   7.234  21.030  0.00  0.00    +0.000 A 
ATOM     19  C   UNL     1       1.159   8.526  20.569  0.00  0.00    +0.000 A 
ATOM     20  N   UNL     1       1.666   8.909  19.376  0.00  0.00    +0.000 NA
ATOM     21  C   UNL     1       2.327   7.983  18.658  0.00  0.00    +0.000 A 
ATOM     22  C   UNL     1       2.899   8.392  17.335  0.00  0.00    +0.000 C 
ATOM     23  N   UNL     1       2.522   6.712  19.043  0.00  0.00    +0.000 NA
BRANCH  19  24
ATOM     24  C   UNL     1       0.391   9.537  21.326  0.00  0.00    +0.000 A 
ATOM     25  C   UNL     1      -0.037   9.306  22.648  0.00  0.00    +0.000 A 
ATOM     26  C   UNL     1      -0.857  10.217  23.319  0.00  0.00    +0.000 A 
ATOM     27  C   UNL     1      -1.253  11.391  22.687  0.00  0.00    +0.000 A 
ATOM     28  C   UNL     1      -0.807  11.666  21.397  0.00  0.00    +0.000 A 
ATOM     29  C   UNL     1       0.011  10.751  20.727  0.00  0.00    +0.000 A 
ENDBRANCH  19  24
ENDBRANCH  16  17
ENDBRANCH   1  16
TORSDOF 7
ENDMDL
MODEL 7
REMARK VINA RESULT:      -7.5      1.824      2.684
REMARK  Name = 
REMARK  9 active torsions:
REMARK  status: ('A' for Active; 'I' for Inactive)
REMARK    1  A    between atoms: C_1  and  O_2
REMARK    2  A    between atoms: O_2  and  C_3
REMARK    3  A    between atoms: C_3  and  C_5
REMARK    4  A    between atoms: C_10  and  N_11
REMARK    5  A    between atoms: C_12  and  C_14
REMARK    6  A    between atoms: C_14  and  S_15
REMARK    7  A    between atoms: S_15  and  C_16
REMARK    8  A    between atoms: C_18  and  C_19
REMARK    9  A    between atoms: C_26  and  C_27
REMARK                            x       y       z     vdW  Elec       q    Type
REMARK                         _______ _______ _______ _____ _____    ______ ____
ROOT
ATOM      1  C   UNL     1       2.715   7.153  18.437  0.00  0.00    +0.000 C 
ENDROOT
BRANCH   1   3
ATOM      2  N   UNL     1       1.452   8.796  19.733  0.00  0.00    +0.000 N 
ATOM      3  C   UNL     1       1.910   7.484  19.680  0.00  0.00    +0.000 C 
ATOM      4  O   UNL     1       1.741   6.624  20.543  0.00  0.00    +0.000 OA
ATOM      5  H   UNL     1       1.484   9.320  18.859  0.00  0.00    +0.000 HD
BRANCH   2  11
ATOM      6  C   UNL     1      -0.171  10.470  20.570  0.00  0.00    +0.000 A 
ATOM      7  C   UNL     1      -0.892  11.003  21.662  0.00  0.00    +0.000 A 
ATOM      8  C   UNL     1      -0.731  10.506  22.954  0.00  0.00    +0.000 A 
ATOM      9  C   UNL     1       0.173   9.482  23.179  0.00  0.00    +0.000 A 
ATOM     10  C   UNL     1       0.899   8.945  22.113  0.00  0.00    +0.000 A 
ATOM     11  C   UNL     1       0.728   9.400  20.794  0.00  0.00    +0.000 A 
BRANCH   6  12
ATOM     12  C   UNL     1      -0.486  11.110  19.258  0.00  0.00    +0.000 C 
ATOM     13  O   UNL     1      -0.839  10.469  18.276  0.00  0.00    +0.000 OA
BRANCH  12  15
ATOM     14  C   UNL     1       1.001  12.873  18.950  0.00  0.00    +0.000 C 
ATOM     15  O   UNL     1      -0.334  12.459  19.266  0.00  0.00    +0.000 OA
ENDBRANCH  12  15
ENDBRANCH   6  12
ENDBRANCH   2  11
ENDBRANCH   1   3
BRANCH   1  16
ATOM     16  S   UNL     1       3.065   5.374  18.375  0.00  0.00    +0.000 S 
BRANCH  16  17
ATOM     17  C   UNL     1       4.731   5.410  17.740  0.00  0.00    +0.000 A 
ATOM     18  C   UNL     1       4.921   5.070  16.423  0.00  0.00    +0.000 A 
ATOM     19  C   UNL     1       6.215   5.108  15.947  0.00  0.00    +0.000 A 
ATOM     20  N   UNL     1       7.248   5.456  16.747  0.00  0.00    +0.000 NA
ATOM     21  C   UNL     1       6.965   5.771  18.023  0.00  0.00    +0.000 A 
ATOM     22  C   UNL     1       8.098   6.163  18.922  0.00  0.00    +0.000 C 
ATOM     23  N   UNL     1       5.732   5.770  18.556  0.00  0.00    +0.000 NA
BRANCH  19  24
ATOM     24  C   UNL     1       6.544   4.714  14.562  0.00  0.00    +0.000 A 
ATOM     25  C   UNL     1       7.579   5.339  13.839  0.00  0.00    +0.000 A 
ATOM     26  C   UNL     1       7.812   5.042  12.493  0.00  0.00    +0.000 A 
ATOM     27  C   UNL     1       7.023   4.098  11.844  0.00  0.00    +0.000 A 
ATOM     28  C   UNL     1       6.022   3.433  12.547  0.00  0.00    +0.000 A 
ATOM     29  C   UNL     1       5.790   3.735  13.892  0.00  0.00    +0.000 A 
ENDBRANCH  19  24
ENDBRANCH  16  17
ENDBRANCH   1  16
TORSDOF 7
ENDMDL
MODEL 8
REMARK VINA RESULT:      -7.5      3.784      8.817
REMARK  Name = 
REMARK  9 active torsions:
REMARK  status: ('A' for Active; 'I' for Inactive)
REMARK    1  A    between atoms: C_1  and  O_2
REMARK    2  A    between atoms: O_2  and  C_3
REMARK    3  A    between atoms: C_3  and  C_5
REMARK    4  A    between atoms: C_10  and  N_11
REMARK    5  A    between atoms: C_12  and  C_14
REMARK    6  A    between atoms: C_14  and  S_15
REMARK    7  A    between atoms: S_15  and  C_16
REMARK    8  A    between atoms: C_18  and  C_19
REMARK    9  A    between atoms: C_26  and  C_27
REMARK                            x       y       z     vdW  Elec       q    Type
REMARK                         _______ _______ _______ _____ _____    ______ ____
ROOT
ATOM      1  C   UNL     1       1.893   8.192  19.852  0.00  0.00    +0.000 C 
ENDROOT
BRANCH   1   3
ATOM      2  N   UNL     1       2.537   6.144  18.685  0.00  0.00    +0.000 N 
ATOM      3  C   UNL     1       2.050   6.683  19.871  0.00  0.00    +0.000 C 
ATOM      4  O   UNL     1       1.727   6.050  20.875  0.00  0.00    +0.000 OA
ATOM      5  H   UNL     1       2.959   6.802  18.031  0.00  0.00    +0.000 HD
BRANCH   2  11
ATOM      6  C   UNL     1       4.018   4.229  18.161  0.00  0.00    +0.000 A 
ATOM      7  C   UNL     1       4.149   2.843  17.917  0.00  0.00    +0.000 A 
ATOM      8  C   UNL     1       3.041   1.999  17.892  0.00  0.00    +0.000 A 
ATOM      9  C   UNL     1       1.778   2.532  18.087  0.00  0.00    +0.000 A 
ATOM     10  C   UNL     1       1.627   3.900  18.325  0.00  0.00    +0.000 A 
ATOM     11  C   UNL     1       2.731   4.768  18.396  0.00  0.00    +0.000 A 
BRANCH   6  12
ATOM     12  C   UNL     1       5.313   4.973  18.173  0.00  0.00    +0.000 C 
ATOM     13  O   UNL     1       5.380   6.186  18.018  0.00  0.00    +0.000 OA
BRANCH  12  15
ATOM     14  C   UNL     1       7.567   4.651  17.693  0.00  0.00    +0.000 C 
ATOM     15  O   UNL     1       6.393   4.174  18.363  0.00  0.00    +0.000 OA
ENDBRANCH  12  15
ENDBRANCH   6  12
ENDBRANCH   2  11
ENDBRANCH   1   3
BRANCH   1  16
ATOM     16  S   UNL     1       1.919   8.801  18.143  0.00  0.00    +0.000 S 
BRANCH  16  17
ATOM     17  C   UNL     1       0.977  10.303  18.337  0.00  0.00    +0.000 A 
ATOM     18  C   UNL     1      -0.382  10.233  18.152  0.00  0.00    +0.000 A 
ATOM     19  C   UNL     1      -1.096  11.403  18.310  0.00  0.00    +0.000 A 
ATOM     20  N   UNL     1      -0.480  12.565  18.623  0.00  0.00    +0.000 NA
ATOM     21  C   UNL     1       0.855  12.536  18.783  0.00  0.00    +0.000 A 
ATOM     22  C   UNL     1       1.553  13.815  19.134  0.00  0.00    +0.000 C 
ATOM     23  N   UNL     1       1.617  11.437  18.659  0.00  0.00    +0.000 NA
BRANCH  19  24
ATOM     24  C   UNL     1      -2.555  11.457  18.088  0.00  0.00    +0.000 A 
ATOM     25  C   UNL     1      -3.131  11.102  16.852  0.00  0.00    +0.000 A 
ATOM     26  C   UNL     1      -4.499  11.262  16.611  0.00  0.00    +0.000 A 
ATOM     27  C   UNL     1      -5.325  11.766  17.610  0.00  0.00    +0.000 A 
ATOM     28  C   UNL     1      -4.790  12.082  18.856  0.00  0.00    +0.000 A 
ATOM     29  C   UNL     1      -3.421  11.924  19.093  0.00  0.00    +0.000 A 
ENDBRANCH  19  24
ENDBRANCH  16  17
ENDBRANCH   1  16
TORSDOF 7
ENDMDL
MODEL 9
REMARK VINA RESULT:      -7.4      3.736      5.441
REMARK  Name = 
REMARK  9 active torsions:
REMARK  status: ('A' for Active; 'I' for Inactive)
REMARK    1  A    between atoms: C_1  and  O_2
REMARK    2  A    between atoms: O_2  and  C_3
REMARK    3  A    between atoms: C_3  and  C_5
REMARK    4  A    between atoms: C_10  and  N_11
REMARK    5  A    between atoms: C_12  and  C_14
REMARK    6  A    between atoms: C_14  and  S_15
REMARK    7  A    between atoms: S_15  and  C_16
REMARK    8  A    between atoms: C_18  and  C_19
REMARK    9  A    between atoms: C_26  and  C_27
REMARK                            x       y       z     vdW  Elec       q    Type
REMARK                         _______ _______ _______ _____ _____    ______ ____
ROOT
ATOM      1  C   UNL     1       1.277  10.206  19.727  0.00  0.00    +0.000 C 
ENDROOT
BRANCH   1   3
ATOM      2  N   UNL     1      -0.806  11.328  19.118  0.00  0.00    +0.000 N 
ATOM      3  C   UNL     1      -0.231  10.303  19.862  0.00  0.00    +0.000 C 
ATOM      4  O   UNL     1      -0.827   9.528  20.607  0.00  0.00    +0.000 OA
ATOM      5  H   UNL     1      -0.222  11.740  18.391  0.00  0.00    +0.000 HD
BRANCH   2  11
ATOM      6  C   UNL     1      -3.020  11.353  18.006  0.00  0.00    +0.000 A 
ATOM      7  C   UNL     1      -4.387  11.708  18.058  0.00  0.00    +0.000 A 
ATOM      8  C   UNL     1      -4.921  12.390  19.148  0.00  0.00    +0.000 A 
ATOM      9  C   UNL     1      -4.092  12.750  20.196  0.00  0.00    +0.000 A 
ATOM     10  C   UNL     1      -2.737  12.412  20.161  0.00  0.00    +0.000 A 
ATOM     11  C   UNL     1      -2.179  11.690  19.092  0.00  0.00    +0.000 A 
BRANCH   6  12
ATOM     12  C   UNL     1      -2.627  10.607  16.772  0.00  0.00    +0.000 C 
ATOM     13  O   UNL     1      -1.804   9.701  16.781  0.00  0.00    +0.000 OA
BRANCH  12  15
ATOM     14  C   UNL     1      -3.131  10.137  14.550  0.00  0.00    +0.000 C 
ATOM     15  O   UNL     1      -3.264  11.041  15.655  0.00  0.00    +0.000 OA
ENDBRANCH  12  15
ENDBRANCH   6  12
ENDBRANCH   2  11
ENDBRANCH   1   3
BRANCH   1  16
ATOM     16  S   UNL     1       1.722   9.677  18.049  0.00  0.00    +0.000 S 
BRANCH  16  17
ATOM     17  C   UNL     1       2.391   8.062  18.404  0.00  0.00    +0.000 A 
ATOM     18  C   UNL     1       3.388   7.590  17.585  0.00  0.00    +0.000 A 
ATOM     19  C   UNL     1       3.897   6.341  17.876  0.00  0.00    +0.000 A 
ATOM     20  N   UNL     1       3.427   5.615  18.915  0.00  0.00    +0.000 NA
ATOM     21  C   UNL     1       2.447   6.160  19.660  0.00  0.00    +0.000 A 
ATOM     22  C   UNL     1       1.917   5.369  20.817  0.00  0.00    +0.000 C 
ATOM     23  N   UNL     1       1.910   7.372  19.448  0.00  0.00    +0.000 NA
BRANCH  19  24
ATOM     24  C   UNL     1       4.936   5.712  17.035  0.00  0.00    +0.000 A 
ATOM     25  C   UNL     1       4.716   4.485  16.377  0.00  0.00    +0.000 A 
ATOM     26  C   UNL     1       5.737   3.839  15.676  0.00  0.00    +0.000 A 
ATOM     27  C   UNL     1       7.001   4.417  15.602  0.00  0.00    +0.000 A 
ATOM     28  C   UNL     1       7.234   5.650  16.205  0.00  0.00    +0.000 A 
ATOM     29  C   UNL     1       6.210   6.292  16.909  0.00  0.00    +0.000 A 
ENDBRANCH  19  24
ENDBRANCH  16  17
ENDBRANCH   1  16
TORSDOF 7
ENDMDL
