MODEL 1
REMARK VINA RESULT:      -7.9      0.000      0.000
REMARK  Name = 
REMARK  3 active torsions:
REMARK  status: ('A' for Active; 'I' for Inactive)
REMARK    1  A    between atoms: C_1  and  O_2
REMARK    2  A    between atoms: O_2  and  C_3
REMARK    3  A    between atoms: C_6  and  C_7
REMARK                            x       y       z     vdW  Elec       q    Type
REMARK                         _______ _______ _______ _____ _____    ______ ____
ROOT
ATOM      1  C   UNL     1       4.987   5.117  16.780  0.00  0.00    +0.000 C 
ATOM      2  C   UNL     1       5.746   5.034  15.681  0.00  0.00    +0.000 C 
ATOM      3  C   UNL     1       7.102   5.700  15.856  0.00  0.00    +0.000 C 
ATOM      4  O   UNL     1       7.579   6.160  16.874  0.00  0.00    +0.000 OA
ATOM      5  N   UNL     1       7.732   5.553  14.646  0.00  0.00    +0.000 N 
ATOM      6  C   UNL     1       6.999   4.746  13.790  0.00  0.00    +0.000 A 
ATOM      7  C   UNL     1       7.438   4.309  12.557  0.00  0.00    +0.000 A 
ATOM      8  C   UNL     1       6.570   3.507  11.820  0.00  0.00    +0.000 A 
ATOM      9  C   UNL     1       5.290   3.200  12.314  0.00  0.00    +0.000 A 
ATOM     10  C   UNL     1       4.877   3.656  13.587  0.00  0.00    +0.000 A 
ATOM     11  C   UNL     1       5.755   4.401  14.348  0.00  0.00    +0.000 A 
ATOM     12  H   UNL     1       8.649   5.927  14.479  0.00  0.00    +0.000 HD
ENDROOT
BRANCH   1  16
ATOM     13  C   UNL     1       1.941   3.096  18.914  0.00  0.00    +0.000 A 
ATOM     14  C   UNL     1       2.921   2.364  18.237  0.00  0.00    +0.000 A 
ATOM     15  C   UNL     1       3.857   3.001  17.424  0.00  0.00    +0.000 A 
ATOM     16  C   UNL     1       3.809   4.387  17.260  0.00  0.00    +0.000 A 
ATOM     17  C   UNL     1       2.780   5.111  17.885  0.00  0.00    +0.000 A 
ATOM     18  C   UNL     1       1.854   4.472  18.712  0.00  0.00    +0.000 A 
BRANCH  13  20
ATOM     19  C   UNL     1       1.152   2.753  21.120  0.00  0.00    +0.000 C 
ATOM     20  O   UNL     1       1.149   2.363  19.750  0.00  0.00    +0.000 OA
ENDBRANCH  13  20
ENDBRANCH   1  16
TORSDOF 2
ENDMDL
MODEL 2
REMARK VINA RESULT:      -7.7      3.132      6.917
REMARK  Name = 
REMARK  3 active torsions:
REMARK  status: ('A' for Active; 'I' for Inactive)
REMARK    1  A    between atoms: C_1  and  O_2
REMARK    2  A    between atoms: O_2  and  C_3
REMARK    3  A    between atoms: C_6  and  C_7
REMARK                            x       y       z     vdW  Elec       q    Type
REMARK                         _______ _______ _______ _____ _____    ______ ____
ROOT
ATOM      1  C   UNL     1       3.808   4.453  18.949  0.00  0.00    +0.000 C 
ATOM      2  C   UNL     1       3.029   5.470  19.336  0.00  0.00    +0.000 C 
ATOM      3  C   UNL     1       2.390   5.232  20.695  0.00  0.00    +0.000 C 
ATOM      4  O   UNL     1       2.606   4.321  21.469  0.00  0.00    +0.000 OA
ATOM      5  N   UNL     1       1.612   6.338  20.924  0.00  0.00    +0.000 N 
ATOM      6  C   UNL     1       1.807   7.303  19.948  0.00  0.00    +0.000 A 
ATOM      7  C   UNL     1       1.266   8.573  19.982  0.00  0.00    +0.000 A 
ATOM      8  C   UNL     1       1.558   9.417  18.913  0.00  0.00    +0.000 A 
ATOM      9  C   UNL     1       2.340   8.961  17.837  0.00  0.00    +0.000 A 
ATOM     10  C   UNL     1       2.887   7.658  17.841  0.00  0.00    +0.000 A 
ATOM     11  C   UNL     1       2.651   6.836  18.925  0.00  0.00    +0.000 A 
ATOM     12  H   UNL     1       1.056   6.431  21.755  0.00  0.00    +0.000 HD
ENDROOT
BRANCH   1  16
ATOM     13  C   UNL     1       6.819   4.873  16.004  0.00  0.00    +0.000 A 
ATOM     14  C   UNL     1       5.539   4.446  15.637  0.00  0.00    +0.000 A 
ATOM     15  C   UNL     1       4.569   4.178  16.601  0.00  0.00    +0.000 A 
ATOM     16  C   UNL     1       4.879   4.313  17.956  0.00  0.00    +0.000 A 
ATOM     17  C   UNL     1       6.186   4.673  18.324  0.00  0.00    +0.000 A 
ATOM     18  C   UNL     1       7.151   4.957  17.355  0.00  0.00    +0.000 A 
BRANCH  13  20
ATOM     19  C   UNL     1       7.169   4.849  13.663  0.00  0.00    +0.000 C 
ATOM     20  O   UNL     1       7.642   5.192  14.962  0.00  0.00    +0.000 OA
ENDBRANCH  13  20
ENDBRANCH   1  16
TORSDOF 2
ENDMDL
MODEL 3
REMARK VINA RESULT:      -7.6      3.847      5.772
REMARK  Name = 
REMARK  3 active torsions:
REMARK  status: ('A' for Active; 'I' for Inactive)
REMARK    1  A    between atoms: C_1  and  O_2
REMARK    2  A    between atoms: O_2  and  C_3
REMARK    3  A    between atoms: C_6  and  C_7
REMARK                            x       y       z     vdW  Elec       q    Type
REMARK                         _______ _______ _______ _____ _____    ______ ____
ROOT
ATOM      1  C   UNL     1       3.279   7.260  17.885  0.00  0.00    +0.000 C 
ATOM      2  C   UNL     1       3.515   5.945  17.789  0.00  0.00    +0.000 C 
ATOM      3  C   UNL     1       4.970   5.634  17.477  0.00  0.00    +0.000 C 
ATOM      4  O   UNL     1       5.904   6.410  17.434  0.00  0.00    +0.000 OA
ATOM      5  N   UNL     1       5.032   4.267  17.384  0.00  0.00    +0.000 N 
ATOM      6  C   UNL     1       3.830   3.681  17.750  0.00  0.00    +0.000 A 
ATOM      7  C   UNL     1       3.630   2.322  17.885  0.00  0.00    +0.000 A 
ATOM      8  C   UNL     1       2.354   1.901  18.254  0.00  0.00    +0.000 A 
ATOM      9  C   UNL     1       1.321   2.836  18.439  0.00  0.00    +0.000 A 
ATOM     10  C   UNL     1       1.565   4.221  18.302  0.00  0.00    +0.000 A 
ATOM     11  C   UNL     1       2.841   4.649  17.995  0.00  0.00    +0.000 A 
ATOM     12  H   UNL     1       5.888   3.791  17.162  0.00  0.00    +0.000 HD
ENDROOT
BRANCH   1  16
ATOM     13  C   UNL     1       0.797  10.056  19.867  0.00  0.00    +0.000 A 
ATOM     14  C   UNL     1       1.125   8.849  20.492  0.00  0.00    +0.000 A 
ATOM     15  C   UNL     1       1.833   7.859  19.812  0.00  0.00    +0.000 A 
ATOM     16  C   UNL     1       2.204   8.059  18.481  0.00  0.00    +0.000 A 
ATOM     17  C   UNL     1       1.812   9.243  17.834  0.00  0.00    +0.000 A 
ATOM     18  C   UNL     1       1.117  10.240  18.523  0.00  0.00    +0.000 A 
BRANCH  13  20
ATOM     19  C   UNL     1      -0.088  10.555  22.005  0.00  0.00    +0.000 C 
ATOM     20  O   UNL     1       0.188  10.975  20.673  0.00  0.00    +0.000 OA
ENDBRANCH  13  20
ENDBRANCH   1  16
TORSDOF 2
ENDMDL
MODEL 4
REMARK VINA RESULT:      -7.6      3.624      5.978
REMARK  Name = 
REMARK  3 active torsions:
REMARK  status: ('A' for Active; 'I' for Inactive)
REMARK    1  A    between atoms: C_1  and  O_2
REMARK    2  A    between atoms: O_2  and  C_3
REMARK    3  A    between atoms: C_6  and  C_7
REMARK                            x       y       z     vdW  Elec       q    Type
REMARK                         _______ _______ _______ _____ _____    ______ ____
ROOT
ATOM      1  C   UNL     1       3.327   6.802  17.699  0.00  0.00    +0.000 C 
ATOM      2  C   UNL     1       3.310   5.464  17.726  0.00  0.00    +0.000 C 
ATOM      3  C   UNL     1       4.531   4.850  17.059  0.00  0.00    +0.000 C 
ATOM      4  O   UNL     1       5.518   5.424  16.642  0.00  0.00    +0.000 OA
ATOM      5  N   UNL     1       4.344   3.495  17.146  0.00  0.00    +0.000 N 
ATOM      6  C   UNL     1       3.234   3.187  17.918  0.00  0.00    +0.000 A 
ATOM      7  C   UNL     1       2.872   1.910  18.296  0.00  0.00    +0.000 A 
ATOM      8  C   UNL     1       1.721   1.778  19.069  0.00  0.00    +0.000 A 
ATOM      9  C   UNL     1       0.955   2.907  19.407  0.00  0.00    +0.000 A 
ATOM     10  C   UNL     1       1.363   4.202  19.013  0.00  0.00    +0.000 A 
ATOM     11  C   UNL     1       2.534   4.346  18.297  0.00  0.00    +0.000 A 
ATOM     12  H   UNL     1       5.003   2.844  16.759  0.00  0.00    +0.000 HD
ENDROOT
BRANCH   1  16
ATOM     13  C   UNL     1       0.631   9.349  19.738  0.00  0.00    +0.000 A 
ATOM     14  C   UNL     1       1.038   9.663  18.437  0.00  0.00    +0.000 A 
ATOM     15  C   UNL     1       2.021   8.912  17.794  0.00  0.00    +0.000 A 
ATOM     16  C   UNL     1       2.627   7.844  18.458  0.00  0.00    +0.000 A 
ATOM     17  C   UNL     1       2.266   7.576  19.789  0.00  0.00    +0.000 A 
ATOM     18  C   UNL     1       1.270   8.319  20.425  0.00  0.00    +0.000 A 
BRANCH  13  20
ATOM     19  C   UNL     1      -1.086  10.907  19.258  0.00  0.00    +0.000 C 
ATOM     20  O   UNL     1      -0.404  10.102  20.215  0.00  0.00    +0.000 OA
ENDBRANCH  13  20
ENDBRANCH   1  16
TORSDOF 2
ENDMDL
MODEL 5
REMARK VINA RESULT:      -7.5      4.050      6.535
REMARK  Name = 
REMARK  3 active torsions:
REMARK  status: ('A' for Active; 'I' for Inactive)
REMARK    1  A    between atoms: C_1  and  O_2
REMARK    2  A    between atoms: O_2  and  C_3
REMARK    3  A    between atoms: C_6  and  C_7
REMARK                            x       y       z     vdW  Elec       q    Type
REMARK                         _______ _______ _______ _____ _____    ______ ____
ROOT
ATOM      1  C   UNL     1       2.624   7.165  18.184  0.00  0.00    +0.000 C 
ATOM      2  C   UNL     1       2.722   5.832  18.253  0.00  0.00    +0.000 C 
ATOM      3  C   UNL     1       3.800   5.276  17.337  0.00  0.00    +0.000 C 
ATOM      4  O   UNL     1       4.615   5.899  16.684  0.00  0.00    +0.000 OA
ATOM      5  N   UNL     1       3.748   3.916  17.504  0.00  0.00    +0.000 N 
ATOM      6  C   UNL     1       2.876   3.567  18.524  0.00  0.00    +0.000 A 
ATOM      7  C   UNL     1       2.715   2.286  19.013  0.00  0.00    +0.000 A 
ATOM      8  C   UNL     1       1.788   2.109  20.038  0.00  0.00    +0.000 A 
ATOM      9  C   UNL     1       1.033   3.195  20.513  0.00  0.00    +0.000 A 
ATOM     10  C   UNL     1       1.233   4.496  19.997  0.00  0.00    +0.000 A 
ATOM     11  C   UNL     1       2.192   4.690  19.022  0.00  0.00    +0.000 A 
ATOM     12  H   UNL     1       4.350   3.297  16.992  0.00  0.00    +0.000 HD
ENDROOT
BRANCH   1  16
ATOM     13  C   UNL     1       0.231   9.679  20.606  0.00  0.00    +0.000 A 
ATOM     14  C   UNL     1       0.498  10.036  19.281  0.00  0.00    +0.000 A 
ATOM     15  C   UNL     1       1.386   9.294  18.504  0.00  0.00    +0.000 A 
ATOM     16  C   UNL     1       2.038   8.189  19.055  0.00  0.00    +0.000 A 
ATOM     17  C   UNL     1       1.821   7.874  20.407  0.00  0.00    +0.000 A 
ATOM     18  C   UNL     1       0.919   8.611  21.179  0.00  0.00    +0.000 A 
BRANCH  13  20
ATOM     19  C   UNL     1      -0.637  10.516  22.643  0.00  0.00    +0.000 C 
ATOM     20  O   UNL     1      -0.726  10.431  21.224  0.00  0.00    +0.000 OA
ENDBRANCH  13  20
ENDBRANCH   1  16
TORSDOF 2
ENDMDL
MODEL 6
REMARK VINA RESULT:      -7.4      3.846      5.523
REMARK  Name = 
REMARK  3 active torsions:
REMARK  status: ('A' for Active; 'I' for Inactive)
REMARK    1  A    between atoms: C_1  and  O_2
REMARK    2  A    between atoms: O_2  and  C_3
REMARK    3  A    between atoms: C_6  and  C_7
REMARK                            x       y       z     vdW  Elec       q    Type
REMARK                         _______ _______ _______ _____ _____    ______ ____
ROOT
ATOM      1  C   UNL     1       2.367   6.066  18.545  0.00  0.00    +0.000 C 
ATOM      2  C   UNL     1       3.304   5.357  17.903  0.00  0.00    +0.000 C 
ATOM      3  C   UNL     1       2.803   3.992  17.459  0.00  0.00    +0.000 C 
ATOM      4  O   UNL     1       1.668   3.562  17.517  0.00  0.00    +0.000 OA
ATOM      5  N   UNL     1       3.879   3.394  16.855  0.00  0.00    +0.000 N 
ATOM      6  C   UNL     1       4.943   4.275  16.732  0.00  0.00    +0.000 A 
ATOM      7  C   UNL     1       6.110   4.004  16.048  0.00  0.00    +0.000 A 
ATOM      8  C   UNL     1       7.083   5.001  16.029  0.00  0.00    +0.000 A 
ATOM      9  C   UNL     1       6.877   6.210  16.716  0.00  0.00    +0.000 A 
ATOM     10  C   UNL     1       5.664   6.459  17.397  0.00  0.00    +0.000 A 
ATOM     11  C   UNL     1       4.672   5.499  17.370  0.00  0.00    +0.000 A 
ATOM     12  H   UNL     1       3.827   2.463  16.484  0.00  0.00    +0.000 HD
ENDROOT
BRANCH   1  16
ATOM     13  C   UNL     1       1.086  10.028  19.301  0.00  0.00    +0.000 A 
ATOM     14  C   UNL     1       1.636   9.698  18.059  0.00  0.00    +0.000 A 
ATOM     15  C   UNL     1       2.182   8.437  17.829  0.00  0.00    +0.000 A 
ATOM     16  C   UNL     1       2.203   7.490  18.855  0.00  0.00    +0.000 A 
ATOM     17  C   UNL     1       1.713   7.848  20.123  0.00  0.00    +0.000 A 
ATOM     18  C   UNL     1       1.152   9.107  20.345  0.00  0.00    +0.000 A 
BRANCH  13  20
ATOM     19  C   UNL     1      -0.704  11.420  18.621  0.00  0.00    +0.000 C 
ATOM     20  O   UNL     1       0.501  11.260  19.364  0.00  0.00    +0.000 OA
ENDBRANCH  13  20
ENDBRANCH   1  16
TORSDOF 2
ENDMDL
MODEL 7
REMARK VINA RESULT:      -7.4      3.845      5.438
REMARK  Name = 
REMARK  3 active torsions:
REMARK  status: ('A' for Active; 'I' for Inactive)
REMARK    1  A    between atoms: C_1  and  O_2
REMARK    2  A    between atoms: O_2  and  C_3
REMARK    3  A    between atoms: C_6  and  C_7
REMARK                            x       y       z     vdW  Elec       q    Type
REMARK                         _______ _______ _______ _____ _____    ______ ____
ROOT
ATOM      1  C   UNL     1       2.688   6.166  19.351  0.00  0.00    +0.000 C 
ATOM      2  C   UNL     1       3.395   5.380  18.530  0.00  0.00    +0.000 C 
ATOM      3  C   UNL     1       3.201   3.901  18.827  0.00  0.00    +0.000 C 
ATOM      4  O   UNL     1       2.418   3.395  19.606  0.00  0.00    +0.000 OA
ATOM      5  N   UNL     1       4.007   3.247  17.930  0.00  0.00    +0.000 N 
ATOM      6  C   UNL     1       4.559   4.127  17.013  0.00  0.00    +0.000 A 
ATOM      7  C   UNL     1       5.302   3.749  15.913  0.00  0.00    +0.000 A 
ATOM      8  C   UNL     1       5.790   4.765  15.095  0.00  0.00    +0.000 A 
ATOM      9  C   UNL     1       5.556   6.114  15.416  0.00  0.00    +0.000 A 
ATOM     10  C   UNL     1       4.782   6.465  16.545  0.00  0.00    +0.000 A 
ATOM     11  C   UNL     1       4.244   5.461  17.327  0.00  0.00    +0.000 A 
ATOM     12  H   UNL     1       4.084   2.246  17.921  0.00  0.00    +0.000 HD
ENDROOT
BRANCH   1  16
ATOM     13  C   UNL     1       0.663   9.872  19.075  0.00  0.00    +0.000 A 
ATOM     14  C   UNL     1       1.334   9.360  17.961  0.00  0.00    +0.000 A 
ATOM     15  C   UNL     1       2.114   8.209  18.061  0.00  0.00    +0.000 A 
ATOM     16  C   UNL     1       2.249   7.565  19.292  0.00  0.00    +0.000 A 
ATOM     17  C   UNL     1       1.631   8.121  20.424  0.00  0.00    +0.000 A 
ATOM     18  C   UNL     1       0.838   9.266  20.318  0.00  0.00    +0.000 A 
BRANCH  13  20
ATOM     19  C   UNL     1      -1.423  10.655  18.277  0.00  0.00    +0.000 C 
ATOM     20  O   UNL     1      -0.140  10.947  18.821  0.00  0.00    +0.000 OA
ENDBRANCH  13  20
ENDBRANCH   1  16
TORSDOF 2
ENDMDL
MODEL 8
REMARK VINA RESULT:      -7.4      1.907      3.509
REMARK  Name = 
REMARK  3 active torsions:
REMARK  status: ('A' for Active; 'I' for Inactive)
REMARK    1  A    between atoms: C_1  and  O_2
REMARK    2  A    between atoms: O_2  and  C_3
REMARK    3  A    between atoms: C_6  and  C_7
REMARK                            x       y       z     vdW  Elec       q    Type
REMARK                         _______ _______ _______ _____ _____    ______ ____
ROOT
ATOM      1  C   UNL     1       4.110   3.456  16.334  0.00  0.00    +0.000 C 
ATOM      2  C   UNL     1       5.178   4.259  16.418  0.00  0.00    +0.000 C 
ATOM      3  C   UNL     1       5.681   4.707  15.055  0.00  0.00    +0.000 C 
ATOM      4  O   UNL     1       5.163   4.518  13.972  0.00  0.00    +0.000 OA
ATOM      5  N   UNL     1       6.779   5.485  15.316  0.00  0.00    +0.000 N 
ATOM      6  C   UNL     1       6.931   5.704  16.676  0.00  0.00    +0.000 A 
ATOM      7  C   UNL     1       7.862   6.556  17.234  0.00  0.00    +0.000 A 
ATOM      8  C   UNL     1       7.884   6.653  18.624  0.00  0.00    +0.000 A 
ATOM      9  C   UNL     1       7.011   5.877  19.406  0.00  0.00    +0.000 A 
ATOM     10  C   UNL     1       6.062   5.023  18.800  0.00  0.00    +0.000 A 
ATOM     11  C   UNL     1       5.994   4.967  17.423  0.00  0.00    +0.000 A 
ATOM     12  H   UNL     1       7.322   5.898  14.579  0.00  0.00    +0.000 HD
ENDROOT
BRANCH   1  16
ATOM     13  C   UNL     1       1.496   2.787  19.595  0.00  0.00    +0.000 A 
ATOM     14  C   UNL     1       2.511   1.868  19.316  0.00  0.00    +0.000 A 
ATOM     15  C   UNL     1       3.302   1.998  18.175  0.00  0.00    +0.000 A 
ATOM     16  C   UNL     1       3.069   3.046  17.282  0.00  0.00    +0.000 A 
ATOM     17  C   UNL     1       2.003   3.927  17.529  0.00  0.00    +0.000 A 
ATOM     18  C   UNL     1       1.223   3.803  18.681  0.00  0.00    +0.000 A 
BRANCH  13  20
ATOM     19  C   UNL     1       1.690   2.606  21.947  0.00  0.00    +0.000 C 
ATOM     20  O   UNL     1       0.861   2.600  20.789  0.00  0.00    +0.000 OA
ENDBRANCH  13  20
ENDBRANCH   1  16
TORSDOF 2
ENDMDL
MODEL 9
REMARK VINA RESULT:      -7.4      3.424      7.261
REMARK  Name = 
REMARK  3 active torsions:
REMARK  status: ('A' for Active; 'I' for Inactive)
REMARK    1  A    between atoms: C_1  and  O_2
REMARK    2  A    between atoms: O_2  and  C_3
REMARK    3  A    between atoms: C_6  and  C_7
REMARK                            x       y       z     vdW  Elec       q    Type
REMARK                         _______ _______ _______ _____ _____    ______ ____
ROOT
ATOM      1  C   UNL     1       3.309   5.268  18.323  0.00  0.00    +0.000 C 
ATOM      2  C   UNL     1       2.624   6.212  18.979  0.00  0.00    +0.000 C 
ATOM      3  C   UNL     1       2.253   5.790  20.392  0.00  0.00    +0.000 C 
ATOM      4  O   UNL     1       2.607   4.791  20.986  0.00  0.00    +0.000 OA
ATOM      5  N   UNL     1       1.540   6.843  20.905  0.00  0.00    +0.000 N 
ATOM      6  C   UNL     1       1.552   7.929  20.042  0.00  0.00    +0.000 A 
ATOM      7  C   UNL     1       1.036   9.174  20.342  0.00  0.00    +0.000 A 
ATOM      8  C   UNL     1       1.125  10.153  19.355  0.00  0.00    +0.000 A 
ATOM      9  C   UNL     1       1.685   9.853  18.101  0.00  0.00    +0.000 A 
ATOM     10  C   UNL     1       2.214   8.570  17.833  0.00  0.00    +0.000 A 
ATOM     11  C   UNL     1       2.184   7.612  18.827  0.00  0.00    +0.000 A 
ATOM     12  H   UNL     1       1.153   6.819  21.831  0.00  0.00    +0.000 HD
ENDROOT
BRANCH   1  16
ATOM     13  C   UNL     1       6.406   5.139  15.442  0.00  0.00    +0.000 A 
ATOM     14  C   UNL     1       5.934   6.371  15.903  0.00  0.00    +0.000 A 
ATOM     15  C   UNL     1       4.832   6.444  16.753  0.00  0.00    +0.000 A 
ATOM     16  C   UNL     1       4.170   5.275  17.135  0.00  0.00    +0.000 A 
ATOM     17  C   UNL     1       4.603   4.045  16.614  0.00  0.00    +0.000 A 
ATOM     18  C   UNL     1       5.718   3.974  15.776  0.00  0.00    +0.000 A 
BRANCH  13  20
ATOM     19  C   UNL     1       7.416   4.860  13.319  0.00  0.00    +0.000 C 
ATOM     20  O   UNL     1       7.548   5.202  14.695  0.00  0.00    +0.000 OA
ENDBRANCH  13  20
ENDBRANCH   1  16
TORSDOF 2
ENDMDL
