MODEL 1
REMARK VINA RESULT:      -6.7      0.000      0.000
REMARK  Name = 
REMARK  9 active torsions:
REMARK  status: ('A' for Active; 'I' for Inactive)
REMARK    1  A    between atoms: C_1  and  C_2
REMARK    2  A    between atoms: C_4  and  C_5
REMARK    3  A    between atoms: C_6  and  C_7
REMARK    4  A    between atoms: C_11  and  C_12
REMARK    5  A    between atoms: C_12  and  O_13
REMARK    6  A    between atoms: C_14  and  C_15
REMARK    7  A    between atoms: C_15  and  N_16
REMARK    8  A    between atoms: C_18  and  C_19
REMARK    9  A    between atoms: C_21  and  C_22
REMARK                            x       y       z     vdW  Elec       q    Type
REMARK                         _______ _______ _______ _____ _____    ______ ____
ROOT
ATOM      1  C   UNL     1       2.176   7.899  18.963  0.00  0.00    +0.000 C 
ATOM      2  O   UNL     1       2.943   8.507  18.207  0.00  0.00    +0.000 OA
ATOM      3  N   UNL     1       2.161   6.509  18.905  0.00  0.00    +0.000 N 
ATOM      4  C   UNL     1       1.233   5.545  19.483  0.00  0.00    +0.000 C 
ATOM      5  C   UNL     1       2.043   4.251  19.526  0.00  0.00    +0.000 C 
ATOM      6  C   UNL     1       2.804   4.328  18.185  0.00  0.00    +0.000 C 
ATOM      7  C   UNL     1       3.065   5.826  17.984  0.00  0.00    +0.000 C 
ENDROOT
BRANCH   1  13
ATOM      8  C   UNL     1      -0.461   9.922  23.069  0.00  0.00    +0.000 C 
ATOM      9  C   UNL     1       0.092   9.626  21.722  0.00  0.00    +0.000 A 
ATOM     10  N   UNL     1      -0.377  10.103  20.592  0.00  0.00    +0.000 NA
ATOM     11  C   UNL     1       0.351   9.588  19.525  0.00  0.00    +0.000 A 
ATOM     12  C   UNL     1       0.039  10.096  18.160  0.00  0.00    +0.000 C 
ATOM     13  C   UNL     1       1.302   8.632  19.866  0.00  0.00    +0.000 A 
ATOM     14  S   UNL     1       1.460   8.617  21.571  0.00  0.00    +0.000 S 
ENDBRANCH   1  13
BRANCH   5  15
ATOM     15  C   UNL     1       2.940   4.190  20.770  0.00  0.00    +0.000 C 
BRANCH  15  16
ATOM     16  O   UNL     1       2.217   3.634  21.869  0.00  0.00    +0.000 OA
ATOM     17  H   UNL     1       2.629   3.982  22.678  0.00  0.00    +0.000 HD
ENDBRANCH  15  16
ENDBRANCH   5  15
BRANCH   6  18
ATOM     18  C   UNL     1       4.081   3.484  18.076  0.00  0.00    +0.000 C 
BRANCH  18  19
ATOM     19  N   UNL     1       5.173   4.211  17.415  0.00  0.00    +0.000 NA
ATOM     20  C   UNL     1       6.356   4.379  18.282  0.00  0.00    +0.000 C 
ATOM     21  C   UNL     1       7.437   5.228  17.592  0.00  0.00    +0.000 C 
ATOM     22  C   UNL     1       7.060   6.706  17.525  0.00  0.00    +0.000 C 
ATOM     23  O   UNL     1       7.820   4.692  16.317  0.00  0.00    +0.000 OA
ATOM     24  C   UNL     1       6.748   4.272  15.458  0.00  0.00    +0.000 C 
ATOM     25  C   UNL     1       6.232   5.423  14.601  0.00  0.00    +0.000 C 
ATOM     26  C   UNL     1       5.623   3.511  16.196  0.00  0.00    +0.000 C 
ENDBRANCH  18  19
ENDBRANCH   6  18
TORSDOF 5
ENDMDL
MODEL 2
REMARK VINA RESULT:      -6.3      2.930      4.921
REMARK  Name = 
REMARK  9 active torsions:
REMARK  status: ('A' for Active; 'I' for Inactive)
REMARK    1  A    between atoms: C_1  and  C_2
REMARK    2  A    between atoms: C_4  and  C_5
REMARK    3  A    between atoms: C_6  and  C_7
REMARK    4  A    between atoms: C_11  and  C_12
REMARK    5  A    between atoms: C_12  and  O_13
REMARK    6  A    between atoms: C_14  and  C_15
REMARK    7  A    between atoms: C_15  and  N_16
REMARK    8  A    between atoms: C_18  and  C_19
REMARK    9  A    between atoms: C_21  and  C_22
REMARK                            x       y       z     vdW  Elec       q    Type
REMARK                         _______ _______ _______ _____ _____    ______ ____
ROOT
ATOM      1  C   UNL     1       1.396  10.920  18.752  0.00  0.00    +0.000 C 
ATOM      2  O   UNL     1       2.244  10.702  17.878  0.00  0.00    +0.000 OA
ATOM      3  N   UNL     1       1.013   9.864  19.573  0.00  0.00    +0.000 N 
ATOM      4  C   UNL     1      -0.095   9.747  20.513  0.00  0.00    +0.000 C 
ATOM      5  C   UNL     1       0.347   8.623  21.448  0.00  0.00    +0.000 C 
ATOM      6  C   UNL     1       1.010   7.647  20.453  0.00  0.00    +0.000 C 
ATOM      7  C   UNL     1       1.641   8.559  19.393  0.00  0.00    +0.000 C 
ENDROOT
BRANCH   1  13
ATOM      8  C   UNL     1       0.293  15.988  19.754  0.00  0.00    +0.000 C 
ATOM      9  C   UNL     1       0.266  14.576  19.289  0.00  0.00    +0.000 A 
ATOM     10  N   UNL     1      -0.784  13.965  18.794  0.00  0.00    +0.000 NA
ATOM     11  C   UNL     1      -0.466  12.643  18.502  0.00  0.00    +0.000 A 
ATOM     12  C   UNL     1      -1.501  11.809  17.829  0.00  0.00    +0.000 C 
ATOM     13  C   UNL     1       0.809  12.244  18.891  0.00  0.00    +0.000 A 
ATOM     14  S   UNL     1       1.689  13.637  19.354  0.00  0.00    +0.000 S 
ENDBRANCH   1  13
BRANCH   5  15
ATOM     15  C   UNL     1       1.278   9.144  22.552  0.00  0.00    +0.000 C 
BRANCH  15  16
ATOM     16  O   UNL     1       0.509   9.713  23.613  0.00  0.00    +0.000 OA
ATOM     17  H   UNL     1       0.460   9.040  24.312  0.00  0.00    +0.000 HD
ENDBRANCH  15  16
ENDBRANCH   5  15
BRANCH   6  18
ATOM     18  C   UNL     1       2.009   6.644  21.044  0.00  0.00    +0.000 C 
BRANCH  18  19
ATOM     19  N   UNL     1       2.158   5.448  20.204  0.00  0.00    +0.000 NA
ATOM     20  C   UNL     1       3.539   5.258  19.718  0.00  0.00    +0.000 C 
ATOM     21  C   UNL     1       3.634   4.054  18.765  0.00  0.00    +0.000 C 
ATOM     22  C   UNL     1       3.009   4.342  17.402  0.00  0.00    +0.000 C 
ATOM     23  O   UNL     1       3.141   2.846  19.361  0.00  0.00    +0.000 OA
ATOM     24  C   UNL     1       1.896   2.952  20.071  0.00  0.00    +0.000 C 
ATOM     25  C   UNL     1       0.702   2.752  19.144  0.00  0.00    +0.000 C 
ATOM     26  C   UNL     1       1.785   4.225  20.941  0.00  0.00    +0.000 C 
ENDBRANCH  18  19
ENDBRANCH   6  18
TORSDOF 5
ENDMDL
MODEL 3
REMARK VINA RESULT:      -6.1      2.778      8.335
REMARK  Name = 
REMARK  9 active torsions:
REMARK  status: ('A' for Active; 'I' for Inactive)
REMARK    1  A    between atoms: C_1  and  C_2
REMARK    2  A    between atoms: C_4  and  C_5
REMARK    3  A    between atoms: C_6  and  C_7
REMARK    4  A    between atoms: C_11  and  C_12
REMARK    5  A    between atoms: C_12  and  O_13
REMARK    6  A    between atoms: C_14  and  C_15
REMARK    7  A    between atoms: C_15  and  N_16
REMARK    8  A    between atoms: C_18  and  C_19
REMARK    9  A    between atoms: C_21  and  C_22
REMARK                            x       y       z     vdW  Elec       q    Type
REMARK                         _______ _______ _______ _____ _____    ______ ____
ROOT
ATOM      1  C   UNL     1       3.606   6.002  18.895  0.00  0.00    +0.000 C 
ATOM      2  O   UNL     1       3.827   5.549  20.025  0.00  0.00    +0.000 OA
ATOM      3  N   UNL     1       2.678   7.030  18.769  0.00  0.00    +0.000 N 
ATOM      4  C   UNL     1       2.048   7.600  17.584  0.00  0.00    +0.000 C 
ATOM      5  C   UNL     1       1.592   8.981  18.051  0.00  0.00    +0.000 C 
ATOM      6  C   UNL     1       1.094   8.666  19.478  0.00  0.00    +0.000 C 
ATOM      7  C   UNL     1       2.027   7.551  19.966  0.00  0.00    +0.000 C 
ENDROOT
BRANCH   1  13
ATOM      8  C   UNL     1       6.788   4.925  14.818  0.00  0.00    +0.000 C 
ATOM      9  C   UNL     1       5.748   4.883  15.879  0.00  0.00    +0.000 A 
ATOM     10  N   UNL     1       4.760   4.021  15.933  0.00  0.00    +0.000 NA
ATOM     11  C   UNL     1       3.953   4.297  17.032  0.00  0.00    +0.000 A 
ATOM     12  C   UNL     1       2.834   3.359  17.328  0.00  0.00    +0.000 C 
ATOM     13  C   UNL     1       4.290   5.448  17.736  0.00  0.00    +0.000 A 
ATOM     14  S   UNL     1       5.807   6.001  17.167  0.00  0.00    +0.000 S 
ENDBRANCH   1  13
BRANCH   5  15
ATOM     15  C   UNL     1       2.735  10.004  17.981  0.00  0.00    +0.000 C 
BRANCH  15  16
ATOM     16  O   UNL     1       2.255  11.239  17.450  0.00  0.00    +0.000 OA
ATOM     17  H   UNL     1       2.825  11.938  17.812  0.00  0.00    +0.000 HD
ENDBRANCH  15  16
ENDBRANCH   5  15
BRANCH   6  18
ATOM     18  C   UNL     1       1.022   9.850  20.451  0.00  0.00    +0.000 C 
BRANCH  18  19
ATOM     19  N   UNL     1       0.277  10.986  19.891  0.00  0.00    +0.000 NA
ATOM     20  C   UNL     1      -1.186  10.798  19.955  0.00  0.00    +0.000 C 
ATOM     21  C   UNL     1      -1.928  11.960  19.273  0.00  0.00    +0.000 C 
ATOM     22  C   UNL     1      -1.812  11.908  17.751  0.00  0.00    +0.000 C 
ATOM     23  O   UNL     1      -1.560  13.236  19.816  0.00  0.00    +0.000 OA
ATOM     24  C   UNL     1      -0.155  13.458  20.019  0.00  0.00    +0.000 C 
ATOM     25  C   UNL     1       0.512  14.017  18.767  0.00  0.00    +0.000 C 
ATOM     26  C   UNL     1       0.586  12.237  20.610  0.00  0.00    +0.000 C 
ENDBRANCH  18  19
ENDBRANCH   6  18
TORSDOF 5
ENDMDL
MODEL 4
REMARK VINA RESULT:      -6.0      2.628      8.004
REMARK  Name = 
REMARK  9 active torsions:
REMARK  status: ('A' for Active; 'I' for Inactive)
REMARK    1  A    between atoms: C_1  and  C_2
REMARK    2  A    between atoms: C_4  and  C_5
REMARK    3  A    between atoms: C_6  and  C_7
REMARK    4  A    between atoms: C_11  and  C_12
REMARK    5  A    between atoms: C_12  and  O_13
REMARK    6  A    between atoms: C_14  and  C_15
REMARK    7  A    between atoms: C_15  and  N_16
REMARK    8  A    between atoms: C_18  and  C_19
REMARK    9  A    between atoms: C_21  and  C_22
REMARK                            x       y       z     vdW  Elec       q    Type
REMARK                         _______ _______ _______ _____ _____    ______ ____
ROOT
ATOM      1  C   UNL     1       4.885   5.665  18.586  0.00  0.00    +0.000 C 
ATOM      2  O   UNL     1       5.361   5.240  19.645  0.00  0.00    +0.000 OA
ATOM      3  N   UNL     1       3.681   6.360  18.639  0.00  0.00    +0.000 N 
ATOM      4  C   UNL     1       2.776   6.774  17.573  0.00  0.00    +0.000 C 
ATOM      5  C   UNL     1       1.981   7.916  18.202  0.00  0.00    +0.000 C 
ATOM      6  C   UNL     1       1.769   7.381  19.635  0.00  0.00    +0.000 C 
ATOM      7  C   UNL     1       3.046   6.585  19.933  0.00  0.00    +0.000 C 
ENDROOT
BRANCH   1  13
ATOM      8  C   UNL     1       6.550   3.931  13.881  0.00  0.00    +0.000 C 
ATOM      9  C   UNL     1       6.346   4.690  15.143  0.00  0.00    +0.000 A 
ATOM     10  N   UNL     1       7.154   5.615  15.606  0.00  0.00    +0.000 NA
ATOM     11  C   UNL     1       6.682   6.085  16.827  0.00  0.00    +0.000 A 
ATOM     12  C   UNL     1       7.407   7.220  17.464  0.00  0.00    +0.000 C 
ATOM     13  C   UNL     1       5.566   5.419  17.324  0.00  0.00    +0.000 A 
ATOM     14  S   UNL     1       4.957   4.399  16.091  0.00  0.00    +0.000 S 
ENDBRANCH   1  13
BRANCH   5  15
ATOM     15  C   UNL     1       2.745   9.245  18.120  0.00  0.00    +0.000 C 
BRANCH  15  16
ATOM     16  O   UNL     1       2.023  10.176  17.313  0.00  0.00    +0.000 OA
ATOM     17  H   UNL     1       2.613  10.936  17.171  0.00  0.00    +0.000 HD
ENDBRANCH  15  16
ENDBRANCH   5  15
BRANCH   6  18
ATOM     18  C   UNL     1       1.455   8.426  20.713  0.00  0.00    +0.000 C 
BRANCH  18  19
ATOM     19  N   UNL     1       0.747   9.592  20.168  0.00  0.00    +0.000 NA
ATOM     20  C   UNL     1      -0.719   9.415  20.152  0.00  0.00    +0.000 C 
ATOM     21  C   UNL     1      -1.417  10.613  19.486  0.00  0.00    +0.000 C 
ATOM     22  C   UNL     1      -1.227  10.626  17.971  0.00  0.00    +0.000 C 
ATOM     23  O   UNL     1      -1.067  11.861  20.102  0.00  0.00    +0.000 OA
ATOM     24  C   UNL     1       0.328  12.060  20.383  0.00  0.00    +0.000 C 
ATOM     25  C   UNL     1       1.059  12.667  19.190  0.00  0.00    +0.000 C 
ATOM     26  C   UNL     1       1.030  10.808  20.955  0.00  0.00    +0.000 C 
ENDBRANCH  18  19
ENDBRANCH   6  18
TORSDOF 5
ENDMDL
MODEL 5
REMARK VINA RESULT:      -6.0      1.196      1.541
REMARK  Name = 
REMARK  9 active torsions:
REMARK  status: ('A' for Active; 'I' for Inactive)
REMARK    1  A    between atoms: C_1  and  C_2
REMARK    2  A    between atoms: C_4  and  C_5
REMARK    3  A    between atoms: C_6  and  C_7
REMARK    4  A    between atoms: C_11  and  C_12
REMARK    5  A    between atoms: C_12  and  O_13
REMARK    6  A    between atoms: C_14  and  C_15
REMARK    7  A    between atoms: C_15  and  N_16
REMARK    8  A    between atoms: C_18  and  C_19
REMARK    9  A    between atoms: C_21  and  C_22
REMARK                            x       y       z     vdW  Elec       q    Type
REMARK                         _______ _______ _______ _____ _____    ______ ____
ROOT
ATOM      1  C   UNL     1       2.105   8.395  18.506  0.00  0.00    +0.000 C 
ATOM      2  O   UNL     1       2.985   8.906  17.802  0.00  0.00    +0.000 OA
ATOM      3  N   UNL     1       2.079   7.009  18.623  0.00  0.00    +0.000 N 
ATOM      4  C   UNL     1       1.062   6.121  19.174  0.00  0.00    +0.000 C 
ATOM      5  C   UNL     1       1.838   4.847  19.501  0.00  0.00    +0.000 C 
ATOM      6  C   UNL     1       2.791   4.757  18.289  0.00  0.00    +0.000 C 
ATOM      7  C   UNL     1       3.099   6.219  17.941  0.00  0.00    +0.000 C 
ENDROOT
BRANCH   1  13
ATOM      8  C   UNL     1      -1.723  11.790  19.823  0.00  0.00    +0.000 C 
ATOM      9  C   UNL     1      -0.664  10.747  19.825  0.00  0.00    +0.000 A 
ATOM     10  N   UNL     1      -0.107  10.239  20.900  0.00  0.00    +0.000 NA
ATOM     11  C   UNL     1       0.872   9.322  20.536  0.00  0.00    +0.000 A 
ATOM     12  C   UNL     1       1.547   8.555  21.620  0.00  0.00    +0.000 C 
ATOM     13  C   UNL     1       1.117   9.233  19.169  0.00  0.00    +0.000 A 
ATOM     14  S   UNL     1      -0.108  10.101  18.347  0.00  0.00    +0.000 S 
ENDBRANCH   1  13
BRANCH   5  15
ATOM     15  C   UNL     1       2.539   4.950  20.862  0.00  0.00    +0.000 C 
BRANCH  15  16
ATOM     16  O   UNL     1       2.230   3.806  21.660  0.00  0.00    +0.000 OA
ATOM     17  H   UNL     1       1.544   4.084  22.290  0.00  0.00    +0.000 HD
ENDBRANCH  15  16
ENDBRANCH   5  15
BRANCH   6  18
ATOM     18  C   UNL     1       4.057   3.912  18.479  0.00  0.00    +0.000 C 
BRANCH  18  19
ATOM     19  N   UNL     1       5.199   4.445  17.724  0.00  0.00    +0.000 NA
ATOM     20  C   UNL     1       6.428   4.543  18.537  0.00  0.00    +0.000 C 
ATOM     21  C   UNL     1       7.572   5.194  17.742  0.00  0.00    +0.000 C 
ATOM     22  C   UNL     1       7.367   6.696  17.556  0.00  0.00    +0.000 C 
ATOM     23  O   UNL     1       7.838   4.511  16.509  0.00  0.00    +0.000 OA
ATOM     24  C   UNL     1       6.690   4.152  15.723  0.00  0.00    +0.000 C 
ATOM     25  C   UNL     1       6.278   5.280  14.783  0.00  0.00    +0.000 C 
ATOM     26  C   UNL     1       5.515   3.596  16.559  0.00  0.00    +0.000 C 
ENDBRANCH  18  19
ENDBRANCH   6  18
TORSDOF 5
ENDMDL
MODEL 6
REMARK VINA RESULT:      -5.9      3.130      4.977
REMARK  Name = 
REMARK  9 active torsions:
REMARK  status: ('A' for Active; 'I' for Inactive)
REMARK    1  A    between atoms: C_1  and  C_2
REMARK    2  A    between atoms: C_4  and  C_5
REMARK    3  A    between atoms: C_6  and  C_7
REMARK    4  A    between atoms: C_11  and  C_12
REMARK    5  A    between atoms: C_12  and  O_13
REMARK    6  A    between atoms: C_14  and  C_15
REMARK    7  A    between atoms: C_15  and  N_16
REMARK    8  A    between atoms: C_18  and  C_19
REMARK    9  A    between atoms: C_21  and  C_22
REMARK                            x       y       z     vdW  Elec       q    Type
REMARK                         _______ _______ _______ _____ _____    ______ ____
ROOT
ATOM      1  C   UNL     1       1.426  11.180  18.779  0.00  0.00    +0.000 C 
ATOM      2  O   UNL     1       2.265  11.117  17.872  0.00  0.00    +0.000 OA
ATOM      3  N   UNL     1       1.126  10.014  19.477  0.00  0.00    +0.000 N 
ATOM      4  C   UNL     1       0.049   9.721  20.415  0.00  0.00    +0.000 C 
ATOM      5  C   UNL     1       0.579   8.527  21.206  0.00  0.00    +0.000 C 
ATOM      6  C   UNL     1       1.277   7.715  20.093  0.00  0.00    +0.000 C 
ATOM      7  C   UNL     1       1.827   8.781  19.137  0.00  0.00    +0.000 C 
ENDROOT
BRANCH   1  13
ATOM      8  C   UNL     1       0.026  16.000  20.426  0.00  0.00    +0.000 C 
ATOM      9  C   UNL     1       0.086  14.665  19.775  0.00  0.00    +0.000 A 
ATOM     10  N   UNL     1      -0.921  14.071  19.178  0.00  0.00    +0.000 NA
ATOM     11  C   UNL     1      -0.525  12.819  18.719  0.00  0.00    +0.000 A 
ATOM     12  C   UNL     1      -1.501  12.031  17.916  0.00  0.00    +0.000 C 
ATOM     13  C   UNL     1       0.764  12.439  19.081  0.00  0.00    +0.000 A 
ATOM     14  S   UNL     1       1.558  13.802  19.747  0.00  0.00    +0.000 S 
ENDBRANCH   1  13
BRANCH   5  15
ATOM     15  C   UNL     1       1.503   8.974  22.348  0.00  0.00    +0.000 C 
BRANCH  15  16
ATOM     16  O   UNL     1       0.746   9.651  23.353  0.00  0.00    +0.000 OA
ATOM     17  H   UNL     1      -0.019  10.047  22.905  0.00  0.00    +0.000 HD
ENDBRANCH  15  16
ENDBRANCH   5  15
BRANCH   6  18
ATOM     18  C   UNL     1       2.348   6.715  20.547  0.00  0.00    +0.000 C 
BRANCH  18  19
ATOM     19  N   UNL     1       2.211   5.413  19.880  0.00  0.00    +0.000 NA
ATOM     20  C   UNL     1       0.957   4.718  20.233  0.00  0.00    +0.000 C 
ATOM     21  C   UNL     1       0.895   3.320  19.593  0.00  0.00    +0.000 C 
ATOM     22  C   UNL     1       1.839   2.330  20.271  0.00  0.00    +0.000 C 
ATOM     23  O   UNL     1       1.062   3.364  18.169  0.00  0.00    +0.000 OA
ATOM     24  C   UNL     1       2.123   4.201  17.680  0.00  0.00    +0.000 C 
ATOM     25  C   UNL     1       3.448   3.448  17.618  0.00  0.00    +0.000 C 
ATOM     26  C   UNL     1       2.229   5.559  18.411  0.00  0.00    +0.000 C 
ENDBRANCH  18  19
ENDBRANCH   6  18
TORSDOF 5
ENDMDL
MODEL 7
REMARK VINA RESULT:      -5.9      2.990      5.056
REMARK  Name = 
REMARK  9 active torsions:
REMARK  status: ('A' for Active; 'I' for Inactive)
REMARK    1  A    between atoms: C_1  and  C_2
REMARK    2  A    between atoms: C_4  and  C_5
REMARK    3  A    between atoms: C_6  and  C_7
REMARK    4  A    between atoms: C_11  and  C_12
REMARK    5  A    between atoms: C_12  and  O_13
REMARK    6  A    between atoms: C_14  and  C_15
REMARK    7  A    between atoms: C_15  and  N_16
REMARK    8  A    between atoms: C_18  and  C_19
REMARK    9  A    between atoms: C_21  and  C_22
REMARK                            x       y       z     vdW  Elec       q    Type
REMARK                         _______ _______ _______ _____ _____    ______ ____
ROOT
ATOM      1  C   UNL     1       0.138  11.606  19.419  0.00  0.00    +0.000 C 
ATOM      2  O   UNL     1       0.792  11.941  18.423  0.00  0.00    +0.000 OA
ATOM      3  N   UNL     1       0.289  10.308  19.897  0.00  0.00    +0.000 N 
ATOM      4  C   UNL     1      -0.488   9.562  20.879  0.00  0.00    +0.000 C 
ATOM      5  C   UNL     1       0.473   8.469  21.340  0.00  0.00    +0.000 C 
ATOM      6  C   UNL     1       1.158   8.089  20.009  0.00  0.00    +0.000 C 
ATOM      7  C   UNL     1       1.226   9.409  19.230  0.00  0.00    +0.000 C 
ENDROOT
BRANCH   1  13
ATOM      8  C   UNL     1      -2.212  15.387  22.263  0.00  0.00    +0.000 C 
ATOM      9  C   UNL     1      -1.897  14.300  21.299  0.00  0.00    +0.000 A 
ATOM     10  N   UNL     1      -2.785  13.620  20.611  0.00  0.00    +0.000 NA
ATOM     11  C   UNL     1      -2.146  12.654  19.841  0.00  0.00    +0.000 A 
ATOM     12  C   UNL     1      -2.978  11.848  18.904  0.00  0.00    +0.000 C 
ATOM     13  C   UNL     1      -0.775  12.547  20.049  0.00  0.00    +0.000 A 
ATOM     14  S   UNL     1      -0.271  13.877  21.002  0.00  0.00    +0.000 S 
ENDBRANCH   1  13
BRANCH   5  15
ATOM     15  C   UNL     1       1.427   8.981  22.428  0.00  0.00    +0.000 C 
BRANCH  15  16
ATOM     16  O   UNL     1       0.693   9.684  23.432  0.00  0.00    +0.000 OA
ATOM     17  H   UNL     1      -0.246   9.482  23.282  0.00  0.00    +0.000 HD
ENDBRANCH  15  16
ENDBRANCH   5  15
BRANCH   6  18
ATOM     18  C   UNL     1       2.520   7.393  20.117  0.00  0.00    +0.000 C 
BRANCH  18  19
ATOM     19  N   UNL     1       2.450   5.973  19.744  0.00  0.00    +0.000 NA
ATOM     20  C   UNL     1       3.701   5.478  19.137  0.00  0.00    +0.000 C 
ATOM     21  C   UNL     1       3.556   4.019  18.672  0.00  0.00    +0.000 C 
ATOM     22  C   UNL     1       2.694   3.893  17.418  0.00  0.00    +0.000 C 
ATOM     23  O   UNL     1       3.130   3.148  19.730  0.00  0.00    +0.000 OA
ATOM     24  C   UNL     1       2.052   3.627  20.550  0.00  0.00    +0.000 C 
ATOM     25  C   UNL     1       0.694   3.257  19.963  0.00  0.00    +0.000 C 
ATOM     26  C   UNL     1       2.169   5.123  20.918  0.00  0.00    +0.000 C 
ENDBRANCH  18  19
ENDBRANCH   6  18
TORSDOF 5
ENDMDL
MODEL 8
REMARK VINA RESULT:      -5.9      3.183      8.981
REMARK  Name = 
REMARK  9 active torsions:
REMARK  status: ('A' for Active; 'I' for Inactive)
REMARK    1  A    between atoms: C_1  and  C_2
REMARK    2  A    between atoms: C_4  and  C_5
REMARK    3  A    between atoms: C_6  and  C_7
REMARK    4  A    between atoms: C_11  and  C_12
REMARK    5  A    between atoms: C_12  and  O_13
REMARK    6  A    between atoms: C_14  and  C_15
REMARK    7  A    between atoms: C_15  and  N_16
REMARK    8  A    between atoms: C_18  and  C_19
REMARK    9  A    between atoms: C_21  and  C_22
REMARK                            x       y       z     vdW  Elec       q    Type
REMARK                         _______ _______ _______ _____ _____    ______ ____
ROOT
ATOM      1  C   UNL     1       2.273   7.046  19.601  0.00  0.00    +0.000 C 
ATOM      2  O   UNL     1       2.266   6.746  20.802  0.00  0.00    +0.000 OA
ATOM      3  N   UNL     1       1.664   8.237  19.219  0.00  0.00    +0.000 N 
ATOM      4  C   UNL     1       1.314   8.742  17.896  0.00  0.00    +0.000 C 
ATOM      5  C   UNL     1       1.201  10.250  18.108  0.00  0.00    +0.000 C 
ATOM      6  C   UNL     1       0.514  10.309  19.490  0.00  0.00    +0.000 C 
ATOM      7  C   UNL     1       1.073   9.094  20.241  0.00  0.00    +0.000 C 
ENDROOT
BRANCH   1  13
ATOM      8  C   UNL     1       5.206   4.730  15.867  0.00  0.00    +0.000 C 
ATOM      9  C   UNL     1       4.229   5.030  16.947  0.00  0.00    +0.000 A 
ATOM     10  N   UNL     1       3.240   4.247  17.309  0.00  0.00    +0.000 NA
ATOM     11  C   UNL     1       2.501   4.856  18.317  0.00  0.00    +0.000 A 
ATOM     12  C   UNL     1       1.396   4.075  18.940  0.00  0.00    +0.000 C 
ATOM     13  C   UNL     1       2.885   6.157  18.626  0.00  0.00    +0.000 A 
ATOM     14  S   UNL     1       4.370   6.479  17.837  0.00  0.00    +0.000 S 
ENDBRANCH   1  13
BRANCH   5  15
ATOM     15  C   UNL     1       2.575  10.932  18.046  0.00  0.00    +0.000 C 
BRANCH  15  16
ATOM     16  O   UNL     1       2.470  12.183  17.364  0.00  0.00    +0.000 OA
ATOM     17  H   UNL     1       1.626  12.167  16.882  0.00  0.00    +0.000 HD
ENDBRANCH  15  16
ENDBRANCH   5  15
BRANCH   6  18
ATOM     18  C   UNL     1       0.672  11.617  20.275  0.00  0.00    +0.000 C 
BRANCH  18  19
ATOM     19  N   UNL     1      -0.603  12.090  20.829  0.00  0.00    +0.000 NA
ATOM     20  C   UNL     1      -0.450  12.741  22.146  0.00  0.00    +0.000 C 
ATOM     21  C   UNL     1      -1.815  13.134  22.736  0.00  0.00    +0.000 C 
ATOM     22  C   UNL     1      -2.603  11.924  23.232  0.00  0.00    +0.000 C 
ATOM     23  O   UNL     1      -2.573  13.968  21.849  0.00  0.00    +0.000 OA
ATOM     24  C   UNL     1      -2.611  13.560  20.472  0.00  0.00    +0.000 C 
ATOM     25  C   UNL     1      -3.748  12.578  20.208  0.00  0.00    +0.000 C 
ATOM     26  C   UNL     1      -1.247  13.070  19.932  0.00  0.00    +0.000 C 
ENDBRANCH  18  19
ENDBRANCH   6  18
TORSDOF 5
ENDMDL
MODEL 9
REMARK VINA RESULT:      -5.8      4.334     10.474
REMARK  Name = 
REMARK  9 active torsions:
REMARK  status: ('A' for Active; 'I' for Inactive)
REMARK    1  A    between atoms: C_1  and  C_2
REMARK    2  A    between atoms: C_4  and  C_5
REMARK    3  A    between atoms: C_6  and  C_7
REMARK    4  A    between atoms: C_11  and  C_12
REMARK    5  A    between atoms: C_12  and  O_13
REMARK    6  A    between atoms: C_14  and  C_15
REMARK    7  A    between atoms: C_15  and  N_16
REMARK    8  A    between atoms: C_18  and  C_19
REMARK    9  A    between atoms: C_21  and  C_22
REMARK                            x       y       z     vdW  Elec       q    Type
REMARK                         _______ _______ _______ _____ _____    ______ ____
ROOT
ATOM      1  C   UNL     1       1.015   9.550  21.028  0.00  0.00    +0.000 C 
ATOM      2  O   UNL     1       1.515   9.729  22.146  0.00  0.00    +0.000 OA
ATOM      3  N   UNL     1      -0.096  10.310  20.676  0.00  0.00    +0.000 N 
ATOM      4  C   UNL     1      -1.023  10.175  19.559  0.00  0.00    +0.000 C 
ATOM      5  C   UNL     1      -1.636  11.568  19.433  0.00  0.00    +0.000 C 
ATOM      6  C   UNL     1      -1.804  11.958  20.918  0.00  0.00    +0.000 C 
ATOM      7  C   UNL     1      -0.607  11.301  21.618  0.00  0.00    +0.000 C 
ENDROOT
BRANCH   1  13
ATOM      8  C   UNL     1       2.895   5.213  18.670  0.00  0.00    +0.000 C 
ATOM      9  C   UNL     1       2.404   6.581  18.981  0.00  0.00    +0.000 A 
ATOM     10  N   UNL     1       2.527   7.624  18.194  0.00  0.00    +0.000 NA
ATOM     11  C   UNL     1       1.994   8.748  18.816  0.00  0.00    +0.000 A 
ATOM     12  C   UNL     1       1.942  10.016  18.035  0.00  0.00    +0.000 C 
ATOM     13  C   UNL     1       1.571   8.553  20.126  0.00  0.00    +0.000 A 
ATOM     14  S   UNL     1       1.584   6.872  20.449  0.00  0.00    +0.000 S 
ENDBRANCH   1  13
BRANCH   5  15
ATOM     15  C   UNL     1      -0.735  12.508  18.621  0.00  0.00    +0.000 C 
BRANCH  15  16
ATOM     16  O   UNL     1      -1.239  12.642  17.291  0.00  0.00    +0.000 OA
ATOM     17  H   UNL     1      -2.112  13.063  17.365  0.00  0.00    +0.000 HD
ENDBRANCH  15  16
ENDBRANCH   5  15
BRANCH   6  18
ATOM     18  C   UNL     1      -1.919  13.457  21.221  0.00  0.00    +0.000 C 
BRANCH  18  19
ATOM     19  N   UNL     1      -2.799  13.726  22.366  0.00  0.00    +0.000 NA
ATOM     20  C   UNL     1      -3.255  15.129  22.421  0.00  0.00    +0.000 C 
ATOM     21  C   UNL     1      -4.092  15.395  23.684  0.00  0.00    +0.000 C 
ATOM     22  C   UNL     1      -3.236  15.441  24.948  0.00  0.00    +0.000 C 
ATOM     23  O   UNL     1      -5.207  14.500  23.798  0.00  0.00    +0.000 OA
ATOM     24  C   UNL     1      -4.935  13.113  23.539  0.00  0.00    +0.000 C 
ATOM     25  C   UNL     1      -4.473  12.386  24.798  0.00  0.00    +0.000 C 
ATOM     26  C   UNL     1      -4.007  12.878  22.325  0.00  0.00    +0.000 C 
ENDBRANCH  18  19
ENDBRANCH   6  18
TORSDOF 5
ENDMDL
