MODEL 1
REMARK VINA RESULT:      -7.2      0.000      0.000
REMARK  Name = 
REMARK  7 active torsions:
REMARK  status: ('A' for Active; 'I' for Inactive)
REMARK    1  A    between atoms: C_1  and  C_2
REMARK    2  A    between atoms: N_4  and  C_5
REMARK    3  A    between atoms: C_8  and  C_9
REMARK    4  A    between atoms: C_9  and  C_11
REMARK    5  A    between atoms: C_11  and  S_12
REMARK    6  A    between atoms: S_12  and  C_13
REMARK    7  A    between atoms: N_17  and  C_18
REMARK                            x       y       z     vdW  Elec       q    Type
REMARK                         _______ _______ _______ _____ _____    ______ ____
ROOT
ATOM      1  C   UNL     1       1.848   7.127  20.434  0.00  0.00    +0.000 A 
ATOM      2  C   UNL     1       2.258   7.374  19.125  0.00  0.00    +0.000 A 
ATOM      3  C   UNL     1       2.538   6.315  18.255  0.00  0.00    +0.000 A 
ATOM      4  C   UNL     1       2.403   4.990  18.678  0.00  0.00    +0.000 A 
ATOM      5  C   UNL     1       2.014   4.733  19.995  0.00  0.00    +0.000 A 
ATOM      6  C   UNL     1       1.744   5.799  20.868  0.00  0.00    +0.000 A 
ENDROOT
BRANCH   1  10
ATOM      7  C   UNL     1       0.337   9.754  22.678  0.00  0.00    +0.000 C 
ATOM      8  C   UNL     1       0.299   8.542  21.784  0.00  0.00    +0.000 C 
ATOM      9  O   UNL     1      -0.769   8.011  21.499  0.00  0.00    +0.000 OA
ATOM     10  N   UNL     1       1.559   8.153  21.359  0.00  0.00    +0.000 N 
ATOM     11  H   UNL     1       2.351   8.604  21.797  0.00  0.00    +0.000 HD
ENDBRANCH   1  10
BRANCH   4  12
ATOM     12  C   UNL     1       2.721   3.916  17.696  0.00  0.00    +0.000 C 
ATOM     13  O   UNL     1       1.853   3.594  16.882  0.00  0.00    +0.000 OA
BRANCH  12  14
ATOM     14  C   UNL     1       4.057   3.193  17.798  0.00  0.00    +0.000 C 
BRANCH  14  15
ATOM     15  S   UNL     1       5.375   4.329  18.336  0.00  0.00    +0.000 S 
BRANCH  15  16
ATOM     16  C   UNL     1       6.135   4.609  16.813  0.00  0.00    +0.000 A 
ATOM     17  N   UNL     1       6.090   3.825  15.761  0.00  0.00    +0.000 NA
ATOM     18  N   UNL     1       6.870   4.443  14.809  0.00  0.00    +0.000 NA
ATOM     19  N   UNL     1       7.398   5.567  15.276  0.00  0.00    +0.000 NA
ATOM     20  N   UNL     1       6.947   5.670  16.542  0.00  0.00    +0.000 N 
ATOM     21  C   UNL     1       7.369   6.747  17.391  0.00  0.00    +0.000 C 
ENDBRANCH  15  16
ENDBRANCH  14  15
ENDBRANCH  12  14
ENDBRANCH   4  12
TORSDOF 5
ENDMDL
MODEL 2
REMARK VINA RESULT:      -7.2      1.390      1.764
REMARK  Name = 
REMARK  7 active torsions:
REMARK  status: ('A' for Active; 'I' for Inactive)
REMARK    1  A    between atoms: C_1  and  C_2
REMARK    2  A    between atoms: N_4  and  C_5
REMARK    3  A    between atoms: C_8  and  C_9
REMARK    4  A    between atoms: C_9  and  C_11
REMARK    5  A    between atoms: C_11  and  S_12
REMARK    6  A    between atoms: S_12  and  C_13
REMARK    7  A    between atoms: N_17  and  C_18
REMARK                            x       y       z     vdW  Elec       q    Type
REMARK                         _______ _______ _______ _____ _____    ______ ____
ROOT
ATOM      1  C   UNL     1       1.841   7.119  20.492  0.00  0.00    +0.000 A 
ATOM      2  C   UNL     1       2.281   7.405  19.201  0.00  0.00    +0.000 A 
ATOM      3  C   UNL     1       2.556   6.374  18.298  0.00  0.00    +0.000 A 
ATOM      4  C   UNL     1       2.385   5.037  18.668  0.00  0.00    +0.000 A 
ATOM      5  C   UNL     1       1.966   4.740  19.967  0.00  0.00    +0.000 A 
ATOM      6  C   UNL     1       1.701   5.778  20.874  0.00  0.00    +0.000 A 
ENDROOT
BRANCH   1  10
ATOM      7  C   UNL     1       0.341   9.695  22.802  0.00  0.00    +0.000 C 
ATOM      8  C   UNL     1       0.295   8.519  21.861  0.00  0.00    +0.000 C 
ATOM      9  O   UNL     1      -0.778   8.026  21.533  0.00  0.00    +0.000 OA
ATOM     10  N   UNL     1       1.554   8.115  21.449  0.00  0.00    +0.000 N 
ATOM     11  H   UNL     1       2.347   8.530  21.922  0.00  0.00    +0.000 HD
ENDBRANCH   1  10
BRANCH   4  12
ATOM     12  C   UNL     1       2.700   3.994  17.652  0.00  0.00    +0.000 C 
ATOM     13  O   UNL     1       1.783   3.574  16.944  0.00  0.00    +0.000 OA
BRANCH  12  14
ATOM     14  C   UNL     1       4.109   3.418  17.595  0.00  0.00    +0.000 C 
BRANCH  14  15
ATOM     15  S   UNL     1       5.239   4.542  16.713  0.00  0.00    +0.000 S 
BRANCH  15  16
ATOM     16  C   UNL     1       6.258   4.996  18.028  0.00  0.00    +0.000 A 
ATOM     17  N   UNL     1       6.281   4.451  19.223  0.00  0.00    +0.000 NA
ATOM     18  N   UNL     1       7.219   5.166  19.934  0.00  0.00    +0.000 NA
ATOM     19  N   UNL     1       7.740   6.140  19.199  0.00  0.00    +0.000 NA
ATOM     20  N   UNL     1       7.130   6.044  18.001  0.00  0.00    +0.000 N 
ATOM     21  C   UNL     1       7.399   6.989  16.957  0.00  0.00    +0.000 C 
ENDBRANCH  15  16
ENDBRANCH  14  15
ENDBRANCH  12  14
ENDBRANCH   4  12
TORSDOF 5
ENDMDL
MODEL 3
REMARK VINA RESULT:      -7.2      3.809      7.603
REMARK  Name = 
REMARK  7 active torsions:
REMARK  status: ('A' for Active; 'I' for Inactive)
REMARK    1  A    between atoms: C_1  and  C_2
REMARK    2  A    between atoms: N_4  and  C_5
REMARK    3  A    between atoms: C_8  and  C_9
REMARK    4  A    between atoms: C_9  and  C_11
REMARK    5  A    between atoms: C_11  and  S_12
REMARK    6  A    between atoms: S_12  and  C_13
REMARK    7  A    between atoms: N_17  and  C_18
REMARK                            x       y       z     vdW  Elec       q    Type
REMARK                         _______ _______ _______ _____ _____    ______ ____
ROOT
ATOM      1  C   UNL     1       5.894   4.151  14.644  0.00  0.00    +0.000 A 
ATOM      2  C   UNL     1       5.429   3.508  15.789  0.00  0.00    +0.000 A 
ATOM      3  C   UNL     1       4.843   4.239  16.828  0.00  0.00    +0.000 A 
ATOM      4  C   UNL     1       4.703   5.626  16.733  0.00  0.00    +0.000 A 
ATOM      5  C   UNL     1       5.186   6.282  15.599  0.00  0.00    +0.000 A 
ATOM      6  C   UNL     1       5.783   5.546  14.563  0.00  0.00    +0.000 A 
ENDROOT
BRANCH   1  10
ATOM      7  C   UNL     1       6.790   2.308  11.479  0.00  0.00    +0.000 C 
ATOM      8  C   UNL     1       5.904   3.152  12.358  0.00  0.00    +0.000 C 
ATOM      9  O   UNL     1       4.784   3.480  11.982  0.00  0.00    +0.000 OA
ATOM     10  N   UNL     1       6.500   3.470  13.568  0.00  0.00    +0.000 N 
ATOM     11  H   UNL     1       7.482   3.247  13.668  0.00  0.00    +0.000 HD
ENDBRANCH   1  10
BRANCH   4  12
ATOM     12  C   UNL     1       4.070   6.336  17.880  0.00  0.00    +0.000 C 
ATOM     13  O   UNL     1       3.693   7.496  17.711  0.00  0.00    +0.000 OA
BRANCH  12  14
ATOM     14  C   UNL     1       4.006   5.642  19.234  0.00  0.00    +0.000 C 
BRANCH  14  15
ATOM     15  S   UNL     1       2.315   5.683  19.910  0.00  0.00    +0.000 S 
BRANCH  15  16
ATOM     16  C   UNL     1       1.738   4.177  19.297  0.00  0.00    +0.000 A 
ATOM     17  N   UNL     1       1.349   3.930  18.068  0.00  0.00    +0.000 NA
ATOM     18  N   UNL     1       0.944   2.614  18.067  0.00  0.00    +0.000 NA
ATOM     19  N   UNL     1       1.059   2.076  19.275  0.00  0.00    +0.000 NA
ATOM     20  N   UNL     1       1.549   3.059  20.055  0.00  0.00    +0.000 N 
ATOM     21  C   UNL     1       1.747   2.857  21.461  0.00  0.00    +0.000 C 
ENDBRANCH  15  16
ENDBRANCH  14  15
ENDBRANCH  12  14
ENDBRANCH   4  12
TORSDOF 5
ENDMDL
MODEL 4
REMARK VINA RESULT:      -7.1      1.978      2.875
REMARK  Name = 
REMARK  7 active torsions:
REMARK  status: ('A' for Active; 'I' for Inactive)
REMARK    1  A    between atoms: C_1  and  C_2
REMARK    2  A    between atoms: N_4  and  C_5
REMARK    3  A    between atoms: C_8  and  C_9
REMARK    4  A    between atoms: C_9  and  C_11
REMARK    5  A    between atoms: C_11  and  S_12
REMARK    6  A    between atoms: S_12  and  C_13
REMARK    7  A    between atoms: N_17  and  C_18
REMARK                            x       y       z     vdW  Elec       q    Type
REMARK                         _______ _______ _______ _____ _____    ______ ____
ROOT
ATOM      1  C   UNL     1       0.645   9.348  20.445  0.00  0.00    +0.000 A 
ATOM      2  C   UNL     1       1.237   8.207  20.981  0.00  0.00    +0.000 A 
ATOM      3  C   UNL     1       2.092   7.417  20.205  0.00  0.00    +0.000 A 
ATOM      4  C   UNL     1       2.377   7.762  18.881  0.00  0.00    +0.000 A 
ATOM      5  C   UNL     1       1.770   8.893  18.329  0.00  0.00    +0.000 A 
ATOM      6  C   UNL     1       0.904   9.677  19.108  0.00  0.00    +0.000 A 
ENDROOT
BRANCH   1  10
ATOM      7  C   UNL     1      -1.407  11.192  23.016  0.00  0.00    +0.000 C 
ATOM      8  C   UNL     1      -0.266  10.323  22.553  0.00  0.00    +0.000 C 
ATOM      9  O   UNL     1       0.506   9.825  23.364  0.00  0.00    +0.000 OA
ATOM     10  N   UNL     1      -0.230  10.180  21.175  0.00  0.00    +0.000 N 
ATOM     11  H   UNL     1      -0.848  10.771  20.635  0.00  0.00    +0.000 HD
ENDBRANCH   1  10
BRANCH   4  12
ATOM     12  C   UNL     1       3.294   6.871  18.117  0.00  0.00    +0.000 C 
ATOM     13  O   UNL     1       3.773   7.293  17.063  0.00  0.00    +0.000 OA
BRANCH  12  14
ATOM     14  C   UNL     1       3.525   5.449  18.611  0.00  0.00    +0.000 C 
BRANCH  14  15
ATOM     15  S   UNL     1       4.042   4.360  17.246  0.00  0.00    +0.000 S 
BRANCH  15  16
ATOM     16  C   UNL     1       5.748   4.396  17.496  0.00  0.00    +0.000 A 
ATOM     17  N   UNL     1       6.367   4.523  18.647  0.00  0.00    +0.000 NA
ATOM     18  N   UNL     1       7.710   4.536  18.343  0.00  0.00    +0.000 NA
ATOM     19  N   UNL     1       7.907   4.444  17.034  0.00  0.00    +0.000 NA
ATOM     20  N   UNL     1       6.674   4.367  16.496  0.00  0.00    +0.000 N 
ATOM     21  C   UNL     1       6.490   4.319  15.074  0.00  0.00    +0.000 C 
ENDBRANCH  15  16
ENDBRANCH  14  15
ENDBRANCH  12  14
ENDBRANCH   4  12
TORSDOF 5
ENDMDL
MODEL 5
REMARK VINA RESULT:      -7.1      3.630      7.533
REMARK  Name = 
REMARK  7 active torsions:
REMARK  status: ('A' for Active; 'I' for Inactive)
REMARK    1  A    between atoms: C_1  and  C_2
REMARK    2  A    between atoms: N_4  and  C_5
REMARK    3  A    between atoms: C_8  and  C_9
REMARK    4  A    between atoms: C_9  and  C_11
REMARK    5  A    between atoms: C_11  and  S_12
REMARK    6  A    between atoms: S_12  and  C_13
REMARK    7  A    between atoms: N_17  and  C_18
REMARK                            x       y       z     vdW  Elec       q    Type
REMARK                         _______ _______ _______ _____ _____    ______ ____
ROOT
ATOM      1  C   UNL     1       6.091   4.736  14.926  0.00  0.00    +0.000 A 
ATOM      2  C   UNL     1       6.064   3.798  15.956  0.00  0.00    +0.000 A 
ATOM      3  C   UNL     1       5.428   4.089  17.167  0.00  0.00    +0.000 A 
ATOM      4  C   UNL     1       4.798   5.320  17.364  0.00  0.00    +0.000 A 
ATOM      5  C   UNL     1       4.839   6.275  16.345  0.00  0.00    +0.000 A 
ATOM      6  C   UNL     1       5.488   5.983  15.135  0.00  0.00    +0.000 A 
ENDROOT
BRANCH   1  10
ATOM      7  C   UNL     1       7.176   3.640  11.485  0.00  0.00    +0.000 C 
ATOM      8  C   UNL     1       6.187   3.819  12.608  0.00  0.00    +0.000 C 
ATOM      9  O   UNL     1       5.049   3.374  12.512  0.00  0.00    +0.000 OA
ATOM     10  N   UNL     1       6.724   4.504  13.686  0.00  0.00    +0.000 N 
ATOM     11  H   UNL     1       7.630   4.932  13.553  0.00  0.00    +0.000 HD
ENDBRANCH   1  10
BRANCH   4  12
ATOM     12  C   UNL     1       4.142   5.558  18.680  0.00  0.00    +0.000 C 
ATOM     13  O   UNL     1       4.857   5.657  19.679  0.00  0.00    +0.000 OA
BRANCH  12  14
ATOM     14  C   UNL     1       2.621   5.568  18.758  0.00  0.00    +0.000 C 
BRANCH  14  15
ATOM     15  S   UNL     1       1.941   3.903  18.465  0.00  0.00    +0.000 S 
BRANCH  15  16
ATOM     16  C   UNL     1       2.021   3.288  20.074  0.00  0.00    +0.000 A 
ATOM     17  N   UNL     1       1.136   3.472  21.027  0.00  0.00    +0.000 NA
ATOM     18  N   UNL     1       1.646   2.828  22.132  0.00  0.00    +0.000 NA
ATOM     19  N   UNL     1       2.827   2.283  21.868  0.00  0.00    +0.000 NA
ATOM     20  N   UNL     1       3.073   2.580  20.577  0.00  0.00    +0.000 N 
ATOM     21  C   UNL     1       4.308   2.201  19.954  0.00  0.00    +0.000 C 
ENDBRANCH  15  16
ENDBRANCH  14  15
ENDBRANCH  12  14
ENDBRANCH   4  12
TORSDOF 5
ENDMDL
MODEL 6
REMARK VINA RESULT:      -7.0      0.548      1.221
REMARK  Name = 
REMARK  7 active torsions:
REMARK  status: ('A' for Active; 'I' for Inactive)
REMARK    1  A    between atoms: C_1  and  C_2
REMARK    2  A    between atoms: N_4  and  C_5
REMARK    3  A    between atoms: C_8  and  C_9
REMARK    4  A    between atoms: C_9  and  C_11
REMARK    5  A    between atoms: C_11  and  S_12
REMARK    6  A    between atoms: S_12  and  C_13
REMARK    7  A    between atoms: N_17  and  C_18
REMARK                            x       y       z     vdW  Elec       q    Type
REMARK                         _______ _______ _______ _____ _____    ______ ____
ROOT
ATOM      1  C   UNL     1       1.789   7.066  20.460  0.00  0.00    +0.000 A 
ATOM      2  C   UNL     1       1.531   5.751  20.841  0.00  0.00    +0.000 A 
ATOM      3  C   UNL     1       1.744   4.696  19.949  0.00  0.00    +0.000 A 
ATOM      4  C   UNL     1       2.230   4.939  18.661  0.00  0.00    +0.000 A 
ATOM      5  C   UNL     1       2.470   6.256  18.262  0.00  0.00    +0.000 A 
ATOM      6  C   UNL     1       2.245   7.313  19.158  0.00  0.00    +0.000 A 
ENDROOT
BRANCH   1  10
ATOM      7  C   UNL     1       0.493   9.896  22.588  0.00  0.00    +0.000 C 
ATOM      8  C   UNL     1       0.370   8.611  21.811  0.00  0.00    +0.000 C 
ATOM      9  O   UNL     1      -0.720   8.071  21.668  0.00  0.00    +0.000 OA
ATOM     10  N   UNL     1       1.587   8.172  21.313  0.00  0.00    +0.000 N 
ATOM     11  H   UNL     1       2.416   8.649  21.640  0.00  0.00    +0.000 HD
ENDBRANCH   1  10
BRANCH   4  12
ATOM     12  C   UNL     1       2.430   3.765  17.766  0.00  0.00    +0.000 C 
ATOM     13  O   UNL     1       1.601   2.854  17.804  0.00  0.00    +0.000 OA
BRANCH  12  14
ATOM     14  C   UNL     1       3.694   3.688  16.919  0.00  0.00    +0.000 C 
BRANCH  14  15
ATOM     15  S   UNL     1       5.180   3.956  17.938  0.00  0.00    +0.000 S 
BRANCH  15  16
ATOM     16  C   UNL     1       6.175   4.743  16.770  0.00  0.00    +0.000 A 
ATOM     17  N   UNL     1       6.307   4.415  15.505  0.00  0.00    +0.000 NA
ATOM     18  N   UNL     1       7.227   5.300  14.989  0.00  0.00    +0.000 NA
ATOM     19  N   UNL     1       7.666   6.135  15.923  0.00  0.00    +0.000 NA
ATOM     20  N   UNL     1       7.015   5.781  17.048  0.00  0.00    +0.000 N 
ATOM     21  C   UNL     1       7.287   6.435  18.296  0.00  0.00    +0.000 C 
ENDBRANCH  15  16
ENDBRANCH  14  15
ENDBRANCH  12  14
ENDBRANCH   4  12
TORSDOF 5
ENDMDL
MODEL 7
REMARK VINA RESULT:      -7.0      2.417      3.001
REMARK  Name = 
REMARK  7 active torsions:
REMARK  status: ('A' for Active; 'I' for Inactive)
REMARK    1  A    between atoms: C_1  and  C_2
REMARK    2  A    between atoms: N_4  and  C_5
REMARK    3  A    between atoms: C_8  and  C_9
REMARK    4  A    between atoms: C_9  and  C_11
REMARK    5  A    between atoms: C_11  and  S_12
REMARK    6  A    between atoms: S_12  and  C_13
REMARK    7  A    between atoms: N_17  and  C_18
REMARK                            x       y       z     vdW  Elec       q    Type
REMARK                         _______ _______ _______ _____ _____    ______ ____
ROOT
ATOM      1  C   UNL     1       0.742   9.737  19.725  0.00  0.00    +0.000 A 
ATOM      2  C   UNL     1       1.366   9.485  18.504  0.00  0.00    +0.000 A 
ATOM      3  C   UNL     1       2.130   8.329  18.320  0.00  0.00    +0.000 A 
ATOM      4  C   UNL     1       2.275   7.399  19.353  0.00  0.00    +0.000 A 
ATOM      5  C   UNL     1       1.672   7.653  20.587  0.00  0.00    +0.000 A 
ATOM      6  C   UNL     1       0.915   8.821  20.771  0.00  0.00    +0.000 A 
ENDROOT
BRANCH   1  10
ATOM      7  C   UNL     1      -1.767  12.551  19.794  0.00  0.00    +0.000 C 
ATOM      8  C   UNL     1      -1.270  11.179  19.417  0.00  0.00    +0.000 C 
ATOM      9  O   UNL     1      -1.936  10.454  18.688  0.00  0.00    +0.000 OA
ATOM     10  N   UNL     1      -0.034  10.889  19.972  0.00  0.00    +0.000 N 
ATOM     11  H   UNL     1       0.319  11.532  20.668  0.00  0.00    +0.000 HD
ENDBRANCH   1  10
BRANCH   4  12
ATOM     12  C   UNL     1       3.106   6.192  19.083  0.00  0.00    +0.000 C 
ATOM     13  O   UNL     1       3.380   5.449  20.027  0.00  0.00    +0.000 OA
BRANCH  12  14
ATOM     14  C   UNL     1       3.665   5.977  17.683  0.00  0.00    +0.000 C 
BRANCH  14  15
ATOM     15  S   UNL     1       4.067   4.223  17.401  0.00  0.00    +0.000 S 
BRANCH  15  16
ATOM     16  C   UNL     1       5.786   4.315  17.502  0.00  0.00    +0.000 A 
ATOM     17  N   UNL     1       6.498   4.466  18.595  0.00  0.00    +0.000 NA
ATOM     18  N   UNL     1       7.809   4.522  18.175  0.00  0.00    +0.000 NA
ATOM     19  N   UNL     1       7.894   4.432  16.854  0.00  0.00    +0.000 NA
ATOM     20  N   UNL     1       6.622   4.312  16.425  0.00  0.00    +0.000 N 
ATOM     21  C   UNL     1       6.317   4.254  15.025  0.00  0.00    +0.000 C 
ENDBRANCH  15  16
ENDBRANCH  14  15
ENDBRANCH  12  14
ENDBRANCH   4  12
TORSDOF 5
ENDMDL
MODEL 8
REMARK VINA RESULT:      -7.0      3.646      7.333
REMARK  Name = 
REMARK  7 active torsions:
REMARK  status: ('A' for Active; 'I' for Inactive)
REMARK    1  A    between atoms: C_1  and  C_2
REMARK    2  A    between atoms: N_4  and  C_5
REMARK    3  A    between atoms: C_8  and  C_9
REMARK    4  A    between atoms: C_9  and  C_11
REMARK    5  A    between atoms: C_11  and  S_12
REMARK    6  A    between atoms: S_12  and  C_13
REMARK    7  A    between atoms: N_17  and  C_18
REMARK                            x       y       z     vdW  Elec       q    Type
REMARK                         _______ _______ _______ _____ _____    ______ ____
ROOT
ATOM      1  C   UNL     1       5.986   4.166  14.818  0.00  0.00    +0.000 A 
ATOM      2  C   UNL     1       5.869   5.538  15.031  0.00  0.00    +0.000 A 
ATOM      3  C   UNL     1       5.331   6.030  16.225  0.00  0.00    +0.000 A 
ATOM      4  C   UNL     1       4.911   5.156  17.231  0.00  0.00    +0.000 A 
ATOM      5  C   UNL     1       5.003   3.778  17.017  0.00  0.00    +0.000 A 
ATOM      6  C   UNL     1       5.534   3.289  15.813  0.00  0.00    +0.000 A 
ENDROOT
BRANCH   1  10
ATOM      7  C   UNL     1       6.643   2.604  11.449  0.00  0.00    +0.000 C 
ATOM      8  C   UNL     1       5.800   3.304  12.484  0.00  0.00    +0.000 C 
ATOM      9  O   UNL     1       4.617   3.539  12.269  0.00  0.00    +0.000 OA
ATOM     10  N   UNL     1       6.512   3.611  13.633  0.00  0.00    +0.000 N 
ATOM     11  H   UNL     1       7.515   3.482  13.599  0.00  0.00    +0.000 HD
ENDBRANCH   1  10
BRANCH   4  12
ATOM     12  C   UNL     1       4.347   5.754  18.474  0.00  0.00    +0.000 C 
ATOM     13  O   UNL     1       4.965   5.597  19.528  0.00  0.00    +0.000 OA
BRANCH  12  14
ATOM     14  C   UNL     1       2.991   6.444  18.413  0.00  0.00    +0.000 C 
BRANCH  14  15
ATOM     15  S   UNL     1       1.847   5.744  19.646  0.00  0.00    +0.000 S 
BRANCH  15  16
ATOM     16  C   UNL     1       1.801   4.114  19.085  0.00  0.00    +0.000 A 
ATOM     17  N   UNL     1       1.355   3.700  17.921  0.00  0.00    +0.000 NA
ATOM     18  N   UNL     1       1.486   2.329  17.944  0.00  0.00    +0.000 NA
ATOM     19  N   UNL     1       1.978   1.913  19.105  0.00  0.00    +0.000 NA
ATOM     20  N   UNL     1       2.168   3.033  19.830  0.00  0.00    +0.000 N 
ATOM     21  C   UNL     1       2.637   2.965  21.184  0.00  0.00    +0.000 C 
ENDBRANCH  15  16
ENDBRANCH  14  15
ENDBRANCH  12  14
ENDBRANCH   4  12
TORSDOF 5
ENDMDL
MODEL 9
REMARK VINA RESULT:      -6.9      3.718      7.853
REMARK  Name = 
REMARK  7 active torsions:
REMARK  status: ('A' for Active; 'I' for Inactive)
REMARK    1  A    between atoms: C_1  and  C_2
REMARK    2  A    between atoms: N_4  and  C_5
REMARK    3  A    between atoms: C_8  and  C_9
REMARK    4  A    between atoms: C_9  and  C_11
REMARK    5  A    between atoms: C_11  and  S_12
REMARK    6  A    between atoms: S_12  and  C_13
REMARK    7  A    between atoms: N_17  and  C_18
REMARK                            x       y       z     vdW  Elec       q    Type
REMARK                         _______ _______ _______ _____ _____    ______ ____
ROOT
ATOM      1  C   UNL     1       5.957   4.016  14.412  0.00  0.00    +0.000 A 
ATOM      2  C   UNL     1       5.865   5.407  14.385  0.00  0.00    +0.000 A 
ATOM      3  C   UNL     1       5.325   6.106  15.469  0.00  0.00    +0.000 A 
ATOM      4  C   UNL     1       4.876   5.426  16.604  0.00  0.00    +0.000 A 
ATOM      5  C   UNL     1       4.943   4.031  16.631  0.00  0.00    +0.000 A 
ATOM      6  C   UNL     1       5.477   3.332  15.536  0.00  0.00    +0.000 A 
ENDROOT
BRANCH   1  10
ATOM      7  C   UNL     1       6.637   2.006  11.296  0.00  0.00    +0.000 C 
ATOM      8  C   UNL     1       5.836   2.941  12.164  0.00  0.00    +0.000 C 
ATOM      9  O   UNL     1       4.734   3.336  11.803  0.00  0.00    +0.000 OA
ATOM     10  N   UNL     1       6.485   3.256  13.347  0.00  0.00    +0.000 N 
ATOM     11  H   UNL     1       7.450   2.967  13.433  0.00  0.00    +0.000 HD
ENDBRANCH   1  10
BRANCH   4  12
ATOM     12  C   UNL     1       4.311   6.239  17.717  0.00  0.00    +0.000 C 
ATOM     13  O   UNL     1       4.215   7.457  17.560  0.00  0.00    +0.000 OA
BRANCH  12  14
ATOM     14  C   UNL     1       3.971   5.553  19.034  0.00  0.00    +0.000 C 
BRANCH  14  15
ATOM     15  S   UNL     1       2.194   5.700  19.407  0.00  0.00    +0.000 S 
BRANCH  15  16
ATOM     16  C   UNL     1       2.019   4.340  20.453  0.00  0.00    +0.000 A 
ATOM     17  N   UNL     1       2.443   4.246  21.692  0.00  0.00    +0.000 NA
ATOM     18  N   UNL     1       2.111   2.973  22.099  0.00  0.00    +0.000 NA
ATOM     19  N   UNL     1       1.519   2.296  21.123  0.00  0.00    +0.000 NA
ATOM     20  N   UNL     1       1.469   3.148  20.081  0.00  0.00    +0.000 N 
ATOM     21  C   UNL     1       0.944   2.734  18.812  0.00  0.00    +0.000 C 
ENDBRANCH  15  16
ENDBRANCH  14  15
ENDBRANCH  12  14
ENDBRANCH   4  12
TORSDOF 5
ENDMDL
