MODEL 1
REMARK VINA RESULT:      -7.9      0.000      0.000
REMARK  Name = 
REMARK  6 active torsions:
REMARK  status: ('A' for Active; 'I' for Inactive)
REMARK    1  A    between atoms: C_1  and  C_2
REMARK    2  A    between atoms: C_5  and  O_6
REMARK    3  A    between atoms: C_7  and  C_8
REMARK    4  A    between atoms: N_10  and  C_11
REMARK    5  A    between atoms: C_11  and  C_12
REMARK    6  A    between atoms: C_12  and  C_13
REMARK                            x       y       z     vdW  Elec       q    Type
REMARK                         _______ _______ _______ _____ _____    ______ ____
ROOT
ATOM      1  C   UNL     1       5.198   4.512  16.129  0.00  0.00    +0.000 C 
ATOM      2  O   UNL     1       4.836   3.492  16.706  0.00  0.00    +0.000 OA
ATOM      3  N   UNL     1       5.032   5.769  16.673  0.00  0.00    +0.000 N 
ATOM      4  H   UNL     1       5.371   6.564  16.139  0.00  0.00    +0.000 HD
ENDROOT
BRANCH   1  10
ATOM      5  C   UNL     1       5.009   2.729  11.460  0.00  0.00    +0.000 C 
ATOM      6  C   UNL     1       5.738   3.528  12.503  0.00  0.00    +0.000 A 
ATOM      7  C   UNL     1       6.944   4.164  12.202  0.00  0.00    +0.000 A 
ATOM      8  C   UNL     1       7.599   4.932  13.167  0.00  0.00    +0.000 A 
ATOM      9  C   UNL     1       7.052   5.070  14.446  0.00  0.00    +0.000 A 
ATOM     10  C   UNL     1       5.852   4.427  14.782  0.00  0.00    +0.000 A 
ATOM     11  C   UNL     1       5.205   3.658  13.795  0.00  0.00    +0.000 A 
BRANCH   9  12
ATOM     12  O   UNL     1       7.717   5.853  15.357  0.00  0.00    +0.000 OA
ATOM     13  H   UNL     1       7.697   6.777  15.048  0.00  0.00    +0.000 HD
ENDBRANCH   9  12
ENDBRANCH   1  10
BRANCH   3  14
ATOM     14  C   UNL     1       4.411   5.956  17.967  0.00  0.00    +0.000 C 
BRANCH  14  15
ATOM     15  C   UNL     1       2.903   6.206  17.887  0.00  0.00    +0.000 C 
BRANCH  15  16
ATOM     16  C   UNL     1       2.144   5.123  18.615  0.00  0.00    +0.000 A 
ATOM     17  C   UNL     1       1.994   5.176  20.007  0.00  0.00    +0.000 A 
ATOM     18  C   UNL     1       1.390   4.122  20.695  0.00  0.00    +0.000 A 
ATOM     19  C   UNL     1       0.916   3.013  19.997  0.00  0.00    +0.000 A 
ATOM     20  C   UNL     1       1.040   2.960  18.610  0.00  0.00    +0.000 A 
ATOM     21  C   UNL     1       1.655   4.007  17.921  0.00  0.00    +0.000 A 
ENDBRANCH  15  16
ENDBRANCH  14  15
ENDBRANCH   3  14
TORSDOF 5
ENDMDL
MODEL 2
REMARK VINA RESULT:      -7.9      0.095      1.111
REMARK  Name = 
REMARK  6 active torsions:
REMARK  status: ('A' for Active; 'I' for Inactive)
REMARK    1  A    between atoms: C_1  and  C_2
REMARK    2  A    between atoms: C_5  and  O_6
REMARK    3  A    between atoms: C_7  and  C_8
REMARK    4  A    between atoms: N_10  and  C_11
REMARK    5  A    between atoms: C_11  and  C_12
REMARK    6  A    between atoms: C_12  and  C_13
REMARK                            x       y       z     vdW  Elec       q    Type
REMARK                         _______ _______ _______ _____ _____    ______ ____
ROOT
ATOM      1  C   UNL     1       5.191   4.583  16.118  0.00  0.00    +0.000 C 
ATOM      2  O   UNL     1       4.914   3.571  16.753  0.00  0.00    +0.000 OA
ATOM      3  N   UNL     1       4.939   5.851  16.598  0.00  0.00    +0.000 N 
ATOM      4  H   UNL     1       5.211   6.640  16.017  0.00  0.00    +0.000 HD
ENDROOT
BRANCH   1  10
ATOM      5  C   UNL     1       4.926   2.772  11.463  0.00  0.00    +0.000 C 
ATOM      6  C   UNL     1       5.680   3.562  12.494  0.00  0.00    +0.000 A 
ATOM      7  C   UNL     1       6.897   4.170  12.179  0.00  0.00    +0.000 A 
ATOM      8  C   UNL     1       7.576   4.931  13.133  0.00  0.00    +0.000 A 
ATOM      9  C   UNL     1       7.043   5.090  14.416  0.00  0.00    +0.000 A 
ATOM     10  C   UNL     1       5.833   4.474  14.766  0.00  0.00    +0.000 A 
ATOM     11  C   UNL     1       5.161   3.712  13.790  0.00  0.00    +0.000 A 
BRANCH   9  12
ATOM     12  O   UNL     1       7.732   5.864  15.316  0.00  0.00    +0.000 OA
ATOM     13  H   UNL     1       7.251   6.703  15.437  0.00  0.00    +0.000 HD
ENDBRANCH   9  12
ENDBRANCH   1  10
BRANCH   3  14
ATOM     14  C   UNL     1       4.323   6.061  17.891  0.00  0.00    +0.000 C 
BRANCH  14  15
ATOM     15  C   UNL     1       2.796   6.152  17.828  0.00  0.00    +0.000 C 
BRANCH  15  16
ATOM     16  C   UNL     1       2.163   5.020  18.602  0.00  0.00    +0.000 A 
ATOM     17  C   UNL     1       1.681   3.887  17.935  0.00  0.00    +0.000 A 
ATOM     18  C   UNL     1       0.998   2.890  18.634  0.00  0.00    +0.000 A 
ATOM     19  C   UNL     1       0.804   3.009  20.009  0.00  0.00    +0.000 A 
ATOM     20  C   UNL     1       1.300   4.121  20.687  0.00  0.00    +0.000 A 
ATOM     21  C   UNL     1       1.973   5.125  19.987  0.00  0.00    +0.000 A 
ENDBRANCH  15  16
ENDBRANCH  14  15
ENDBRANCH   3  14
TORSDOF 5
ENDMDL
MODEL 3
REMARK VINA RESULT:      -7.4      1.093      1.136
REMARK  Name = 
REMARK  6 active torsions:
REMARK  status: ('A' for Active; 'I' for Inactive)
REMARK    1  A    between atoms: C_1  and  C_2
REMARK    2  A    between atoms: C_5  and  O_6
REMARK    3  A    between atoms: C_7  and  C_8
REMARK    4  A    between atoms: N_10  and  C_11
REMARK    5  A    between atoms: C_11  and  C_12
REMARK    6  A    between atoms: C_12  and  C_13
REMARK                            x       y       z     vdW  Elec       q    Type
REMARK                         _______ _______ _______ _____ _____    ______ ____
ROOT
ATOM      1  C   UNL     1       5.798   5.131  15.473  0.00  0.00    +0.000 C 
ATOM      2  O   UNL     1       6.157   6.238  15.861  0.00  0.00    +0.000 OA
ATOM      3  N   UNL     1       5.071   4.267  16.265  0.00  0.00    +0.000 N 
ATOM      4  H   UNL     1       4.801   3.373  15.865  0.00  0.00    +0.000 HD
ENDROOT
BRANCH   1  10
ATOM      5  C   UNL     1       4.354   2.646  11.379  0.00  0.00    +0.000 C 
ATOM      6  C   UNL     1       5.413   3.433  12.099  0.00  0.00    +0.000 A 
ATOM      7  C   UNL     1       6.632   3.722  11.483  0.00  0.00    +0.000 A 
ATOM      8  C   UNL     1       7.597   4.482  12.147  0.00  0.00    +0.000 A 
ATOM      9  C   UNL     1       7.352   4.959  13.437  0.00  0.00    +0.000 A 
ATOM     10  C   UNL     1       6.144   4.668  14.088  0.00  0.00    +0.000 A 
ATOM     11  C   UNL     1       5.181   3.901  13.402  0.00  0.00    +0.000 A 
BRANCH   9  12
ATOM     12  O   UNL     1       8.318   5.721  14.045  0.00  0.00    +0.000 OA
ATOM     13  H   UNL     1       7.891   6.487  14.470  0.00  0.00    +0.000 HD
ENDBRANCH   9  12
ENDBRANCH   1  10
BRANCH   3  14
ATOM     14  C   UNL     1       4.689   4.622  17.615  0.00  0.00    +0.000 C 
BRANCH  14  15
ATOM     15  C   UNL     1       3.352   5.364  17.692  0.00  0.00    +0.000 C 
BRANCH  15  16
ATOM     16  C   UNL     1       2.358   4.585  18.520  0.00  0.00    +0.000 A 
ATOM     17  C   UNL     1       2.022   5.012  19.811  0.00  0.00    +0.000 A 
ATOM     18  C   UNL     1       1.190   4.236  20.619  0.00  0.00    +0.000 A 
ATOM     19  C   UNL     1       0.672   3.033  20.139  0.00  0.00    +0.000 A 
ATOM     20  C   UNL     1       0.983   2.610  18.849  0.00  0.00    +0.000 A 
ATOM     21  C   UNL     1       1.825   3.379  18.043  0.00  0.00    +0.000 A 
ENDBRANCH  15  16
ENDBRANCH  14  15
ENDBRANCH   3  14
TORSDOF 5
ENDMDL
MODEL 4
REMARK VINA RESULT:      -7.3      5.390      7.742
REMARK  Name = 
REMARK  6 active torsions:
REMARK  status: ('A' for Active; 'I' for Inactive)
REMARK    1  A    between atoms: C_1  and  C_2
REMARK    2  A    between atoms: C_5  and  O_6
REMARK    3  A    between atoms: C_7  and  C_8
REMARK    4  A    between atoms: N_10  and  C_11
REMARK    5  A    between atoms: C_11  and  C_12
REMARK    6  A    between atoms: C_12  and  C_13
REMARK                            x       y       z     vdW  Elec       q    Type
REMARK                         _______ _______ _______ _____ _____    ______ ____
ROOT
ATOM      1  C   UNL     1       7.481   6.478  18.178  0.00  0.00    +0.000 C 
ATOM      2  O   UNL     1       8.086   6.004  19.134  0.00  0.00    +0.000 OA
ATOM      3  N   UNL     1       7.644   7.786  17.772  0.00  0.00    +0.000 N 
ATOM      4  H   UNL     1       7.117   8.100  16.962  0.00  0.00    +0.000 HD
ENDROOT
BRANCH   1  10
ATOM      5  C   UNL     1       3.244   3.820  18.180  0.00  0.00    +0.000 C 
ATOM      6  C   UNL     1       4.445   4.325  17.431  0.00  0.00    +0.000 A 
ATOM      7  C   UNL     1       4.622   4.026  16.079  0.00  0.00    +0.000 A 
ATOM      8  C   UNL     1       5.724   4.526  15.382  0.00  0.00    +0.000 A 
ATOM      9  C   UNL     1       6.662   5.331  16.034  0.00  0.00    +0.000 A 
ATOM     10  C   UNL     1       6.521   5.631  17.396  0.00  0.00    +0.000 A 
ATOM     11  C   UNL     1       5.402   5.119  18.083  0.00  0.00    +0.000 A 
BRANCH   9  12
ATOM     12  O   UNL     1       7.718   5.820  15.306  0.00  0.00    +0.000 OA
ATOM     13  H   UNL     1       8.524   5.766  15.851  0.00  0.00    +0.000 HD
ENDBRANCH   9  12
ENDBRANCH   1  10
BRANCH   3  14
ATOM     14  C   UNL     1       8.548   8.683  18.462  0.00  0.00    +0.000 C 
BRANCH  14  15
ATOM     15  C   UNL     1       8.575  10.093  17.865  0.00  0.00    +0.000 C 
BRANCH  15  16
ATOM     16  C   UNL     1       9.624  10.938  18.547  0.00  0.00    +0.000 A 
ATOM     17  C   UNL     1      10.614  11.583  17.794  0.00  0.00    +0.000 A 
ATOM     18  C   UNL     1      11.649  12.273  18.427  0.00  0.00    +0.000 A 
ATOM     19  C   UNL     1      11.694  12.340  19.819  0.00  0.00    +0.000 A 
ATOM     20  C   UNL     1      10.702  11.722  20.577  0.00  0.00    +0.000 A 
ATOM     21  C   UNL     1       9.673  11.020  19.945  0.00  0.00    +0.000 A 
ENDBRANCH  15  16
ENDBRANCH  14  15
ENDBRANCH   3  14
TORSDOF 5
ENDMDL
MODEL 5
REMARK VINA RESULT:      -7.3      5.396      7.672
REMARK  Name = 
REMARK  6 active torsions:
REMARK  status: ('A' for Active; 'I' for Inactive)
REMARK    1  A    between atoms: C_1  and  C_2
REMARK    2  A    between atoms: C_5  and  O_6
REMARK    3  A    between atoms: C_7  and  C_8
REMARK    4  A    between atoms: N_10  and  C_11
REMARK    5  A    between atoms: C_11  and  C_12
REMARK    6  A    between atoms: C_12  and  C_13
REMARK                            x       y       z     vdW  Elec       q    Type
REMARK                         _______ _______ _______ _____ _____    ______ ____
ROOT
ATOM      1  C   UNL     1       7.538   6.318  18.302  0.00  0.00    +0.000 C 
ATOM      2  O   UNL     1       8.102   5.858  19.290  0.00  0.00    +0.000 OA
ATOM      3  N   UNL     1       7.729   7.616  17.878  0.00  0.00    +0.000 N 
ATOM      4  H   UNL     1       7.236   7.918  17.041  0.00  0.00    +0.000 HD
ENDROOT
BRANCH   1  10
ATOM      5  C   UNL     1       3.477   3.400  18.277  0.00  0.00    +0.000 C 
ATOM      6  C   UNL     1       4.614   4.027  17.522  0.00  0.00    +0.000 A 
ATOM      7  C   UNL     1       4.755   3.827  16.147  0.00  0.00    +0.000 A 
ATOM      8  C   UNL     1       5.796   4.440  15.446  0.00  0.00    +0.000 A 
ATOM      9  C   UNL     1       6.708   5.260  16.117  0.00  0.00    +0.000 A 
ATOM     10  C   UNL     1       6.602   5.463  17.500  0.00  0.00    +0.000 A 
ATOM     11  C   UNL     1       5.545   4.837  18.191  0.00  0.00    +0.000 A 
BRANCH   9  12
ATOM     12  O   UNL     1       7.703   5.861  15.386  0.00  0.00    +0.000 OA
ATOM     13  H   UNL     1       8.194   6.469  15.969  0.00  0.00    +0.000 HD
ENDBRANCH   9  12
ENDBRANCH   1  10
BRANCH   3  14
ATOM     14  C   UNL     1       8.612   8.520  18.584  0.00  0.00    +0.000 C 
BRANCH  14  15
ATOM     15  C   UNL     1       8.551   9.958  18.063  0.00  0.00    +0.000 C 
BRANCH  15  16
ATOM     16  C   UNL     1       9.635  10.799  18.695  0.00  0.00    +0.000 A 
ATOM     17  C   UNL     1       9.647  11.019  20.078  0.00  0.00    +0.000 A 
ATOM     18  C   UNL     1      10.580  11.884  20.650  0.00  0.00    +0.000 A 
ATOM     19  C   UNL     1      11.522  12.525  19.847  0.00  0.00    +0.000 A 
ATOM     20  C   UNL     1      11.534  12.297  18.473  0.00  0.00    +0.000 A 
ATOM     21  C   UNL     1      10.592  11.441  17.897  0.00  0.00    +0.000 A 
ENDBRANCH  15  16
ENDBRANCH  14  15
ENDBRANCH   3  14
TORSDOF 5
ENDMDL
MODEL 6
REMARK VINA RESULT:      -7.2      0.961      1.127
REMARK  Name = 
REMARK  6 active torsions:
REMARK  status: ('A' for Active; 'I' for Inactive)
REMARK    1  A    between atoms: C_1  and  C_2
REMARK    2  A    between atoms: C_5  and  O_6
REMARK    3  A    between atoms: C_7  and  C_8
REMARK    4  A    between atoms: N_10  and  C_11
REMARK    5  A    between atoms: C_11  and  C_12
REMARK    6  A    between atoms: C_12  and  C_13
REMARK                            x       y       z     vdW  Elec       q    Type
REMARK                         _______ _______ _______ _____ _____    ______ ____
ROOT
ATOM      1  C   UNL     1       5.230   4.381  16.055  0.00  0.00    +0.000 C 
ATOM      2  O   UNL     1       5.078   3.343  16.691  0.00  0.00    +0.000 OA
ATOM      3  N   UNL     1       4.829   5.609  16.536  0.00  0.00    +0.000 N 
ATOM      4  H   UNL     1       5.002   6.425  15.954  0.00  0.00    +0.000 HD
ENDROOT
BRANCH   1  10
ATOM      5  C   UNL     1       5.043   2.724  11.339  0.00  0.00    +0.000 C 
ATOM      6  C   UNL     1       5.762   3.512  12.398  0.00  0.00    +0.000 A 
ATOM      7  C   UNL     1       6.949   4.186  12.105  0.00  0.00    +0.000 A 
ATOM      8  C   UNL     1       7.593   4.943  13.086  0.00  0.00    +0.000 A 
ATOM      9  C   UNL     1       7.055   5.031  14.373  0.00  0.00    +0.000 A 
ATOM     10  C   UNL     1       5.874   4.349  14.701  0.00  0.00    +0.000 A 
ATOM     11  C   UNL     1       5.237   3.592  13.698  0.00  0.00    +0.000 A 
BRANCH   9  12
ATOM     12  O   UNL     1       7.708   5.805  15.300  0.00  0.00    +0.000 OA
ATOM     13  H   UNL     1       7.113   5.951  16.058  0.00  0.00    +0.000 HD
ENDBRANCH   9  12
ENDBRANCH   1  10
BRANCH   3  14
ATOM     14  C   UNL     1       4.197   5.744  17.831  0.00  0.00    +0.000 C 
BRANCH  14  15
ATOM     15  C   UNL     1       2.759   5.219  17.863  0.00  0.00    +0.000 C 
BRANCH  15  16
ATOM     16  C   UNL     1       2.526   4.381  19.097  0.00  0.00    +0.000 A 
ATOM     17  C   UNL     1       3.561   3.605  19.633  0.00  0.00    +0.000 A 
ATOM     18  C   UNL     1       3.320   2.745  20.705  0.00  0.00    +0.000 A 
ATOM     19  C   UNL     1       2.045   2.664  21.263  0.00  0.00    +0.000 A 
ATOM     20  C   UNL     1       1.013   3.449  20.752  0.00  0.00    +0.000 A 
ATOM     21  C   UNL     1       1.250   4.301  19.671  0.00  0.00    +0.000 A 
ENDBRANCH  15  16
ENDBRANCH  14  15
ENDBRANCH   3  14
TORSDOF 5
ENDMDL
MODEL 7
REMARK VINA RESULT:      -7.2      5.409      7.671
REMARK  Name = 
REMARK  6 active torsions:
REMARK  status: ('A' for Active; 'I' for Inactive)
REMARK    1  A    between atoms: C_1  and  C_2
REMARK    2  A    between atoms: C_5  and  O_6
REMARK    3  A    between atoms: C_7  and  C_8
REMARK    4  A    between atoms: N_10  and  C_11
REMARK    5  A    between atoms: C_11  and  C_12
REMARK    6  A    between atoms: C_12  and  C_13
REMARK                            x       y       z     vdW  Elec       q    Type
REMARK                         _______ _______ _______ _____ _____    ______ ____
ROOT
ATOM      1  C   UNL     1       7.478   6.383  18.329  0.00  0.00    +0.000 C 
ATOM      2  O   UNL     1       7.983   5.964  19.366  0.00  0.00    +0.000 OA
ATOM      3  N   UNL     1       7.760   7.633  17.820  0.00  0.00    +0.000 N 
ATOM      4  H   UNL     1       7.312   7.901  16.948  0.00  0.00    +0.000 HD
ENDROOT
BRANCH   1  10
ATOM      5  C   UNL     1       6.360   4.161  13.990  0.00  0.00    +0.000 C 
ATOM      6  C   UNL     1       5.989   4.459  15.415  0.00  0.00    +0.000 A 
ATOM      7  C   UNL     1       4.819   3.939  15.973  0.00  0.00    +0.000 A 
ATOM      8  C   UNL     1       4.498   4.194  17.308  0.00  0.00    +0.000 A 
ATOM      9  C   UNL     1       5.346   4.975  18.098  0.00  0.00    +0.000 A 
ATOM     10  C   UNL     1       6.516   5.528  17.559  0.00  0.00    +0.000 A 
ATOM     11  C   UNL     1       6.825   5.258  16.211  0.00  0.00    +0.000 A 
BRANCH   9  12
ATOM     12  O   UNL     1       5.004   5.182  19.412  0.00  0.00    +0.000 OA
ATOM     13  H   UNL     1       5.009   4.325  19.874  0.00  0.00    +0.000 HD
ENDBRANCH   9  12
ENDBRANCH   1  10
BRANCH   3  14
ATOM     14  C   UNL     1       8.676   8.533  18.489  0.00  0.00    +0.000 C 
BRANCH  14  15
ATOM     15  C   UNL     1       8.437  10.006  18.149  0.00  0.00    +0.000 C 
BRANCH  15  16
ATOM     16  C   UNL     1       9.532  10.870  18.727  0.00  0.00    +0.000 A 
ATOM     17  C   UNL     1      10.556  11.359  17.907  0.00  0.00    +0.000 A 
ATOM     18  C   UNL     1      11.628  12.064  18.456  0.00  0.00    +0.000 A 
ATOM     19  C   UNL     1      11.678  12.302  19.829  0.00  0.00    +0.000 A 
ATOM     20  C   UNL     1      10.653  11.839  20.651  0.00  0.00    +0.000 A 
ATOM     21  C   UNL     1       9.586  11.122  20.105  0.00  0.00    +0.000 A 
ENDBRANCH  15  16
ENDBRANCH  14  15
ENDBRANCH   3  14
TORSDOF 5
ENDMDL
MODEL 8
REMARK VINA RESULT:      -7.2      1.205      1.520
REMARK  Name = 
REMARK  6 active torsions:
REMARK  status: ('A' for Active; 'I' for Inactive)
REMARK    1  A    between atoms: C_1  and  C_2
REMARK    2  A    between atoms: C_5  and  O_6
REMARK    3  A    between atoms: C_7  and  C_8
REMARK    4  A    between atoms: N_10  and  C_11
REMARK    5  A    between atoms: C_11  and  C_12
REMARK    6  A    between atoms: C_12  and  C_13
REMARK                            x       y       z     vdW  Elec       q    Type
REMARK                         _______ _______ _______ _____ _____    ______ ____
ROOT
ATOM      1  C   UNL     1       5.421   4.120  16.252  0.00  0.00    +0.000 C 
ATOM      2  O   UNL     1       4.224   3.892  16.386  0.00  0.00    +0.000 OA
ATOM      3  N   UNL     1       6.267   4.297  17.327  0.00  0.00    +0.000 N 
ATOM      4  H   UNL     1       7.250   4.468  17.133  0.00  0.00    +0.000 HD
ENDROOT
BRANCH   1  10
ATOM      5  C   UNL     1       5.314   2.589  11.491  0.00  0.00    +0.000 C 
ATOM      6  C   UNL     1       5.953   3.434  12.556  0.00  0.00    +0.000 A 
ATOM      7  C   UNL     1       7.032   4.268  12.254  0.00  0.00    +0.000 A 
ATOM      8  C   UNL     1       7.600   5.076  13.242  0.00  0.00    +0.000 A 
ATOM      9  C   UNL     1       7.093   5.055  14.545  0.00  0.00    +0.000 A 
ATOM     10  C   UNL     1       6.024   4.213  14.881  0.00  0.00    +0.000 A 
ATOM     11  C   UNL     1       5.462   3.406  13.871  0.00  0.00    +0.000 A 
BRANCH   9  12
ATOM     12  O   UNL     1       7.666   5.881  15.480  0.00  0.00    +0.000 OA
ATOM     13  H   UNL     1       7.694   5.413  16.334  0.00  0.00    +0.000 HD
ENDBRANCH   9  12
ENDBRANCH   1  10
BRANCH   3  14
ATOM     14  C   UNL     1       5.781   4.226  18.689  0.00  0.00    +0.000 C 
BRANCH  14  15
ATOM     15  C   UNL     1       4.764   5.317  19.028  0.00  0.00    +0.000 C 
BRANCH  15  16
ATOM     16  C   UNL     1       3.532   4.718  19.664  0.00  0.00    +0.000 A 
ATOM     17  C   UNL     1       3.409   3.329  19.801  0.00  0.00    +0.000 A 
ATOM     18  C   UNL     1       2.228   2.767  20.286  0.00  0.00    +0.000 A 
ATOM     19  C   UNL     1       1.163   3.588  20.655  0.00  0.00    +0.000 A 
ATOM     20  C   UNL     1       1.283   4.972  20.544  0.00  0.00    +0.000 A 
ATOM     21  C   UNL     1       2.460   5.535  20.047  0.00  0.00    +0.000 A 
ENDBRANCH  15  16
ENDBRANCH  14  15
ENDBRANCH   3  14
TORSDOF 5
ENDMDL
MODEL 9
REMARK VINA RESULT:      -7.2      5.467      7.670
REMARK  Name = 
REMARK  6 active torsions:
REMARK  status: ('A' for Active; 'I' for Inactive)
REMARK    1  A    between atoms: C_1  and  C_2
REMARK    2  A    between atoms: C_5  and  O_6
REMARK    3  A    between atoms: C_7  and  C_8
REMARK    4  A    between atoms: N_10  and  C_11
REMARK    5  A    between atoms: C_11  and  C_12
REMARK    6  A    between atoms: C_12  and  C_13
REMARK                            x       y       z     vdW  Elec       q    Type
REMARK                         _______ _______ _______ _____ _____    ______ ____
ROOT
ATOM      1  C   UNL     1       7.506   6.432  18.295  0.00  0.00    +0.000 C 
ATOM      2  O   UNL     1       8.024   5.987  19.314  0.00  0.00    +0.000 OA
ATOM      3  N   UNL     1       7.740   7.715  17.846  0.00  0.00    +0.000 N 
ATOM      4  H   UNL     1       7.284   8.005  16.985  0.00  0.00    +0.000 HD
ENDROOT
BRANCH   1  10
ATOM      5  C   UNL     1       6.498   4.358  13.857  0.00  0.00    +0.000 C 
ATOM      6  C   UNL     1       6.107   4.582  15.290  0.00  0.00    +0.000 A 
ATOM      7  C   UNL     1       4.954   3.995  15.817  0.00  0.00    +0.000 A 
ATOM      8  C   UNL     1       4.615   4.182  17.158  0.00  0.00    +0.000 A 
ATOM      9  C   UNL     1       5.428   4.959  17.988  0.00  0.00    +0.000 A 
ATOM     10  C   UNL     1       6.581   5.576  17.482  0.00  0.00    +0.000 A 
ATOM     11  C   UNL     1       6.908   5.376  16.126  0.00  0.00    +0.000 A 
BRANCH   9  12
ATOM     12  O   UNL     1       5.070   5.098  19.306  0.00  0.00    +0.000 OA
ATOM     13  H   UNL     1       4.415   5.815  19.378  0.00  0.00    +0.000 HD
ENDBRANCH   9  12
ENDBRANCH   1  10
BRANCH   3  14
ATOM     14  C   UNL     1       8.617   8.618  18.560  0.00  0.00    +0.000 C 
BRANCH  14  15
ATOM     15  C   UNL     1       8.597  10.046  18.009  0.00  0.00    +0.000 C 
BRANCH  15  16
ATOM     16  C   UNL     1       9.698  10.871  18.631  0.00  0.00    +0.000 A 
ATOM     17  C   UNL     1       9.761  11.037  20.020  0.00  0.00    +0.000 A 
ATOM     18  C   UNL     1      10.709  11.889  20.590  0.00  0.00    +0.000 A 
ATOM     19  C   UNL     1      11.615  12.569  19.777  0.00  0.00    +0.000 A 
ATOM     20  C   UNL     1      11.575  12.394  18.395  0.00  0.00    +0.000 A 
ATOM     21  C   UNL     1      10.619  11.552  17.823  0.00  0.00    +0.000 A 
ENDBRANCH  15  16
ENDBRANCH  14  15
ENDBRANCH   3  14
TORSDOF 5
ENDMDL
