MODEL 1
REMARK VINA RESULT:      -7.2      0.000      0.000
REMARK  Name = 
REMARK  8 active torsions:
REMARK  status: ('A' for Active; 'I' for Inactive)
REMARK    1  A    between atoms: C_1  and  C_2
REMARK    2  A    between atoms: C_2  and  C_3
REMARK    3  A    between atoms: C_8  and  C_9
REMARK    4  A    between atoms: C_9  and  O_10
REMARK    5  A    between atoms: O_10  and  S_11
REMARK    6  A    between atoms: S_11  and  N_12
REMARK    7  A    between atoms: C_16  and  C_17
REMARK    8  A    between atoms: C_16  and  C_18
REMARK                            x       y       z     vdW  Elec       q    Type
REMARK                         _______ _______ _______ _____ _____    ______ ____
ROOT
ATOM      1  C   UNL     1       5.544   7.122  17.270  0.00  0.00    +0.000 C 
ATOM      2  C   UNL     1       6.111   5.905  18.021  0.00  0.00    +0.000 C 
ATOM      3  C   UNL     1       7.565   6.221  18.349  0.00  0.00    +0.000 C 
ATOM      4  O   UNL     1       6.046   4.733  17.194  0.00  0.00    +0.000 OA
ATOM      5  C   UNL     1       4.922   3.983  17.682  0.00  0.00    +0.000 C 
ATOM      6  C   UNL     1       3.680   4.439  16.915  0.00  0.00    +0.000 C 
ATOM      7  C   UNL     1       2.387   4.439  17.710  0.00  0.00    +0.000 C 
ATOM      8  C   UNL     1       2.454   4.833  19.201  0.00  0.00    +0.000 C 
ATOM      9  O   UNL     1       1.283   4.295  19.857  0.00  0.00    +0.000 OA
ATOM     10  C   UNL     1       1.598   2.922  20.147  0.00  0.00    +0.000 C 
ATOM     11  C   UNL     1       0.696   2.028  19.282  0.00  0.00    +0.000 C 
ATOM     12  C   UNL     1       1.236   2.627  21.605  0.00  0.00    +0.000 C 
ATOM     13  O   UNL     1       3.021   2.722  19.902  0.00  0.00    +0.000 OA
ATOM     14  C   UNL     1       3.576   4.065  19.884  0.00  0.00    +0.000 C 
ATOM     15  C   UNL     1       4.928   4.269  19.168  0.00  0.00    +0.000 C 
ATOM     16  O   UNL     1       5.373   5.651  19.231  0.00  0.00    +0.000 OA
ENDROOT
BRANCH   8  17
ATOM     17  C   UNL     1       2.528   6.332  19.511  0.00  0.00    +0.000 C 
BRANCH  17  18
ATOM     18  O   UNL     1       1.902   6.654  20.742  0.00  0.00    +0.000 OA
BRANCH  18  19
ATOM     19  S   UNL     1       1.226   8.136  20.827  0.00  0.00    +0.000 S 
ATOM     20  O   UNL     1       1.592   8.857  19.631  0.00  0.00    +0.000 OA
ATOM     21  O   UNL     1      -0.141   7.974  21.260  0.00  0.00    +0.000 OA
BRANCH  19  22
ATOM     22  N   UNL     1       2.073   8.811  22.088  0.00  0.00    +0.000 NA
ATOM     23  H   UNL     1       1.479   8.877  22.911  0.00  0.00    +0.000 HD
ATOM     24  H   UNL     1       2.490   9.699  21.809  0.00  0.00    +0.000 HD
ENDBRANCH  19  22
ENDBRANCH  18  19
ENDBRANCH  17  18
ENDBRANCH   8  17
TORSDOF 4
ENDMDL
MODEL 2
REMARK VINA RESULT:      -7.2      3.234      6.218
REMARK  Name = 
REMARK  8 active torsions:
REMARK  status: ('A' for Active; 'I' for Inactive)
REMARK    1  A    between atoms: C_1  and  C_2
REMARK    2  A    between atoms: C_2  and  C_3
REMARK    3  A    between atoms: C_8  and  C_9
REMARK    4  A    between atoms: C_9  and  O_10
REMARK    5  A    between atoms: O_10  and  S_11
REMARK    6  A    between atoms: S_11  and  N_12
REMARK    7  A    between atoms: C_16  and  C_17
REMARK    8  A    between atoms: C_16  and  C_18
REMARK                            x       y       z     vdW  Elec       q    Type
REMARK                         _______ _______ _______ _____ _____    ______ ____
ROOT
ATOM      1  C   UNL     1       1.295   4.194  17.550  0.00  0.00    +0.000 C 
ATOM      2  C   UNL     1       1.874   4.079  18.971  0.00  0.00    +0.000 C 
ATOM      3  C   UNL     1       0.954   3.152  19.755  0.00  0.00    +0.000 C 
ATOM      4  O   UNL     1       1.911   5.369  19.600  0.00  0.00    +0.000 OA
ATOM      5  C   UNL     1       3.283   5.790  19.527  0.00  0.00    +0.000 C 
ATOM      6  C   UNL     1       3.470   6.564  18.220  0.00  0.00    +0.000 C 
ATOM      7  C   UNL     1       4.827   6.404  17.559  0.00  0.00    +0.000 C 
ATOM      8  C   UNL     1       5.516   5.025  17.644  0.00  0.00    +0.000 C 
ATOM      9  O   UNL     1       6.931   5.220  17.422  0.00  0.00    +0.000 OA
ATOM     10  C   UNL     1       7.469   5.630  18.691  0.00  0.00    +0.000 C 
ATOM     11  C   UNL     1       7.934   7.090  18.568  0.00  0.00    +0.000 C 
ATOM     12  C   UNL     1       8.718   4.798  18.993  0.00  0.00    +0.000 C 
ATOM     13  O   UNL     1       6.440   5.432  19.705  0.00  0.00    +0.000 OA
ATOM     14  C   UNL     1       5.489   4.526  19.081  0.00  0.00    +0.000 C 
ATOM     15  C   UNL     1       4.055   4.495  19.651  0.00  0.00    +0.000 C 
ATOM     16  O   UNL     1       3.211   3.546  18.945  0.00  0.00    +0.000 OA
ENDROOT
BRANCH   8  17
ATOM     17  C   UNL     1       5.023   3.952  16.667  0.00  0.00    +0.000 C 
BRANCH  17  18
ATOM     18  O   UNL     1       6.040   3.544  15.765  0.00  0.00    +0.000 OA
BRANCH  18  19
ATOM     19  S   UNL     1       6.141   4.398  14.379  0.00  0.00    +0.000 S 
ATOM     20  O   UNL     1       6.345   3.461  13.299  0.00  0.00    +0.000 OA
ATOM     21  O   UNL     1       5.079   5.374  14.384  0.00  0.00    +0.000 OA
BRANCH  19  22
ATOM     22  N   UNL     1       7.572   5.213  14.600  0.00  0.00    +0.000 NA
ATOM     23  H   UNL     1       7.603   6.033  13.998  0.00  0.00    +0.000 HD
ATOM     24  H   UNL     1       8.367   4.586  14.483  0.00  0.00    +0.000 HD
ENDBRANCH  19  22
ENDBRANCH  18  19
ENDBRANCH  17  18
ENDBRANCH   8  17
TORSDOF 4
ENDMDL
MODEL 3
REMARK VINA RESULT:      -7.0      1.499      1.766
REMARK  Name = 
REMARK  8 active torsions:
REMARK  status: ('A' for Active; 'I' for Inactive)
REMARK    1  A    between atoms: C_1  and  C_2
REMARK    2  A    between atoms: C_2  and  C_3
REMARK    3  A    between atoms: C_8  and  C_9
REMARK    4  A    between atoms: C_9  and  O_10
REMARK    5  A    between atoms: O_10  and  S_11
REMARK    6  A    between atoms: S_11  and  N_12
REMARK    7  A    between atoms: C_16  and  C_17
REMARK    8  A    between atoms: C_16  and  C_18
REMARK                            x       y       z     vdW  Elec       q    Type
REMARK                         _______ _______ _______ _____ _____    ______ ____
ROOT
ATOM      1  C   UNL     1       6.195   7.042  17.202  0.00  0.00    +0.000 C 
ATOM      2  C   UNL     1       6.586   5.888  18.140  0.00  0.00    +0.000 C 
ATOM      3  C   UNL     1       7.974   6.205  18.683  0.00  0.00    +0.000 C 
ATOM      4  O   UNL     1       6.621   4.648  17.419  0.00  0.00    +0.000 OA
ATOM      5  C   UNL     1       5.407   3.966  17.771  0.00  0.00    +0.000 C 
ATOM      6  C   UNL     1       4.327   4.373  16.767  0.00  0.00    +0.000 C 
ATOM      7  C   UNL     1       2.920   4.469  17.328  0.00  0.00    +0.000 C 
ATOM      8  C   UNL     1       2.749   4.995  18.769  0.00  0.00    +0.000 C 
ATOM      9  O   UNL     1       1.467   4.541  19.259  0.00  0.00    +0.000 OA
ATOM     10  C   UNL     1       1.682   3.195  19.717  0.00  0.00    +0.000 C 
ATOM     11  C   UNL     1       0.908   2.242  18.790  0.00  0.00    +0.000 C 
ATOM     12  C   UNL     1       1.071   3.040  21.112  0.00  0.00    +0.000 C 
ATOM     13  O   UNL     1       3.119   2.947  19.735  0.00  0.00    +0.000 OA
ATOM     14  C   UNL     1       3.714   4.272  19.697  0.00  0.00    +0.000 C 
ATOM     15  C   UNL     1       5.173   4.385  19.206  0.00  0.00    +0.000 C 
ATOM     16  O   UNL     1       5.647   5.759  19.225  0.00  0.00    +0.000 OA
ENDROOT
BRANCH   8  17
ATOM     17  C   UNL     1       2.820   6.515  18.956  0.00  0.00    +0.000 C 
BRANCH  17  18
ATOM     18  O   UNL     1       1.970   7.204  18.053  0.00  0.00    +0.000 OA
BRANCH  18  19
ATOM     19  S   UNL     1       1.812   8.807  18.312  0.00  0.00    +0.000 S 
ATOM     20  O   UNL     1       1.498   8.999  19.708  0.00  0.00    +0.000 OA
ATOM     21  O   UNL     1       2.911   9.470  17.654  0.00  0.00    +0.000 OA
BRANCH  19  22
ATOM     22  N   UNL     1       0.434   9.143  17.446  0.00  0.00    +0.000 NA
ATOM     23  H   UNL     1      -0.328   9.377  18.080  0.00  0.00    +0.000 HD
ATOM     24  H   UNL     1       0.216   8.383  16.803  0.00  0.00    +0.000 HD
ENDBRANCH  19  22
ENDBRANCH  18  19
ENDBRANCH  17  18
ENDBRANCH   8  17
TORSDOF 4
ENDMDL
MODEL 4
REMARK VINA RESULT:      -6.8      2.939      5.627
REMARK  Name = 
REMARK  8 active torsions:
REMARK  status: ('A' for Active; 'I' for Inactive)
REMARK    1  A    between atoms: C_1  and  C_2
REMARK    2  A    between atoms: C_2  and  C_3
REMARK    3  A    between atoms: C_8  and  C_9
REMARK    4  A    between atoms: C_9  and  O_10
REMARK    5  A    between atoms: O_10  and  S_11
REMARK    6  A    between atoms: S_11  and  N_12
REMARK    7  A    between atoms: C_16  and  C_17
REMARK    8  A    between atoms: C_16  and  C_18
REMARK                            x       y       z     vdW  Elec       q    Type
REMARK                         _______ _______ _______ _____ _____    ______ ____
ROOT
ATOM      1  C   UNL     1       2.335   4.136  20.893  0.00  0.00    +0.000 C 
ATOM      2  C   UNL     1       2.140   5.370  19.996  0.00  0.00    +0.000 C 
ATOM      3  C   UNL     1       1.469   6.440  20.849  0.00  0.00    +0.000 C 
ATOM      4  O   UNL     1       1.302   5.047  18.877  0.00  0.00    +0.000 OA
ATOM      5  C   UNL     1       2.194   4.898  17.761  0.00  0.00    +0.000 C 
ATOM      6  C   UNL     1       2.628   3.432  17.696  0.00  0.00    +0.000 C 
ATOM      7  C   UNL     1       4.047   3.195  17.213  0.00  0.00    +0.000 C 
ATOM      8  C   UNL     1       5.132   4.213  17.623  0.00  0.00    +0.000 C 
ATOM      9  O   UNL     1       6.228   4.097  16.688  0.00  0.00    +0.000 OA
ATOM     10  C   UNL     1       5.845   4.881  15.545  0.00  0.00    +0.000 C 
ATOM     11  C   UNL     1       5.620   3.926  14.361  0.00  0.00    +0.000 C 
ATOM     12  C   UNL     1       7.012   5.792  15.154  0.00  0.00    +0.000 C 
ATOM     13  O   UNL     1       4.663   5.655  15.901  0.00  0.00    +0.000 OA
ATOM     14  C   UNL     1       4.637   5.626  17.353  0.00  0.00    +0.000 C 
ATOM     15  C   UNL     1       3.287   5.903  18.048  0.00  0.00    +0.000 C 
ATOM     16  O   UNL     1       3.401   5.853  19.497  0.00  0.00    +0.000 OA
ENDROOT
BRANCH   8  17
ATOM     17  C   UNL     1       5.698   4.076  19.041  0.00  0.00    +0.000 C 
BRANCH  17  18
ATOM     18  O   UNL     1       6.251   5.294  19.515  0.00  0.00    +0.000 OA
BRANCH  18  19
ATOM     19  S   UNL     1       7.863   5.461  19.325  0.00  0.00    +0.000 S 
ATOM     20  O   UNL     1       8.336   4.332  18.559  0.00  0.00    +0.000 OA
ATOM     21  O   UNL     1       8.123   6.829  18.950  0.00  0.00    +0.000 OA
BRANCH  19  22
ATOM     22  N   UNL     1       8.399   5.259  20.884  0.00  0.00    +0.000 NA
ATOM     23  H   UNL     1       7.991   5.969  21.488  0.00  0.00    +0.000 HD
ATOM     24  H   UNL     1       9.418   5.228  20.915  0.00  0.00    +0.000 HD
ENDBRANCH  19  22
ENDBRANCH  18  19
ENDBRANCH  17  18
ENDBRANCH   8  17
TORSDOF 4
ENDMDL
MODEL 5
REMARK VINA RESULT:      -6.5      3.376      6.301
REMARK  Name = 
REMARK  8 active torsions:
REMARK  status: ('A' for Active; 'I' for Inactive)
REMARK    1  A    between atoms: C_1  and  C_2
REMARK    2  A    between atoms: C_2  and  C_3
REMARK    3  A    between atoms: C_8  and  C_9
REMARK    4  A    between atoms: C_9  and  O_10
REMARK    5  A    between atoms: O_10  and  S_11
REMARK    6  A    between atoms: S_11  and  N_12
REMARK    7  A    between atoms: C_16  and  C_17
REMARK    8  A    between atoms: C_16  and  C_18
REMARK                            x       y       z     vdW  Elec       q    Type
REMARK                         _______ _______ _______ _____ _____    ______ ____
ROOT
ATOM      1  C   UNL     1       0.995   4.404  17.462  0.00  0.00    +0.000 C 
ATOM      2  C   UNL     1       1.719   3.717  18.632  0.00  0.00    +0.000 C 
ATOM      3  C   UNL     1       0.864   2.528  19.051  0.00  0.00    +0.000 C 
ATOM      4  O   UNL     1       1.860   4.625  19.735  0.00  0.00    +0.000 OA
ATOM      5  C   UNL     1       3.226   5.065  19.696  0.00  0.00    +0.000 C 
ATOM      6  C   UNL     1       3.294   6.319  18.821  0.00  0.00    +0.000 C 
ATOM      7  C   UNL     1       4.567   6.477  18.010  0.00  0.00    +0.000 C 
ATOM      8  C   UNL     1       5.223   5.203  17.435  0.00  0.00    +0.000 C 
ATOM      9  O   UNL     1       6.611   5.502  17.162  0.00  0.00    +0.000 OA
ATOM     10  C   UNL     1       7.293   5.353  18.420  0.00  0.00    +0.000 C 
ATOM     11  C   UNL     1       7.782   6.740  18.869  0.00  0.00    +0.000 C 
ATOM     12  C   UNL     1       8.544   4.496  18.208  0.00  0.00    +0.000 C 
ATOM     13  O   UNL     1       6.373   4.728  19.363  0.00  0.00    +0.000 OA
ATOM     14  C   UNL     1       5.337   4.149  18.525  0.00  0.00    +0.000 C 
ATOM     15  C   UNL     1       3.972   3.853  19.182  0.00  0.00    +0.000 C 
ATOM     16  O   UNL     1       3.031   3.270  18.240  0.00  0.00    +0.000 OA
ENDROOT
BRANCH   8  17
ATOM     17  C   UNL     1       4.599   4.628  16.158  0.00  0.00    +0.000 C 
BRANCH  17  18
ATOM     18  O   UNL     1       5.105   5.253  14.989  0.00  0.00    +0.000 OA
BRANCH  18  19
ATOM     19  S   UNL     1       6.148   4.362  14.105  0.00  0.00    +0.000 S 
ATOM     20  O   UNL     1       5.402   3.744  13.035  0.00  0.00    +0.000 OA
ATOM     21  O   UNL     1       7.329   5.159  13.882  0.00  0.00    +0.000 OA
BRANCH  19  22
ATOM     22  N   UNL     1       6.549   3.163  15.183  0.00  0.00    +0.000 NA
ATOM     23  H   UNL     1       7.555   3.157  15.340  0.00  0.00    +0.000 HD
ATOM     24  H   UNL     1       6.175   2.264  14.880  0.00  0.00    +0.000 HD
ENDBRANCH  19  22
ENDBRANCH  18  19
ENDBRANCH  17  18
ENDBRANCH   8  17
TORSDOF 4
ENDMDL
MODEL 6
REMARK VINA RESULT:      -6.4      2.021      4.634
REMARK  Name = 
REMARK  8 active torsions:
REMARK  status: ('A' for Active; 'I' for Inactive)
REMARK    1  A    between atoms: C_1  and  C_2
REMARK    2  A    between atoms: C_2  and  C_3
REMARK    3  A    between atoms: C_8  and  C_9
REMARK    4  A    between atoms: C_9  and  O_10
REMARK    5  A    between atoms: O_10  and  S_11
REMARK    6  A    between atoms: S_11  and  N_12
REMARK    7  A    between atoms: C_16  and  C_17
REMARK    8  A    between atoms: C_16  and  C_18
REMARK                            x       y       z     vdW  Elec       q    Type
REMARK                         _______ _______ _______ _____ _____    ______ ____
ROOT
ATOM      1  C   UNL     1       2.058   4.899  20.916  0.00  0.00    +0.000 C 
ATOM      2  C   UNL     1       2.282   3.567  20.180  0.00  0.00    +0.000 C 
ATOM      3  C   UNL     1       1.158   2.629  20.603  0.00  0.00    +0.000 C 
ATOM      4  O   UNL     1       3.548   2.999  20.546  0.00  0.00    +0.000 OA
ATOM      5  C   UNL     1       4.424   3.275  19.442  0.00  0.00    +0.000 C 
ATOM      6  C   UNL     1       5.098   4.624  19.698  0.00  0.00    +0.000 C 
ATOM      7  C   UNL     1       5.377   5.457  18.460  0.00  0.00    +0.000 C 
ATOM      8  C   UNL     1       4.349   5.411  17.309  0.00  0.00    +0.000 C 
ATOM      9  O   UNL     1       5.018   5.831  16.098  0.00  0.00    +0.000 OA
ATOM     10  C   UNL     1       5.700   4.663  15.609  0.00  0.00    +0.000 C 
ATOM     11  C   UNL     1       7.214   4.906  15.727  0.00  0.00    +0.000 C 
ATOM     12  C   UNL     1       5.399   4.501  14.116  0.00  0.00    +0.000 C 
ATOM     13  O   UNL     1       5.235   3.513  16.373  0.00  0.00    +0.000 OA
ATOM     14  C   UNL     1       4.000   3.965  16.991  0.00  0.00    +0.000 C 
ATOM     15  C   UNL     1       3.507   3.206  18.240  0.00  0.00    +0.000 C 
ATOM     16  O   UNL     1       2.261   3.753  18.752  0.00  0.00    +0.000 OA
ENDROOT
BRANCH   8  17
ATOM     17  C   UNL     1       3.091   6.270  17.481  0.00  0.00    +0.000 C 
BRANCH  17  18
ATOM     18  O   UNL     1       3.401   7.603  17.853  0.00  0.00    +0.000 OA
BRANCH  18  19
ATOM     19  S   UNL     1       2.123   8.576  18.134  0.00  0.00    +0.000 S 
ATOM     20  O   UNL     1       2.567   9.942  17.981  0.00  0.00    +0.000 OA
ATOM     21  O   UNL     1       0.990   8.033  17.425  0.00  0.00    +0.000 OA
BRANCH  19  22
ATOM     22  N   UNL     1       1.867   8.321  19.756  0.00  0.00    +0.000 NA
ATOM     23  H   UNL     1       1.554   9.182  20.200  0.00  0.00    +0.000 HD
ATOM     24  H   UNL     1       2.692   7.910  20.192  0.00  0.00    +0.000 HD
ENDBRANCH  19  22
ENDBRANCH  18  19
ENDBRANCH  17  18
ENDBRANCH   8  17
TORSDOF 4
ENDMDL
MODEL 7
REMARK VINA RESULT:      -6.4      1.828      4.789
REMARK  Name = 
REMARK  8 active torsions:
REMARK  status: ('A' for Active; 'I' for Inactive)
REMARK    1  A    between atoms: C_1  and  C_2
REMARK    2  A    between atoms: C_2  and  C_3
REMARK    3  A    between atoms: C_8  and  C_9
REMARK    4  A    between atoms: C_9  and  O_10
REMARK    5  A    between atoms: O_10  and  S_11
REMARK    6  A    between atoms: S_11  and  N_12
REMARK    7  A    between atoms: C_16  and  C_17
REMARK    8  A    between atoms: C_16  and  C_18
REMARK                            x       y       z     vdW  Elec       q    Type
REMARK                         _______ _______ _______ _____ _____    ______ ____
ROOT
ATOM      1  C   UNL     1       1.114   3.942  20.457  0.00  0.00    +0.000 C 
ATOM      2  C   UNL     1       1.548   3.099  19.245  0.00  0.00    +0.000 C 
ATOM      3  C   UNL     1       0.402   2.147  18.929  0.00  0.00    +0.000 C 
ATOM      4  O   UNL     1       2.730   2.347  19.558  0.00  0.00    +0.000 OA
ATOM      5  C   UNL     1       3.810   3.052  18.926  0.00  0.00    +0.000 C 
ATOM      6  C   UNL     1       4.353   4.077  19.923  0.00  0.00    +0.000 C 
ATOM      7  C   UNL     1       4.856   5.374  19.314  0.00  0.00    +0.000 C 
ATOM      8  C   UNL     1       4.102   5.939  18.091  0.00  0.00    +0.000 C 
ATOM      9  O   UNL     1       4.996   6.834  17.392  0.00  0.00    +0.000 OA
ATOM     10  C   UNL     1       5.819   5.992  16.566  0.00  0.00    +0.000 C 
ATOM     11  C   UNL     1       7.259   6.054  17.100  0.00  0.00    +0.000 C 
ATOM     12  C   UNL     1       5.854   6.569  15.148  0.00  0.00    +0.000 C 
ATOM     13  O   UNL     1       5.251   4.650  16.580  0.00  0.00    +0.000 OA
ATOM     14  C   UNL     1       3.893   4.837  17.063  0.00  0.00    +0.000 C 
ATOM     15  C   UNL     1       3.177   3.613  17.672  0.00  0.00    +0.000 C 
ATOM     16  O   UNL     1       1.827   3.935  18.106  0.00  0.00    +0.000 OA
ENDROOT
BRANCH   8  17
ATOM     17  C   UNL     1       2.799   6.695  18.379  0.00  0.00    +0.000 C 
BRANCH  17  18
ATOM     18  O   UNL     1       2.726   7.920  17.668  0.00  0.00    +0.000 OA
BRANCH  18  19
ATOM     19  S   UNL     1       1.589   8.971  18.184  0.00  0.00    +0.000 S 
ATOM     20  O   UNL     1       0.397   8.750  17.400  0.00  0.00    +0.000 OA
ATOM     21  O   UNL     1       1.596   8.955  19.626  0.00  0.00    +0.000 OA
BRANCH  19  22
ATOM     22  N   UNL     1       2.238  10.421  17.696  0.00  0.00    +0.000 NA
ATOM     23  H   UNL     1       1.559  10.938  17.143  0.00  0.00    +0.000 HD
ATOM     24  H   UNL     1       3.130  10.277  17.223  0.00  0.00    +0.000 HD
ENDBRANCH  19  22
ENDBRANCH  18  19
ENDBRANCH  17  18
ENDBRANCH   8  17
TORSDOF 4
ENDMDL
MODEL 8
REMARK VINA RESULT:      -6.3      2.880      4.477
REMARK  Name = 
REMARK  8 active torsions:
REMARK  status: ('A' for Active; 'I' for Inactive)
REMARK    1  A    between atoms: C_1  and  C_2
REMARK    2  A    between atoms: C_2  and  C_3
REMARK    3  A    between atoms: C_8  and  C_9
REMARK    4  A    between atoms: C_9  and  O_10
REMARK    5  A    between atoms: O_10  and  S_11
REMARK    6  A    between atoms: S_11  and  N_12
REMARK    7  A    between atoms: C_16  and  C_17
REMARK    8  A    between atoms: C_16  and  C_18
REMARK                            x       y       z     vdW  Elec       q    Type
REMARK                         _______ _______ _______ _____ _____    ______ ____
ROOT
ATOM      1  C   UNL     1       7.532   4.609  15.940  0.00  0.00    +0.000 C 
ATOM      2  C   UNL     1       6.141   4.643  15.284  0.00  0.00    +0.000 C 
ATOM      3  C   UNL     1       6.257   3.915  13.951  0.00  0.00    +0.000 C 
ATOM      4  O   UNL     1       5.727   5.999  15.061  0.00  0.00    +0.000 OA
ATOM      5  C   UNL     1       4.781   6.287  16.103  0.00  0.00    +0.000 C 
ATOM      6  C   UNL     1       5.552   6.853  17.298  0.00  0.00    +0.000 C 
ATOM      7  C   UNL     1       4.997   6.487  18.662  0.00  0.00    +0.000 C 
ATOM      8  C   UNL     1       4.390   5.079  18.843  0.00  0.00    +0.000 C 
ATOM      9  O   UNL     1       3.506   5.119  19.987  0.00  0.00    +0.000 OA
ATOM     10  C   UNL     1       2.264   5.653  19.496  0.00  0.00    +0.000 C 
ATOM     11  C   UNL     1       2.051   7.037  20.132  0.00  0.00    +0.000 C 
ATOM     12  C   UNL     1       1.115   4.767  19.985  0.00  0.00    +0.000 C 
ATOM     13  O   UNL     1       2.328   5.686  18.040  0.00  0.00    +0.000 OA
ATOM     14  C   UNL     1       3.421   4.789  17.707  0.00  0.00    +0.000 C 
ATOM     15  C   UNL     1       4.089   4.960  16.326  0.00  0.00    +0.000 C 
ATOM     16  O   UNL     1       5.159   3.998  16.117  0.00  0.00    +0.000 OA
ENDROOT
BRANCH   8  17
ATOM     17  C   UNL     1       5.381   3.927  19.047  0.00  0.00    +0.000 C 
BRANCH  17  18
ATOM     18  O   UNL     1       5.332   3.408  20.366  0.00  0.00    +0.000 OA
BRANCH  18  19
ATOM     19  S   UNL     1       4.570   1.976  20.535  0.00  0.00    +0.000 S 
ATOM     20  O   UNL     1       4.064   1.589  19.239  0.00  0.00    +0.000 OA
ATOM     21  O   UNL     1       5.411   1.121  21.338  0.00  0.00    +0.000 OA
BRANCH  19  22
ATOM     22  N   UNL     1       3.263   2.408  21.466  0.00  0.00    +0.000 NA
ATOM     23  H   UNL     1       2.421   2.431  20.895  0.00  0.00    +0.000 HD
ATOM     24  H   UNL     1       3.446   3.279  21.964  0.00  0.00    +0.000 HD
ENDBRANCH  19  22
ENDBRANCH  18  19
ENDBRANCH  17  18
ENDBRANCH   8  17
TORSDOF 4
ENDMDL
MODEL 9
REMARK VINA RESULT:      -6.3      2.999      5.704
REMARK  Name = 
REMARK  8 active torsions:
REMARK  status: ('A' for Active; 'I' for Inactive)
REMARK    1  A    between atoms: C_1  and  C_2
REMARK    2  A    between atoms: C_2  and  C_3
REMARK    3  A    between atoms: C_8  and  C_9
REMARK    4  A    between atoms: C_9  and  O_10
REMARK    5  A    between atoms: O_10  and  S_11
REMARK    6  A    between atoms: S_11  and  N_12
REMARK    7  A    between atoms: C_16  and  C_17
REMARK    8  A    between atoms: C_16  and  C_18
REMARK                            x       y       z     vdW  Elec       q    Type
REMARK                         _______ _______ _______ _____ _____    ______ ____
ROOT
ATOM      1  C   UNL     1       2.531   2.860  20.845  0.00  0.00    +0.000 C 
ATOM      2  C   UNL     1       1.875   3.852  19.869  0.00  0.00    +0.000 C 
ATOM      3  C   UNL     1       0.793   4.592  20.646  0.00  0.00    +0.000 C 
ATOM      4  O   UNL     1       1.284   3.151  18.765  0.00  0.00    +0.000 OA
ATOM      5  C   UNL     1       2.197   3.324  17.669  0.00  0.00    +0.000 C 
ATOM      6  C   UNL     1       3.199   2.169  17.702  0.00  0.00    +0.000 C 
ATOM      7  C   UNL     1       4.605   2.515  17.248  0.00  0.00    +0.000 C 
ATOM      8  C   UNL     1       5.158   3.912  17.603  0.00  0.00    +0.000 C 
ATOM      9  O   UNL     1       6.236   4.210  16.687  0.00  0.00    +0.000 OA
ATOM     10  C   UNL     1       5.604   4.702  15.492  0.00  0.00    +0.000 C 
ATOM     11  C   UNL     1       5.834   3.677  14.370  0.00  0.00    +0.000 C 
ATOM     12  C   UNL     1       6.304   5.992  15.056  0.00  0.00    +0.000 C 
ATOM     13  O   UNL     1       4.196   4.934  15.788  0.00  0.00    +0.000 OA
ATOM     14  C   UNL     1       4.133   4.976  17.239  0.00  0.00    +0.000 C 
ATOM     15  C   UNL     1       2.766   4.707  17.902  0.00  0.00    +0.000 C 
ATOM     16  O   UNL     1       2.841   4.787  19.352  0.00  0.00    +0.000 OA
ENDROOT
BRANCH   8  17
ATOM     17  C   UNL     1       5.680   4.099  19.032  0.00  0.00    +0.000 C 
BRANCH  17  18
ATOM     18  O   UNL     1       6.181   5.408  19.250  0.00  0.00    +0.000 OA
BRANCH  18  19
ATOM     19  S   UNL     1       7.806   5.554  19.249  0.00  0.00    +0.000 S 
ATOM     20  O   UNL     1       8.350   4.416  18.546  0.00  0.00    +0.000 OA
ATOM     21  O   UNL     1       8.126   6.918  18.904  0.00  0.00    +0.000 OA
BRANCH  19  22
ATOM     22  N   UNL     1       8.154   5.350  20.861  0.00  0.00    +0.000 NA
ATOM     23  H   UNL     1       8.576   6.197  21.236  0.00  0.00    +0.000 HD
ATOM     24  H   UNL     1       8.716   4.511  21.006  0.00  0.00    +0.000 HD
ENDBRANCH  19  22
ENDBRANCH  18  19
ENDBRANCH  17  18
ENDBRANCH   8  17
TORSDOF 4
ENDMDL
