MODEL 1
REMARK VINA RESULT:      -6.7      0.000      0.000
REMARK  Name = 
REMARK  4 active torsions:
REMARK  status: ('A' for Active; 'I' for Inactive)
REMARK    1  A    between atoms: C_1  and  C_2
REMARK    2  A    between atoms: C_6  and  N_7
REMARK    3  A    between atoms: C_11  and  O_13
REMARK    4  A    between atoms: C_16  and  O_17
REMARK                            x       y       z     vdW  Elec       q    Type
REMARK                         _______ _______ _______ _____ _____    ______ ____
ROOT
ATOM      1  C   UNL     1       1.227   2.662  22.253  0.00  0.00    +0.000 C 
ATOM      2  C   UNL     1       2.245   3.019  21.218  0.00  0.00    +0.000 A 
ATOM      3  N   UNL     1       3.303   2.203  21.056  0.00  0.00    +0.000 NA
ATOM      4  C   UNL     1       4.168   2.498  20.065  0.00  0.00    +0.000 A 
ATOM      5  N   UNL     1       5.247   1.609  19.967  0.00  0.00    +0.000 N 
ATOM      6  C   UNL     1       4.011   3.574  19.190  0.00  0.00    +0.000 A 
ATOM      7  C   UNL     1       2.871   4.323  19.486  0.00  0.00    +0.000 A 
ATOM      8  N   UNL     1       1.995   4.100  20.473  0.00  0.00    +0.000 NA
ATOM      9  H   UNL     1       5.155   0.955  20.742  0.00  0.00    +0.000 HD
ATOM     10  H   UNL     1       6.123   2.119  20.007  0.00  0.00    +0.000 HD
ENDROOT
BRANCH   6  11
ATOM     11  N   UNL     1       4.784   3.892  18.078  0.00  0.00    +0.000 N 
ATOM     12  C   UNL     1       5.832   4.929  18.153  0.00  0.00    +0.000 C 
ATOM     13  C   UNL     1       6.955   4.537  17.173  0.00  0.00    +0.000 C 
ATOM     14  N   UNL     1       6.458   4.255  15.812  0.00  0.00    +0.000 N 
ATOM     15  C   UNL     1       7.073   4.884  14.754  0.00  0.00    +0.000 C 
ATOM     16  O   UNL     1       7.842   5.831  14.860  0.00  0.00    +0.000 OA
ATOM     17  C   UNL     1       5.275   3.378  15.732  0.00  0.00    +0.000 C 
ATOM     18  C   UNL     1       4.174   3.791  16.737  0.00  0.00    +0.000 C 
BRANCH  15  19
ATOM     19  O   UNL     1       6.794   4.345  13.553  0.00  0.00    +0.000 OA
ATOM     20  H   UNL     1       5.902   3.964  13.541  0.00  0.00    +0.000 HD
ENDBRANCH  15  19
ENDBRANCH   6  11
BRANCH   7  21
ATOM     21  O   UNL     1       2.493   5.323  18.621  0.00  0.00    +0.000 OA
ATOM     22  H   UNL     1       3.333   5.539  18.179  0.00  0.00    +0.000 HD
ENDBRANCH   7  21
TORSDOF 3
ENDMDL
MODEL 2
REMARK VINA RESULT:      -6.6      0.467      1.461
REMARK  Name = 
REMARK  4 active torsions:
REMARK  status: ('A' for Active; 'I' for Inactive)
REMARK    1  A    between atoms: C_1  and  C_2
REMARK    2  A    between atoms: C_6  and  N_7
REMARK    3  A    between atoms: C_11  and  O_13
REMARK    4  A    between atoms: C_16  and  O_17
REMARK                            x       y       z     vdW  Elec       q    Type
REMARK                         _______ _______ _______ _____ _____    ______ ____
ROOT
ATOM      1  C   UNL     1       1.151   2.684  22.348  0.00  0.00    +0.000 C 
ATOM      2  C   UNL     1       2.139   3.052  21.288  0.00  0.00    +0.000 A 
ATOM      3  N   UNL     1       3.229   2.278  21.135  0.00  0.00    +0.000 NA
ATOM      4  C   UNL     1       4.068   2.579  20.124  0.00  0.00    +0.000 A 
ATOM      5  N   UNL     1       5.183   1.735  20.038  0.00  0.00    +0.000 N 
ATOM      6  C   UNL     1       3.853   3.621  19.220  0.00  0.00    +0.000 A 
ATOM      7  C   UNL     1       2.685   4.328  19.509  0.00  0.00    +0.000 A 
ATOM      8  N   UNL     1       1.833   4.098  20.515  0.00  0.00    +0.000 NA
ATOM      9  H   UNL     1       5.130   1.102  20.833  0.00  0.00    +0.000 HD
ATOM     10  H   UNL     1       6.037   2.284  20.050  0.00  0.00    +0.000 HD
ENDROOT
BRANCH   6  11
ATOM     11  N   UNL     1       4.597   3.937  18.088  0.00  0.00    +0.000 N 
ATOM     12  C   UNL     1       4.375   3.229  16.812  0.00  0.00    +0.000 C 
ATOM     13  C   UNL     1       4.676   4.214  15.666  0.00  0.00    +0.000 C 
ATOM     14  N   UNL     1       5.998   4.858  15.795  0.00  0.00    +0.000 N 
ATOM     15  C   UNL     1       6.838   4.838  14.706  0.00  0.00    +0.000 C 
ATOM     16  O   UNL     1       6.679   4.133  13.718  0.00  0.00    +0.000 OA
ATOM     17  C   UNL     1       6.321   5.394  17.131  0.00  0.00    +0.000 C 
ATOM     18  C   UNL     1       5.994   4.385  18.257  0.00  0.00    +0.000 C 
BRANCH  15  19
ATOM     19  O   UNL     1       7.865   5.704  14.784  0.00  0.00    +0.000 OA
ATOM     20  H   UNL     1       8.234   5.727  15.680  0.00  0.00    +0.000 HD
ENDBRANCH  15  19
ENDBRANCH   6  11
BRANCH   7  21
ATOM     21  O   UNL     1       2.253   5.284  18.620  0.00  0.00    +0.000 OA
ATOM     22  H   UNL     1       1.406   4.913  18.316  0.00  0.00    +0.000 HD
ENDBRANCH   7  21
TORSDOF 3
ENDMDL
MODEL 3
REMARK VINA RESULT:      -6.5      2.060      6.553
REMARK  Name = 
REMARK  4 active torsions:
REMARK  status: ('A' for Active; 'I' for Inactive)
REMARK    1  A    between atoms: C_1  and  C_2
REMARK    2  A    between atoms: C_6  and  N_7
REMARK    3  A    between atoms: C_11  and  O_13
REMARK    4  A    between atoms: C_16  and  O_17
REMARK                            x       y       z     vdW  Elec       q    Type
REMARK                         _______ _______ _______ _____ _____    ______ ____
ROOT
ATOM      1  C   UNL     1       7.457   5.229  13.060  0.00  0.00    +0.000 C 
ATOM      2  C   UNL     1       6.760   4.957  14.354  0.00  0.00    +0.000 A 
ATOM      3  N   UNL     1       6.379   6.006  15.106  0.00  0.00    +0.000 NA
ATOM      4  C   UNL     1       5.682   5.744  16.230  0.00  0.00    +0.000 A 
ATOM      5  N   UNL     1       5.331   6.886  16.963  0.00  0.00    +0.000 N 
ATOM      6  C   UNL     1       5.314   4.460  16.635  0.00  0.00    +0.000 A 
ATOM      7  C   UNL     1       5.781   3.483  15.753  0.00  0.00    +0.000 A 
ATOM      8  N   UNL     1       6.503   3.678  14.644  0.00  0.00    +0.000 NA
ATOM      9  H   UNL     1       5.758   7.678  16.487  0.00  0.00    +0.000 HD
ATOM     10  H   UNL     1       5.659   6.800  17.919  0.00  0.00    +0.000 HD
ENDROOT
BRANCH   6  11
ATOM     11  N   UNL     1       4.507   4.100  17.709  0.00  0.00    +0.000 N 
ATOM     12  C   UNL     1       3.073   4.447  17.730  0.00  0.00    +0.000 C 
ATOM     13  C   UNL     1       2.332   3.344  18.511  0.00  0.00    +0.000 C 
ATOM     14  N   UNL     1       2.925   3.082  19.837  0.00  0.00    +0.000 N 
ATOM     15  C   UNL     1       2.091   3.073  20.931  0.00  0.00    +0.000 C 
ATOM     16  O   UNL     1       0.941   3.493  20.931  0.00  0.00    +0.000 OA
ATOM     17  C   UNL     1       4.393   2.936  19.864  0.00  0.00    +0.000 C 
ATOM     18  C   UNL     1       5.103   4.050  19.060  0.00  0.00    +0.000 C 
BRANCH  15  19
ATOM     19  O   UNL     1       2.629   2.518  22.032  0.00  0.00    +0.000 OA
ATOM     20  H   UNL     1       1.960   2.031  22.539  0.00  0.00    +0.000 HD
ENDBRANCH  15  19
ENDBRANCH   6  11
BRANCH   7  21
ATOM     21  O   UNL     1       5.369   2.182  15.929  0.00  0.00    +0.000 OA
ATOM     22  H   UNL     1       5.869   1.715  15.238  0.00  0.00    +0.000 HD
ENDBRANCH   7  21
TORSDOF 3
ENDMDL
MODEL 4
REMARK VINA RESULT:      -6.4      1.243      1.910
REMARK  Name = 
REMARK  4 active torsions:
REMARK  status: ('A' for Active; 'I' for Inactive)
REMARK    1  A    between atoms: C_1  and  C_2
REMARK    2  A    between atoms: C_6  and  N_7
REMARK    3  A    between atoms: C_11  and  O_13
REMARK    4  A    between atoms: C_16  and  O_17
REMARK                            x       y       z     vdW  Elec       q    Type
REMARK                         _______ _______ _______ _____ _____    ______ ____
ROOT
ATOM      1  C   UNL     1       1.778   3.345  21.619  0.00  0.00    +0.000 C 
ATOM      2  C   UNL     1       2.739   3.510  20.486  0.00  0.00    +0.000 A 
ATOM      3  N   UNL     1       3.076   2.420  19.771  0.00  0.00    +0.000 NA
ATOM      4  C   UNL     1       3.880   2.601  18.705  0.00  0.00    +0.000 A 
ATOM      5  N   UNL     1       4.194   1.419  18.021  0.00  0.00    +0.000 N 
ATOM      6  C   UNL     1       4.353   3.847  18.290  0.00  0.00    +0.000 A 
ATOM      7  C   UNL     1       3.917   4.874  19.129  0.00  0.00    +0.000 A 
ATOM      8  N   UNL     1       3.148   4.753  20.217  0.00  0.00    +0.000 NA
ATOM      9  H   UNL     1       3.774   0.658  18.549  0.00  0.00    +0.000 HD
ATOM     10  H   UNL     1       5.201   1.316  17.948  0.00  0.00    +0.000 HD
ENDROOT
BRANCH   6  11
ATOM     11  N   UNL     1       5.090   4.146  17.149  0.00  0.00    +0.000 N 
ATOM     12  C   UNL     1       4.756   3.533  15.848  0.00  0.00    +0.000 C 
ATOM     13  C   UNL     1       5.123   4.542  14.743  0.00  0.00    +0.000 C 
ATOM     14  N   UNL     1       6.508   5.039  14.856  0.00  0.00    +0.000 N 
ATOM     15  C   UNL     1       7.307   4.991  13.737  0.00  0.00    +0.000 C 
ATOM     16  O   UNL     1       7.045   4.359  12.722  0.00  0.00    +0.000 OA
ATOM     17  C   UNL     1       6.926   5.466  16.204  0.00  0.00    +0.000 C 
ATOM     18  C   UNL     1       6.530   4.438  17.290  0.00  0.00    +0.000 C 
BRANCH  15  19
ATOM     19  O   UNL     1       8.421   5.742  13.820  0.00  0.00    +0.000 OA
ATOM     20  H   UNL     1       9.180   5.208  14.104  0.00  0.00    +0.000 HD
ENDBRANCH  15  19
ENDBRANCH   6  11
BRANCH   7  21
ATOM     21  O   UNL     1       4.169   6.177  18.766  0.00  0.00    +0.000 OA
ATOM     22  H   UNL     1       3.896   6.667  19.561  0.00  0.00    +0.000 HD
ENDBRANCH   7  21
TORSDOF 3
ENDMDL
MODEL 5
REMARK VINA RESULT:      -6.3      1.293      1.845
REMARK  Name = 
REMARK  4 active torsions:
REMARK  status: ('A' for Active; 'I' for Inactive)
REMARK    1  A    between atoms: C_1  and  C_2
REMARK    2  A    between atoms: C_6  and  N_7
REMARK    3  A    between atoms: C_11  and  O_13
REMARK    4  A    between atoms: C_16  and  O_17
REMARK                            x       y       z     vdW  Elec       q    Type
REMARK                         _______ _______ _______ _____ _____    ______ ____
ROOT
ATOM      1  C   UNL     1       1.546   2.579  22.099  0.00  0.00    +0.000 C 
ATOM      2  C   UNL     1       2.290   3.026  20.882  0.00  0.00    +0.000 A 
ATOM      3  N   UNL     1       2.593   4.332  20.764  0.00  0.00    +0.000 NA
ATOM      4  C   UNL     1       3.332   4.703  19.700  0.00  0.00    +0.000 A 
ATOM      5  N   UNL     1       3.596   6.079  19.641  0.00  0.00    +0.000 N 
ATOM      6  C   UNL     1       3.819   3.813  18.742  0.00  0.00    +0.000 A 
ATOM      7  C   UNL     1       3.423   2.500  19.003  0.00  0.00    +0.000 A 
ATOM      8  N   UNL     1       2.664   2.076  20.020  0.00  0.00    +0.000 NA
ATOM      9  H   UNL     1       3.092   6.504  20.416  0.00  0.00    +0.000 HD
ATOM     10  H   UNL     1       3.296   6.453  18.747  0.00  0.00    +0.000 HD
ENDROOT
BRANCH   6  11
ATOM     11  N   UNL     1       4.676   4.084  17.680  0.00  0.00    +0.000 N 
ATOM     12  C   UNL     1       5.878   4.919  17.868  0.00  0.00    +0.000 C 
ATOM     13  C   UNL     1       6.956   4.423  16.886  0.00  0.00    +0.000 C 
ATOM     14  N   UNL     1       6.472   4.341  15.494  0.00  0.00    +0.000 N 
ATOM     15  C   UNL     1       7.223   4.939  14.509  0.00  0.00    +0.000 C 
ATOM     16  O   UNL     1       8.134   5.731  14.714  0.00  0.00    +0.000 OA
ATOM     17  C   UNL     1       5.164   3.685  15.311  0.00  0.00    +0.000 C 
ATOM     18  C   UNL     1       4.109   4.196  16.321  0.00  0.00    +0.000 C 
BRANCH  15  19
ATOM     19  O   UNL     1       6.904   4.554  13.260  0.00  0.00    +0.000 OA
ATOM     20  H   UNL     1       7.415   5.051  12.601  0.00  0.00    +0.000 HD
ENDBRANCH  15  19
ENDBRANCH   6  11
BRANCH   7  21
ATOM     21  O   UNL     1       3.950   1.485  18.239  0.00  0.00    +0.000 OA
ATOM     22  H   UNL     1       4.448   1.976  17.563  0.00  0.00    +0.000 HD
ENDBRANCH   7  21
TORSDOF 3
ENDMDL
MODEL 6
REMARK VINA RESULT:      -6.3      1.289      2.006
REMARK  Name = 
REMARK  4 active torsions:
REMARK  status: ('A' for Active; 'I' for Inactive)
REMARK    1  A    between atoms: C_1  and  C_2
REMARK    2  A    between atoms: C_6  and  N_7
REMARK    3  A    between atoms: C_11  and  O_13
REMARK    4  A    between atoms: C_16  and  O_17
REMARK                            x       y       z     vdW  Elec       q    Type
REMARK                         _______ _______ _______ _____ _____    ______ ____
ROOT
ATOM      1  C   UNL     1       1.130   2.459  22.515  0.00  0.00    +0.000 C 
ATOM      2  C   UNL     1       1.929   2.825  21.306  0.00  0.00    +0.000 A 
ATOM      3  N   UNL     1       1.510   3.858  20.553  0.00  0.00    +0.000 NA
ATOM      4  C   UNL     1       2.286   4.223  19.513  0.00  0.00    +0.000 A 
ATOM      5  N   UNL     1       1.777   5.298  18.772  0.00  0.00    +0.000 N 
ATOM      6  C   UNL     1       3.501   3.613  19.197  0.00  0.00    +0.000 A 
ATOM      7  C   UNL     1       3.797   2.563  20.068  0.00  0.00    +0.000 A 
ATOM      8  N   UNL     1       3.054   2.134  21.094  0.00  0.00    +0.000 NA
ATOM      9  H   UNL     1       0.868   5.521  19.172  0.00  0.00    +0.000 HD
ATOM     10  H   UNL     1       1.704   5.042  17.792  0.00  0.00    +0.000 HD
ENDROOT
BRANCH   6  11
ATOM     11  N   UNL     1       4.418   3.988  18.221  0.00  0.00    +0.000 N 
ATOM     12  C   UNL     1       5.383   5.077  18.464  0.00  0.00    +0.000 C 
ATOM     13  C   UNL     1       6.664   4.760  17.668  0.00  0.00    +0.000 C 
ATOM     14  N   UNL     1       6.399   4.474  16.244  0.00  0.00    +0.000 N 
ATOM     15  C   UNL     1       7.135   5.150  15.299  0.00  0.00    +0.000 C 
ATOM     16  O   UNL     1       7.826   6.135  15.529  0.00  0.00    +0.000 OA
ATOM     17  C   UNL     1       5.293   3.537  15.975  0.00  0.00    +0.000 C 
ATOM     18  C   UNL     1       4.029   3.876  16.800  0.00  0.00    +0.000 C 
BRANCH  15  19
ATOM     19  O   UNL     1       7.075   4.617  14.065  0.00  0.00    +0.000 OA
ATOM     20  H   UNL     1       6.155   4.514  13.775  0.00  0.00    +0.000 HD
ENDBRANCH  15  19
ENDBRANCH   6  11
BRANCH   7  21
ATOM     21  O   UNL     1       5.033   1.964  19.986  0.00  0.00    +0.000 OA
ATOM     22  H   UNL     1       4.801   1.050  19.745  0.00  0.00    +0.000 HD
ENDBRANCH   7  21
TORSDOF 3
ENDMDL
MODEL 7
REMARK VINA RESULT:      -6.2      2.192      6.488
REMARK  Name = 
REMARK  4 active torsions:
REMARK  status: ('A' for Active; 'I' for Inactive)
REMARK    1  A    between atoms: C_1  and  C_2
REMARK    2  A    between atoms: C_6  and  N_7
REMARK    3  A    between atoms: C_11  and  O_13
REMARK    4  A    between atoms: C_16  and  O_17
REMARK                            x       y       z     vdW  Elec       q    Type
REMARK                         _______ _______ _______ _____ _____    ______ ____
ROOT
ATOM      1  C   UNL     1       7.457   5.113  13.127  0.00  0.00    +0.000 C 
ATOM      2  C   UNL     1       6.673   4.922  14.386  0.00  0.00    +0.000 A 
ATOM      3  N   UNL     1       6.134   6.007  14.973  0.00  0.00    +0.000 NA
ATOM      4  C   UNL     1       5.364   5.807  16.061  0.00  0.00    +0.000 A 
ATOM      5  N   UNL     1       4.850   6.985  16.620  0.00  0.00    +0.000 N 
ATOM      6  C   UNL     1       5.076   4.547  16.588  0.00  0.00    +0.000 A 
ATOM      7  C   UNL     1       5.705   3.528  15.872  0.00  0.00    +0.000 A 
ATOM      8  N   UNL     1       6.504   3.665  14.808  0.00  0.00    +0.000 NA
ATOM      9  H   UNL     1       5.247   7.756  16.087  0.00  0.00    +0.000 HD
ATOM     10  H   UNL     1       5.097   7.040  17.603  0.00  0.00    +0.000 HD
ENDROOT
BRANCH   6  11
ATOM     11  N   UNL     1       4.211   4.235  17.632  0.00  0.00    +0.000 N 
ATOM     12  C   UNL     1       4.722   3.996  18.996  0.00  0.00    +0.000 C 
ATOM     13  C   UNL     1       3.640   4.454  19.992  0.00  0.00    +0.000 C 
ATOM     14  N   UNL     1       2.316   3.863  19.715  0.00  0.00    +0.000 N 
ATOM     15  C   UNL     1       1.646   3.257  20.752  0.00  0.00    +0.000 C 
ATOM     16  O   UNL     1       2.151   2.960  21.827  0.00  0.00    +0.000 OA
ATOM     17  C   UNL     1       1.877   3.911  18.308  0.00  0.00    +0.000 C 
ATOM     18  C   UNL     1       2.991   3.458  17.334  0.00  0.00    +0.000 C 
BRANCH  15  19
ATOM     19  O   UNL     1       0.340   3.037  20.513  0.00  0.00    +0.000 OA
ATOM     20  H   UNL     1       0.035   2.232  20.961  0.00  0.00    +0.000 HD
ENDBRANCH  15  19
ENDBRANCH   6  11
BRANCH   7  21
ATOM     21  O   UNL     1       5.395   2.221  16.171  0.00  0.00    +0.000 OA
ATOM     22  H   UNL     1       6.256   1.867  16.454  0.00  0.00    +0.000 HD
ENDBRANCH   7  21
TORSDOF 3
ENDMDL
MODEL 8
REMARK VINA RESULT:      -6.2      2.168      6.483
REMARK  Name = 
REMARK  4 active torsions:
REMARK  status: ('A' for Active; 'I' for Inactive)
REMARK    1  A    between atoms: C_1  and  C_2
REMARK    2  A    between atoms: C_6  and  N_7
REMARK    3  A    between atoms: C_11  and  O_13
REMARK    4  A    between atoms: C_16  and  O_17
REMARK                            x       y       z     vdW  Elec       q    Type
REMARK                         _______ _______ _______ _____ _____    ______ ____
ROOT
ATOM      1  C   UNL     1       7.992   5.155  13.031  0.00  0.00    +0.000 C 
ATOM      2  C   UNL     1       7.224   5.028  14.307  0.00  0.00    +0.000 A 
ATOM      3  N   UNL     1       7.606   5.775  15.359  0.00  0.00    +0.000 NA
ATOM      4  C   UNL     1       6.854   5.707  16.476  0.00  0.00    +0.000 A 
ATOM      5  N   UNL     1       7.323   6.504  17.529  0.00  0.00    +0.000 N 
ATOM      6  C   UNL     1       5.697   4.934  16.588  0.00  0.00    +0.000 A 
ATOM      7  C   UNL     1       5.433   4.221  15.417  0.00  0.00    +0.000 A 
ATOM      8  N   UNL     1       6.158   4.222  14.293  0.00  0.00    +0.000 NA
ATOM      9  H   UNL     1       8.197   6.918  17.212  0.00  0.00    +0.000 HD
ATOM     10  H   UNL     1       7.455   5.938  18.361  0.00  0.00    +0.000 HD
ENDROOT
BRANCH   6  11
ATOM     11  N   UNL     1       4.801   4.885  17.651  0.00  0.00    +0.000 N 
ATOM     12  C   UNL     1       3.844   5.983  17.887  0.00  0.00    +0.000 C 
ATOM     13  C   UNL     1       2.574   5.375  18.513  0.00  0.00    +0.000 C 
ATOM     14  N   UNL     1       2.859   4.538  19.694  0.00  0.00    +0.000 N 
ATOM     15  C   UNL     1       2.147   4.777  20.846  0.00  0.00    +0.000 C 
ATOM     16  O   UNL     1       1.463   5.773  21.047  0.00  0.00    +0.000 OA
ATOM     17  C   UNL     1       3.960   3.569  19.540  0.00  0.00    +0.000 C 
ATOM     18  C   UNL     1       5.213   4.208  18.897  0.00  0.00    +0.000 C 
BRANCH  15  19
ATOM     19  O   UNL     1       2.222   3.790  21.758  0.00  0.00    +0.000 OA
ATOM     20  H   UNL     1       2.737   4.070  22.532  0.00  0.00    +0.000 HD
ENDBRANCH  15  19
ENDBRANCH   6  11
BRANCH   7  21
ATOM     21  O   UNL     1       4.245   3.535  15.314  0.00  0.00    +0.000 OA
ATOM     22  H   UNL     1       4.496   2.645  15.616  0.00  0.00    +0.000 HD
ENDBRANCH   7  21
TORSDOF 3
ENDMDL
MODEL 9
REMARK VINA RESULT:      -6.2      2.796      5.944
REMARK  Name = 
REMARK  4 active torsions:
REMARK  status: ('A' for Active; 'I' for Inactive)
REMARK    1  A    between atoms: C_1  and  C_2
REMARK    2  A    between atoms: C_6  and  N_7
REMARK    3  A    between atoms: C_11  and  O_13
REMARK    4  A    between atoms: C_16  and  O_17
REMARK                            x       y       z     vdW  Elec       q    Type
REMARK                         _______ _______ _______ _____ _____    ______ ____
ROOT
ATOM      1  C   UNL     1       8.625   8.942  17.405  0.00  0.00    +0.000 C 
ATOM      2  C   UNL     1       7.639   7.843  17.644  0.00  0.00    +0.000 A 
ATOM      3  N   UNL     1       7.921   6.928  18.590  0.00  0.00    +0.000 NA
ATOM      4  C   UNL     1       6.985   5.992  18.846  0.00  0.00    +0.000 A 
ATOM      5  N   UNL     1       7.357   5.070  19.834  0.00  0.00    +0.000 N 
ATOM      6  C   UNL     1       5.744   5.939  18.210  0.00  0.00    +0.000 A 
ATOM      7  C   UNL     1       5.603   6.951  17.260  0.00  0.00    +0.000 A 
ATOM      8  N   UNL     1       6.505   7.886  16.939  0.00  0.00    +0.000 NA
ATOM      9  H   UNL     1       8.315   5.295  20.095  0.00  0.00    +0.000 HD
ATOM     10  H   UNL     1       7.277   4.124  19.475  0.00  0.00    +0.000 HD
ENDROOT
BRANCH   6  11
ATOM     11  N   UNL     1       4.680   5.086  18.483  0.00  0.00    +0.000 N 
ATOM     12  C   UNL     1       3.860   5.260  19.698  0.00  0.00    +0.000 C 
ATOM     13  C   UNL     1       2.428   4.794  19.372  0.00  0.00    +0.000 C 
ATOM     14  N   UNL     1       2.383   3.441  18.784  0.00  0.00    +0.000 N 
ATOM     15  C   UNL     1       1.523   2.521  19.337  0.00  0.00    +0.000 C 
ATOM     16  O   UNL     1       0.962   2.655  20.417  0.00  0.00    +0.000 OA
ATOM     17  C   UNL     1       3.346   3.185  17.697  0.00  0.00    +0.000 C 
ATOM     18  C   UNL     1       4.769   3.677  18.051  0.00  0.00    +0.000 C 
BRANCH  15  19
ATOM     19  O   UNL     1       1.299   1.441  18.567  0.00  0.00    +0.000 OA
ATOM     20  H   UNL     1       1.148   1.696  17.643  0.00  0.00    +0.000 HD
ENDBRANCH  15  19
ENDBRANCH   6  11
BRANCH   7  21
ATOM     21  O   UNL     1       4.378   7.129  16.659  0.00  0.00    +0.000 OA
ATOM     22  H   UNL     1       3.806   6.542  17.184  0.00  0.00    +0.000 HD
ENDBRANCH   7  21
TORSDOF 3
ENDMDL
