MODEL 1
REMARK VINA RESULT:      -8.2      0.000      0.000
REMARK  Name = 
REMARK  5 active torsions:
REMARK  status: ('A' for Active; 'I' for Inactive)
REMARK    1  A    between atoms: C_2  and  C_3
REMARK    2  A    between atoms: C_8  and  S_9
REMARK    3  A    between atoms: S_9  and  N_12
REMARK    4  A    between atoms: N_12  and  C_13
REMARK    5  A    between atoms: C_13  and  C_14
REMARK                            x       y       z     vdW  Elec       q    Type
REMARK                         _______ _______ _______ _____ _____    ______ ____
ROOT
ATOM      1  C   UNL     1       1.189  10.167  19.115  0.00  0.00    +0.000 C 
ATOM      2  C   UNL     1       2.376  10.179  18.157  0.00  0.00    +0.000 C 
ATOM      3  O   UNL     1       2.577   8.913  17.523  0.00  0.00    +0.000 OA
ATOM      4  C   UNL     1       2.334   7.864  18.366  0.00  0.00    +0.000 A 
ATOM      5  C   UNL     1       2.669   6.613  17.874  0.00  0.00    +0.000 A 
ATOM      6  C   UNL     1       2.455   5.481  18.654  0.00  0.00    +0.000 A 
ATOM      7  C   UNL     1       1.934   5.600  19.949  0.00  0.00    +0.000 A 
ATOM      8  C   UNL     1       1.604   6.867  20.445  0.00  0.00    +0.000 A 
ATOM      9  C   UNL     1       1.783   7.994  19.640  0.00  0.00    +0.000 A 
ATOM     10  O   UNL     1       1.404   9.205  20.157  0.00  0.00    +0.000 OA
ENDROOT
BRANCH   1  12
ATOM     11  O   UNL     1      -0.201   9.419  17.267  0.00  0.00    +0.000 OA
ATOM     12  C   UNL     1      -0.152   9.948  18.379  0.00  0.00    +0.000 C 
ATOM     13  N   UNL     1      -1.300  10.389  19.015  0.00  0.00    +0.000 N 
ATOM     14  C   UNL     1      -2.615  10.112  18.433  0.00  0.00    +0.000 C 
ATOM     15  C   UNL     1      -3.353  11.420  18.141  0.00  0.00    +0.000 C 
ATOM     16  O   UNL     1      -3.426  12.249  19.314  0.00  0.00    +0.000 OA
ATOM     17  C   UNL     1      -2.111  12.562  19.800  0.00  0.00    +0.000 C 
ATOM     18  C   UNL     1      -1.346  11.288  20.172  0.00  0.00    +0.000 C 
ENDBRANCH   1  12
BRANCH   6  19
ATOM     19  S   UNL     1       2.915   3.886  18.006  0.00  0.00    +0.000 S 
ATOM     20  O   UNL     1       3.743   3.241  19.001  0.00  0.00    +0.000 OA
ATOM     21  O   UNL     1       1.712   3.281  17.488  0.00  0.00    +0.000 OA
BRANCH  19  22
ATOM     22  N   UNL     1       3.874   4.281  16.661  0.00  0.00    +0.000 NA
ATOM     23  H   UNL     1       3.739   5.257  16.377  0.00  0.00    +0.000 HD
BRANCH  22  24
ATOM     24  C   UNL     1       5.289   3.900  16.750  0.00  0.00    +0.000 C 
BRANCH  24  25
ATOM     25  C   UNL     1       6.156   4.973  17.360  0.00  0.00    +0.000 A 
ATOM     26  C   UNL     1       6.969   4.678  18.483  0.00  0.00    +0.000 A 
ATOM     27  C   UNL     1       7.825   5.641  19.024  0.00  0.00    +0.000 A 
ATOM     28  C   UNL     1       7.840   6.885  18.434  0.00  0.00    +0.000 A 
ATOM     29  C   UNL     1       7.050   7.183  17.347  0.00  0.00    +0.000 A 
ATOM     30  C   UNL     1       6.204   6.252  16.784  0.00  0.00    +0.000 A 
ATOM     31  O   UNL     1       7.214   8.464  16.923  0.00  0.00    +0.000 OA
ATOM     32  C   UNL     1       8.146   8.956  17.909  0.00  0.00    +0.000 C 
ATOM     33  O   UNL     1       8.600   7.941  18.828  0.00  0.00    +0.000 OA
ENDBRANCH  24  25
ENDBRANCH  22  24
ENDBRANCH  19  22
ENDBRANCH   6  19
TORSDOF 5
ENDMDL
MODEL 2
REMARK VINA RESULT:      -8.1      1.111      1.622
REMARK  Name = 
REMARK  5 active torsions:
REMARK  status: ('A' for Active; 'I' for Inactive)
REMARK    1  A    between atoms: C_2  and  C_3
REMARK    2  A    between atoms: C_8  and  S_9
REMARK    3  A    between atoms: S_9  and  N_12
REMARK    4  A    between atoms: N_12  and  C_13
REMARK    5  A    between atoms: C_13  and  C_14
REMARK                            x       y       z     vdW  Elec       q    Type
REMARK                         _______ _______ _______ _____ _____    ______ ____
ROOT
ATOM      1  C   UNL     1       1.634   9.809  18.909  0.00  0.00    +0.000 C 
ATOM      2  C   UNL     1       2.686   9.373  17.894  0.00  0.00    +0.000 C 
ATOM      3  O   UNL     1       2.560   7.995  17.536  0.00  0.00    +0.000 OA
ATOM      4  C   UNL     1       2.208   7.210  18.600  0.00  0.00    +0.000 A 
ATOM      5  C   UNL     1       2.231   5.845  18.368  0.00  0.00    +0.000 A 
ATOM      6  C   UNL     1       1.882   4.962  19.386  0.00  0.00    +0.000 A 
ATOM      7  C   UNL     1       1.542   5.445  20.657  0.00  0.00    +0.000 A 
ATOM      8  C   UNL     1       1.528   6.825  20.889  0.00  0.00    +0.000 A 
ATOM      9  C   UNL     1       1.838   7.705  19.849  0.00  0.00    +0.000 A 
ATOM     10  O   UNL     1       1.767   9.047  20.116  0.00  0.00    +0.000 OA
ENDROOT
BRANCH   1  12
ATOM     11  O   UNL     1      -0.035   9.193  17.252  0.00  0.00    +0.000 OA
ATOM     12  C   UNL     1       0.204   9.746  18.327  0.00  0.00    +0.000 C 
ATOM     13  N   UNL     1      -0.802  10.356  19.059  0.00  0.00    +0.000 N 
ATOM     14  C   UNL     1      -2.198  10.237  18.632  0.00  0.00    +0.000 C 
ATOM     15  C   UNL     1      -2.789  11.622  18.358  0.00  0.00    +0.000 C 
ATOM     16  O   UNL     1      -2.625  12.490  19.493  0.00  0.00    +0.000 OA
ATOM     17  C   UNL     1      -1.235  12.641  19.824  0.00  0.00    +0.000 C 
ATOM     18  C   UNL     1      -0.604  11.289  20.172  0.00  0.00    +0.000 C 
ENDBRANCH   1  12
BRANCH   6  19
ATOM     19  S   UNL     1       1.941   3.210  19.069  0.00  0.00    +0.000 S 
ATOM     20  O   UNL     1       1.412   2.544  20.238  0.00  0.00    +0.000 OA
ATOM     21  O   UNL     1       1.400   3.005  17.748  0.00  0.00    +0.000 OA
BRANCH  19  22
ATOM     22  N   UNL     1       3.607   2.896  18.961  0.00  0.00    +0.000 NA
ATOM     23  H   UNL     1       3.867   2.054  19.485  0.00  0.00    +0.000 HD
BRANCH  22  24
ATOM     24  C   UNL     1       4.178   2.929  17.608  0.00  0.00    +0.000 C 
BRANCH  24  25
ATOM     25  C   UNL     1       5.071   4.121  17.369  0.00  0.00    +0.000 A 
ATOM     26  C   UNL     1       5.017   4.813  16.133  0.00  0.00    +0.000 A 
ATOM     27  C   UNL     1       5.791   5.956  15.915  0.00  0.00    +0.000 A 
ATOM     28  C   UNL     1       6.610   6.377  16.938  0.00  0.00    +0.000 A 
ATOM     29  C   UNL     1       6.673   5.709  18.139  0.00  0.00    +0.000 A 
ATOM     30  C   UNL     1       5.915   4.585  18.389  0.00  0.00    +0.000 A 
ATOM     31  O   UNL     1       7.545   6.287  19.008  0.00  0.00    +0.000 OA
ATOM     32  C   UNL     1       8.071   7.352  18.190  0.00  0.00    +0.000 C 
ATOM     33  O   UNL     1       7.433   7.458  16.902  0.00  0.00    +0.000 OA
ENDBRANCH  24  25
ENDBRANCH  22  24
ENDBRANCH  19  22
ENDBRANCH   6  19
TORSDOF 5
ENDMDL
MODEL 3
REMARK VINA RESULT:      -8.1      1.629      2.148
REMARK  Name = 
REMARK  5 active torsions:
REMARK  status: ('A' for Active; 'I' for Inactive)
REMARK    1  A    between atoms: C_2  and  C_3
REMARK    2  A    between atoms: C_8  and  S_9
REMARK    3  A    between atoms: S_9  and  N_12
REMARK    4  A    between atoms: N_12  and  C_13
REMARK    5  A    between atoms: C_13  and  C_14
REMARK                            x       y       z     vdW  Elec       q    Type
REMARK                         _______ _______ _______ _____ _____    ______ ____
ROOT
ATOM      1  C   UNL     1       1.500   9.899  18.834  0.00  0.00    +0.000 C 
ATOM      2  C   UNL     1       2.555   9.526  17.798  0.00  0.00    +0.000 C 
ATOM      3  O   UNL     1       2.483   8.150  17.417  0.00  0.00    +0.000 OA
ATOM      4  C   UNL     1       2.180   7.333  18.471  0.00  0.00    +0.000 A 
ATOM      5  C   UNL     1       2.258   5.974  18.215  0.00  0.00    +0.000 A 
ATOM      6  C   UNL     1       1.962   5.060  19.222  0.00  0.00    +0.000 A 
ATOM      7  C   UNL     1       1.618   5.506  20.505  0.00  0.00    +0.000 A 
ATOM      8  C   UNL     1       1.549   6.880  20.762  0.00  0.00    +0.000 A 
ATOM      9  C   UNL     1       1.806   7.790  19.734  0.00  0.00    +0.000 A 
ATOM     10  O   UNL     1       1.682   9.122  20.026  0.00  0.00    +0.000 OA
ENDROOT
BRANCH   1  12
ATOM     11  O   UNL     1      -0.170   9.206  17.208  0.00  0.00    +0.000 OA
ATOM     12  C   UNL     1       0.065   9.785  18.270  0.00  0.00    +0.000 C 
ATOM     13  N   UNL     1      -0.950  10.378  19.004  0.00  0.00    +0.000 N 
ATOM     14  C   UNL     1      -2.346  10.211  18.594  0.00  0.00    +0.000 C 
ATOM     15  C   UNL     1      -2.980  11.573  18.304  0.00  0.00    +0.000 C 
ATOM     16  O   UNL     1      -2.829  12.466  19.422  0.00  0.00    +0.000 OA
ATOM     17  C   UNL     1      -1.441  12.662  19.734  0.00  0.00    +0.000 C 
ATOM     18  C   UNL     1      -0.767  11.336  20.098  0.00  0.00    +0.000 C 
ENDBRANCH   1  12
BRANCH   6  19
ATOM     19  S   UNL     1       2.091   3.318  18.872  0.00  0.00    +0.000 S 
ATOM     20  O   UNL     1       1.363   2.617  19.906  0.00  0.00    +0.000 OA
ATOM     21  O   UNL     1       1.802   3.149  17.470  0.00  0.00    +0.000 OA
BRANCH  19  22
ATOM     22  N   UNL     1       3.751   3.012  19.063  0.00  0.00    +0.000 NA
ATOM     23  H   UNL     1       4.114   2.417  18.310  0.00  0.00    +0.000 HD
BRANCH  22  24
ATOM     24  C   UNL     1       4.593   4.187  19.320  0.00  0.00    +0.000 C 
BRANCH  24  25
ATOM     25  C   UNL     1       5.423   4.595  18.127  0.00  0.00    +0.000 A 
ATOM     26  C   UNL     1       6.477   5.530  18.281  0.00  0.00    +0.000 A 
ATOM     27  C   UNL     1       7.296   5.874  17.202  0.00  0.00    +0.000 A 
ATOM     28  C   UNL     1       7.034   5.280  15.988  0.00  0.00    +0.000 A 
ATOM     29  C   UNL     1       6.010   4.375  15.828  0.00  0.00    +0.000 A 
ATOM     30  C   UNL     1       5.192   4.008  16.874  0.00  0.00    +0.000 A 
ATOM     31  O   UNL     1       5.922   3.913  14.552  0.00  0.00    +0.000 OA
ATOM     32  C   UNL     1       6.964   4.681  13.916  0.00  0.00    +0.000 C 
ATOM     33  O   UNL     1       7.719   5.498  14.833  0.00  0.00    +0.000 OA
ENDBRANCH  24  25
ENDBRANCH  22  24
ENDBRANCH  19  22
ENDBRANCH   6  19
TORSDOF 5
ENDMDL
MODEL 4
REMARK VINA RESULT:      -7.9      1.840      2.421
REMARK  Name = 
REMARK  5 active torsions:
REMARK  status: ('A' for Active; 'I' for Inactive)
REMARK    1  A    between atoms: C_2  and  C_3
REMARK    2  A    between atoms: C_8  and  S_9
REMARK    3  A    between atoms: S_9  and  N_12
REMARK    4  A    between atoms: N_12  and  C_13
REMARK    5  A    between atoms: C_13  and  C_14
REMARK                            x       y       z     vdW  Elec       q    Type
REMARK                         _______ _______ _______ _____ _____    ______ ____
ROOT
ATOM      1  C   UNL     1       1.193  10.300  18.927  0.00  0.00    +0.000 C 
ATOM      2  C   UNL     1       2.390  10.026  18.023  0.00  0.00    +0.000 C 
ATOM      3  O   UNL     1       2.515   8.641  17.691  0.00  0.00    +0.000 OA
ATOM      4  C   UNL     1       2.194   7.823  18.738  0.00  0.00    +0.000 A 
ATOM      5  C   UNL     1       2.452   6.476  18.545  0.00  0.00    +0.000 A 
ATOM      6  C   UNL     1       2.154   5.561  19.550  0.00  0.00    +0.000 A 
ATOM      7  C   UNL     1       1.625   5.997  20.772  0.00  0.00    +0.000 A 
ATOM      8  C   UNL     1       1.373   7.360  20.966  0.00  0.00    +0.000 A 
ATOM      9  C   UNL     1       1.636   8.266  19.937  0.00  0.00    +0.000 A 
ATOM     10  O   UNL     1       1.331   9.583  20.161  0.00  0.00    +0.000 OA
ENDROOT
BRANCH   1  12
ATOM     11  O   UNL     1      -0.196   9.451  17.121  0.00  0.00    +0.000 OA
ATOM     12  C   UNL     1      -0.150  10.005  18.221  0.00  0.00    +0.000 C 
ATOM     13  N   UNL     1      -1.306  10.406  18.871  0.00  0.00    +0.000 N 
ATOM     14  C   UNL     1      -2.617  10.057  18.321  0.00  0.00    +0.000 C 
ATOM     15  C   UNL     1      -3.420  11.324  18.016  0.00  0.00    +0.000 C 
ATOM     16  O   UNL     1      -3.509  12.173  19.174  0.00  0.00    +0.000 OA
ATOM     17  C   UNL     1      -2.201  12.555  19.629  0.00  0.00    +0.000 C 
ATOM     18  C   UNL     1      -1.371  11.326  20.011  0.00  0.00    +0.000 C 
ENDBRANCH   1  12
BRANCH   6  19
ATOM     19  S   UNL     1       2.517   3.836  19.285  0.00  0.00    +0.000 S 
ATOM     20  O   UNL     1       2.671   3.225  20.585  0.00  0.00    +0.000 OA
ATOM     21  O   UNL     1       1.571   3.354  18.309  0.00  0.00    +0.000 OA
BRANCH  19  22
ATOM     22  N   UNL     1       4.028   3.878  18.511  0.00  0.00    +0.000 NA
ATOM     23  H   UNL     1       4.763   3.469  19.097  0.00  0.00    +0.000 HD
BRANCH  22  24
ATOM     24  C   UNL     1       4.054   3.382  17.129  0.00  0.00    +0.000 C 
BRANCH  24  25
ATOM     25  C   UNL     1       5.115   4.038  16.282  0.00  0.00    +0.000 A 
ATOM     26  C   UNL     1       5.982   5.005  16.851  0.00  0.00    +0.000 A 
ATOM     27  C   UNL     1       7.011   5.579  16.100  0.00  0.00    +0.000 A 
ATOM     28  C   UNL     1       7.143   5.180  14.790  0.00  0.00    +0.000 A 
ATOM     29  C   UNL     1       6.303   4.247  14.226  0.00  0.00    +0.000 A 
ATOM     30  C   UNL     1       5.286   3.655  14.943  0.00  0.00    +0.000 A 
ATOM     31  O   UNL     1       6.603   4.000  12.923  0.00  0.00    +0.000 OA
ATOM     32  C   UNL     1       7.683   4.933  12.715  0.00  0.00    +0.000 C 
ATOM     33  O   UNL     1       8.077   5.634  13.911  0.00  0.00    +0.000 OA
ENDBRANCH  24  25
ENDBRANCH  22  24
ENDBRANCH  19  22
ENDBRANCH   6  19
TORSDOF 5
ENDMDL
MODEL 5
REMARK VINA RESULT:      -7.8      3.179      4.249
REMARK  Name = 
REMARK  5 active torsions:
REMARK  status: ('A' for Active; 'I' for Inactive)
REMARK    1  A    between atoms: C_2  and  C_3
REMARK    2  A    between atoms: C_8  and  S_9
REMARK    3  A    between atoms: S_9  and  N_12
REMARK    4  A    between atoms: N_12  and  C_13
REMARK    5  A    between atoms: C_13  and  C_14
REMARK                            x       y       z     vdW  Elec       q    Type
REMARK                         _______ _______ _______ _____ _____    ______ ____
ROOT
ATOM      1  C   UNL     1       0.444  12.128  19.266  0.00  0.00    +0.000 C 
ATOM      2  C   UNL     1      -0.645  11.403  20.050  0.00  0.00    +0.000 C 
ATOM      3  O   UNL     1      -0.187  10.167  20.602  0.00  0.00    +0.000 OA
ATOM      4  C   UNL     1       0.667   9.506  19.764  0.00  0.00    +0.000 A 
ATOM      5  C   UNL     1       1.018   8.225  20.158  0.00  0.00    +0.000 A 
ATOM      6  C   UNL     1       1.888   7.472  19.375  0.00  0.00    +0.000 A 
ATOM      7  C   UNL     1       2.383   7.988  18.170  0.00  0.00    +0.000 A 
ATOM      8  C   UNL     1       2.019   9.279  17.771  0.00  0.00    +0.000 A 
ATOM      9  C   UNL     1       1.180  10.044  18.584  0.00  0.00    +0.000 A 
ATOM     10  O   UNL     1       0.888  11.316  18.170  0.00  0.00    +0.000 OA
ENDROOT
BRANCH   1  12
ATOM     11  O   UNL     1       1.831  12.046  21.261  0.00  0.00    +0.000 OA
ATOM     12  C   UNL     1       1.610  12.582  20.173  0.00  0.00    +0.000 C 
ATOM     13  N   UNL     1       2.391  13.633  19.719  0.00  0.00    +0.000 N 
ATOM     14  C   UNL     1       3.582  14.040  20.468  0.00  0.00    +0.000 C 
ATOM     15  C   UNL     1       3.459  15.500  20.908  0.00  0.00    +0.000 C 
ATOM     16  O   UNL     1       3.183  16.359  19.787  0.00  0.00    +0.000 OA
ATOM     17  C   UNL     1       1.964  15.971  19.135  0.00  0.00    +0.000 C 
ATOM     18  C   UNL     1       2.053  14.534  18.614  0.00  0.00    +0.000 C 
ENDBRANCH   1  12
BRANCH   6  19
ATOM     19  S   UNL     1       2.307   5.820  19.893  0.00  0.00    +0.000 S 
ATOM     20  O   UNL     1       1.878   5.679  21.267  0.00  0.00    +0.000 OA
ATOM     21  O   UNL     1       1.867   4.928  18.849  0.00  0.00    +0.000 OA
BRANCH  19  22
ATOM     22  N   UNL     1       4.005   5.822  19.842  0.00  0.00    +0.000 NA
ATOM     23  H   UNL     1       4.409   6.095  20.743  0.00  0.00    +0.000 HD
BRANCH  22  24
ATOM     24  C   UNL     1       4.629   4.619  19.274  0.00  0.00    +0.000 C 
BRANCH  24  25
ATOM     25  C   UNL     1       5.429   4.899  18.027  0.00  0.00    +0.000 A 
ATOM     26  C   UNL     1       6.455   5.877  18.044  0.00  0.00    +0.000 A 
ATOM     27  C   UNL     1       7.248   6.107  16.916  0.00  0.00    +0.000 A 
ATOM     28  C   UNL     1       6.989   5.358  15.791  0.00  0.00    +0.000 A 
ATOM     29  C   UNL     1       5.991   4.411  15.762  0.00  0.00    +0.000 A 
ATOM     30  C   UNL     1       5.200   4.153  16.860  0.00  0.00    +0.000 A 
ATOM     31  O   UNL     1       5.901   3.790  14.556  0.00  0.00    +0.000 OA
ATOM     32  C   UNL     1       6.909   4.504  13.811  0.00  0.00    +0.000 C 
ATOM     33  O   UNL     1       7.651   5.451  14.606  0.00  0.00    +0.000 OA
ENDBRANCH  24  25
ENDBRANCH  22  24
ENDBRANCH  19  22
ENDBRANCH   6  19
TORSDOF 5
ENDMDL
MODEL 6
REMARK VINA RESULT:      -7.6      2.077      2.717
REMARK  Name = 
REMARK  5 active torsions:
REMARK  status: ('A' for Active; 'I' for Inactive)
REMARK    1  A    between atoms: C_2  and  C_3
REMARK    2  A    between atoms: C_8  and  S_9
REMARK    3  A    between atoms: S_9  and  N_12
REMARK    4  A    between atoms: N_12  and  C_13
REMARK    5  A    between atoms: C_13  and  C_14
REMARK                            x       y       z     vdW  Elec       q    Type
REMARK                         _______ _______ _______ _____ _____    ______ ____
ROOT
ATOM      1  C   UNL     1       0.261  11.880  19.472  0.00  0.00    +0.000 C 
ATOM      2  C   UNL     1       1.482  11.760  18.566  0.00  0.00    +0.000 C 
ATOM      3  O   UNL     1       1.755  10.406  18.197  0.00  0.00    +0.000 OA
ATOM      4  C   UNL     1       1.521   9.529  19.221  0.00  0.00    +0.000 A 
ATOM      5  C   UNL     1       1.922   8.223  18.992  0.00  0.00    +0.000 A 
ATOM      6  C   UNL     1       1.722   7.255  19.971  0.00  0.00    +0.000 A 
ATOM      7  C   UNL     1       1.147   7.599  21.201  0.00  0.00    +0.000 A 
ATOM      8  C   UNL     1       0.750   8.921  21.431  0.00  0.00    +0.000 A 
ATOM      9  C   UNL     1       0.917   9.878  20.428  0.00  0.00    +0.000 A 
ATOM     10  O   UNL     1       0.473  11.147  20.687  0.00  0.00    +0.000 OA
ENDROOT
BRANCH   1  12
ATOM     11  O   UNL     1      -1.033  11.024  17.600  0.00  0.00    +0.000 OA
ATOM     12  C   UNL     1      -1.041  11.462  18.752  0.00  0.00    +0.000 C 
ATOM     13  N   UNL     1      -2.227  11.617  19.452  0.00  0.00    +0.000 N 
ATOM     14  C   UNL     1      -3.486  11.135  18.881  0.00  0.00    +0.000 C 
ATOM     15  C   UNL     1      -4.474  12.293  18.721  0.00  0.00    +0.000 C 
ATOM     16  O   UNL     1      -4.657  12.994  19.964  0.00  0.00    +0.000 OA
ATOM     17  C   UNL     1      -3.409  13.518  20.443  0.00  0.00    +0.000 C 
ATOM     18  C   UNL     1      -2.397  12.393  20.684  0.00  0.00    +0.000 C 
ENDBRANCH   1  12
BRANCH   6  19
ATOM     19  S   UNL     1       2.267   5.587  19.661  0.00  0.00    +0.000 S 
ATOM     20  O   UNL     1       1.733   4.757  20.717  0.00  0.00    +0.000 OA
ATOM     21  O   UNL     1       2.022   5.318  18.265  0.00  0.00    +0.000 OA
BRANCH  19  22
ATOM     22  N   UNL     1       3.952   5.696  19.841  0.00  0.00    +0.000 NA
ATOM     23  H   UNL     1       4.212   5.983  20.791  0.00  0.00    +0.000 HD
BRANCH  22  24
ATOM     24  C   UNL     1       4.724   4.542  19.361  0.00  0.00    +0.000 C 
BRANCH  24  25
ATOM     25  C   UNL     1       5.486   4.825  18.090  0.00  0.00    +0.000 A 
ATOM     26  C   UNL     1       6.543   5.770  18.091  0.00  0.00    +0.000 A 
ATOM     27  C   UNL     1       7.301   6.001  16.940  0.00  0.00    +0.000 A 
ATOM     28  C   UNL     1       6.977   5.287  15.808  0.00  0.00    +0.000 A 
ATOM     29  C   UNL     1       5.949   4.372  15.796  0.00  0.00    +0.000 A 
ATOM     30  C   UNL     1       5.190   4.114  16.917  0.00  0.00    +0.000 A 
ATOM     31  O   UNL     1       5.795   3.783  14.581  0.00  0.00    +0.000 OA
ATOM     32  C   UNL     1       6.797   4.481  13.815  0.00  0.00    +0.000 C 
ATOM     33  O   UNL     1       7.597   5.386  14.602  0.00  0.00    +0.000 OA
ENDBRANCH  24  25
ENDBRANCH  22  24
ENDBRANCH  19  22
ENDBRANCH   6  19
TORSDOF 5
ENDMDL
MODEL 7
REMARK VINA RESULT:      -7.5      3.997      6.438
REMARK  Name = 
REMARK  5 active torsions:
REMARK  status: ('A' for Active; 'I' for Inactive)
REMARK    1  A    between atoms: C_2  and  C_3
REMARK    2  A    between atoms: C_8  and  S_9
REMARK    3  A    between atoms: S_9  and  N_12
REMARK    4  A    between atoms: N_12  and  C_13
REMARK    5  A    between atoms: C_13  and  C_14
REMARK                            x       y       z     vdW  Elec       q    Type
REMARK                         _______ _______ _______ _____ _____    ______ ____
ROOT
ATOM      1  C   UNL     1       0.440  14.712  18.794  0.00  0.00    +0.000 C 
ATOM      2  C   UNL     1       0.327  15.066  20.274  0.00  0.00    +0.000 C 
ATOM      3  O   UNL     1       0.681  13.972  21.124  0.00  0.00    +0.000 OA
ATOM      4  C   UNL     1       0.256  12.769  20.630  0.00  0.00    +0.000 A 
ATOM      5  C   UNL     1       0.414  11.686  21.479  0.00  0.00    +0.000 A 
ATOM      6  C   UNL     1       0.018  10.418  21.066  0.00  0.00    +0.000 A 
ATOM      7  C   UNL     1      -0.573  10.234  19.809  0.00  0.00    +0.000 A 
ATOM      8  C   UNL     1      -0.739  11.333  18.957  0.00  0.00    +0.000 A 
ATOM      9  C   UNL     1      -0.299  12.595  19.363  0.00  0.00    +0.000 A 
ATOM     10  O   UNL     1      -0.445  13.629  18.477  0.00  0.00    +0.000 OA
ENDROOT
BRANCH   1  12
ATOM     11  O   UNL     1       2.313  13.273  18.218  0.00  0.00    +0.000 OA
ATOM     12  C   UNL     1       1.899  14.423  18.375  0.00  0.00    +0.000 C 
ATOM     13  N   UNL     1       2.732  15.516  18.196  0.00  0.00    +0.000 N 
ATOM     14  C   UNL     1       4.092  15.327  17.686  0.00  0.00    +0.000 C 
ATOM     15  C   UNL     1       5.116  15.846  18.699  0.00  0.00    +0.000 C 
ATOM     16  O   UNL     1       4.840  17.210  19.064  0.00  0.00    +0.000 OA
ATOM     17  C   UNL     1       3.528  17.331  19.634  0.00  0.00    +0.000 C 
ATOM     18  C   UNL     1       2.453  16.885  18.637  0.00  0.00    +0.000 C 
ENDBRANCH   1  12
BRANCH   6  19
ATOM     19  S   UNL     1       0.212   9.045  22.185  0.00  0.00    +0.000 S 
ATOM     20  O   UNL     1       0.397   9.593  23.509  0.00  0.00    +0.000 OA
ATOM     21  O   UNL     1      -0.834   8.101  21.876  0.00  0.00    +0.000 OA
BRANCH  19  22
ATOM     22  N   UNL     1       1.668   8.336  21.672  0.00  0.00    +0.000 NA
ATOM     23  H   UNL     1       1.889   7.495  22.214  0.00  0.00    +0.000 HD
BRANCH  22  24
ATOM     24  C   UNL     1       1.807   8.137  20.223  0.00  0.00    +0.000 C 
BRANCH  24  25
ATOM     25  C   UNL     1       2.160   6.718  19.851  0.00  0.00    +0.000 A 
ATOM     26  C   UNL     1       1.741   5.642  20.673  0.00  0.00    +0.000 A 
ATOM     27  C   UNL     1       2.005   4.318  20.314  0.00  0.00    +0.000 A 
ATOM     28  C   UNL     1       2.692   4.100  19.141  0.00  0.00    +0.000 A 
ATOM     29  C   UNL     1       3.107   5.138  18.339  0.00  0.00    +0.000 A 
ATOM     30  C   UNL     1       2.853   6.454  18.660  0.00  0.00    +0.000 A 
ATOM     31  O   UNL     1       3.770   4.705  17.233  0.00  0.00    +0.000 OA
ATOM     32  C   UNL     1       3.782   3.282  17.468  0.00  0.00    +0.000 C 
ATOM     33  O   UNL     1       3.041   2.885  18.639  0.00  0.00    +0.000 OA
ENDBRANCH  24  25
ENDBRANCH  22  24
ENDBRANCH  19  22
ENDBRANCH   6  19
TORSDOF 5
ENDMDL
MODEL 8
REMARK VINA RESULT:      -7.3      1.938      8.735
REMARK  Name = 
REMARK  5 active torsions:
REMARK  status: ('A' for Active; 'I' for Inactive)
REMARK    1  A    between atoms: C_2  and  C_3
REMARK    2  A    between atoms: C_8  and  S_9
REMARK    3  A    between atoms: S_9  and  N_12
REMARK    4  A    between atoms: N_12  and  C_13
REMARK    5  A    between atoms: C_13  and  C_14
REMARK                            x       y       z     vdW  Elec       q    Type
REMARK                         _______ _______ _______ _____ _____    ______ ____
ROOT
ATOM      1  C   UNL     1       4.315   4.136  17.708  0.00  0.00    +0.000 C 
ATOM      2  C   UNL     1       4.000   5.316  16.795  0.00  0.00    +0.000 C 
ATOM      3  O   UNL     1       3.638   6.489  17.526  0.00  0.00    +0.000 OA
ATOM      4  C   UNL     1       2.882   6.203  18.629  0.00  0.00    +0.000 A 
ATOM      5  C   UNL     1       2.354   7.299  19.292  0.00  0.00    +0.000 A 
ATOM      6  C   UNL     1       1.575   7.113  20.430  0.00  0.00    +0.000 A 
ATOM      7  C   UNL     1       1.293   5.821  20.891  0.00  0.00    +0.000 A 
ATOM      8  C   UNL     1       1.821   4.716  20.214  0.00  0.00    +0.000 A 
ATOM      9  C   UNL     1       2.637   4.914  19.098  0.00  0.00    +0.000 A 
ATOM     10  O   UNL     1       3.164   3.801  18.497  0.00  0.00    +0.000 OA
ENDROOT
BRANCH   1  12
ATOM     11  O   UNL     1       5.646   3.986  19.737  0.00  0.00    +0.000 OA
ATOM     12  C   UNL     1       5.570   4.388  18.574  0.00  0.00    +0.000 C 
ATOM     13  N   UNL     1       6.604   5.103  17.992  0.00  0.00    +0.000 N 
ATOM     14  C   UNL     1       7.869   5.279  18.709  0.00  0.00    +0.000 C 
ATOM     15  C   UNL     1       8.157   6.768  18.919  0.00  0.00    +0.000 C 
ATOM     16  O   UNL     1       8.116   7.486  17.673  0.00  0.00    +0.000 OA
ATOM     17  C   UNL     1       6.830   7.350  17.048  0.00  0.00    +0.000 C 
ATOM     18  C   UNL     1       6.515   5.880  16.753  0.00  0.00    +0.000 C 
ENDBRANCH   1  12
BRANCH   6  19
ATOM     19  S   UNL     1       0.890   8.538  21.251  0.00  0.00    +0.000 S 
ATOM     20  O   UNL     1      -0.481   8.223  21.585  0.00  0.00    +0.000 OA
ATOM     21  O   UNL     1       1.852   8.956  22.240  0.00  0.00    +0.000 OA
BRANCH  19  22
ATOM     22  N   UNL     1       0.903   9.723  20.034  0.00  0.00    +0.000 NA
ATOM     23  H   UNL     1       0.728   9.316  19.110  0.00  0.00    +0.000 HD
BRANCH  22  24
ATOM     24  C   UNL     1       0.091  10.919  20.297  0.00  0.00    +0.000 C 
BRANCH  24  25
ATOM     25  C   UNL     1      -1.090  11.050  19.368  0.00  0.00    +0.000 A 
ATOM     26  C   UNL     1      -2.205  11.842  19.741  0.00  0.00    +0.000 A 
ATOM     27  C   UNL     1      -3.281  12.025  18.869  0.00  0.00    +0.000 A 
ATOM     28  C   UNL     1      -3.222  11.402  17.643  0.00  0.00    +0.000 A 
ATOM     29  C   UNL     1      -2.147  10.626  17.274  0.00  0.00    +0.000 A 
ATOM     30  C   UNL     1      -1.066  10.435  18.107  0.00  0.00    +0.000 A 
ATOM     31  O   UNL     1      -2.292  10.101  16.028  0.00  0.00    +0.000 OA
ATOM     32  C   UNL     1      -3.609  10.580  15.686  0.00  0.00    +0.000 C 
ATOM     33  O   UNL     1      -4.176  11.462  16.676  0.00  0.00    +0.000 OA
ENDBRANCH  24  25
ENDBRANCH  22  24
ENDBRANCH  19  22
ENDBRANCH   6  19
TORSDOF 5
ENDMDL
MODEL 9
REMARK VINA RESULT:      -7.2      2.969      8.634
REMARK  Name = 
REMARK  5 active torsions:
REMARK  status: ('A' for Active; 'I' for Inactive)
REMARK    1  A    between atoms: C_2  and  C_3
REMARK    2  A    between atoms: C_8  and  S_9
REMARK    3  A    between atoms: S_9  and  N_12
REMARK    4  A    between atoms: N_12  and  C_13
REMARK    5  A    between atoms: C_13  and  C_14
REMARK                            x       y       z     vdW  Elec       q    Type
REMARK                         _______ _______ _______ _____ _____    ______ ____
ROOT
ATOM      1  C   UNL     1       6.949   5.357  16.547  0.00  0.00    +0.000 C 
ATOM      2  C   UNL     1       7.436   4.750  17.858  0.00  0.00    +0.000 C 
ATOM      3  O   UNL     1       6.368   4.199  18.633  0.00  0.00    +0.000 OA
ATOM      4  C   UNL     1       5.229   4.951  18.560  0.00  0.00    +0.000 A 
ATOM      5  C   UNL     1       4.207   4.573  19.416  0.00  0.00    +0.000 A 
ATOM      6  C   UNL     1       3.005   5.273  19.413  0.00  0.00    +0.000 A 
ATOM      7  C   UNL     1       2.832   6.381  18.573  0.00  0.00    +0.000 A 
ATOM      8  C   UNL     1       3.870   6.766  17.716  0.00  0.00    +0.000 A 
ATOM      9  C   UNL     1       5.057   6.032  17.696  0.00  0.00    +0.000 A 
ATOM     10  O   UNL     1       6.025   6.423  16.808  0.00  0.00    +0.000 OA
ENDROOT
BRANCH   1  12
ATOM     11  O   UNL     1       5.951   3.206  16.010  0.00  0.00    +0.000 OA
ATOM     12  C   UNL     1       6.363   4.290  15.594  0.00  0.00    +0.000 C 
ATOM     13  N   UNL     1       6.335   4.598  14.243  0.00  0.00    +0.000 N 
ATOM     14  C   UNL     1       5.689   3.688  13.295  0.00  0.00    +0.000 C 
ATOM     15  C   UNL     1       6.697   3.208  12.249  0.00  0.00    +0.000 C 
ATOM     16  O   UNL     1       7.344   4.319  11.603  0.00  0.00    +0.000 OA
ATOM     17  C   UNL     1       8.032   5.137  12.563  0.00  0.00    +0.000 C 
ATOM     18  C   UNL     1       7.058   5.701  13.603  0.00  0.00    +0.000 C 
ENDBRANCH   1  12
BRANCH   6  19
ATOM     19  S   UNL     1       1.714   4.779  20.538  0.00  0.00    +0.000 S 
ATOM     20  O   UNL     1       0.754   4.010  19.780  0.00  0.00    +0.000 OA
ATOM     21  O   UNL     1       2.363   4.263  21.719  0.00  0.00    +0.000 OA
BRANCH  19  22
ATOM     22  N   UNL     1       1.009   6.259  20.984  0.00  0.00    +0.000 NA
ATOM     23  H   UNL     1       0.622   6.221  21.932  0.00  0.00    +0.000 HD
BRANCH  22  24
ATOM     24  C   UNL     1       1.826   7.455  20.745  0.00  0.00    +0.000 C 
BRANCH  24  25
ATOM     25  C   UNL     1       1.063   8.743  20.935  0.00  0.00    +0.000 A 
ATOM     26  C   UNL     1       0.869   9.623  19.841  0.00  0.00    +0.000 A 
ATOM     27  C   UNL     1       0.113  10.789  19.981  0.00  0.00    +0.000 A 
ATOM     28  C   UNL     1      -0.425  11.055  21.220  0.00  0.00    +0.000 A 
ATOM     29  C   UNL     1      -0.238  10.210  22.290  0.00  0.00    +0.000 A 
ATOM     30  C   UNL     1       0.494   9.047  22.181  0.00  0.00    +0.000 A 
ATOM     31  O   UNL     1      -0.849  10.660  23.418  0.00  0.00    +0.000 OA
ATOM     32  C   UNL     1      -1.383  11.916  22.951  0.00  0.00    +0.000 C 
ATOM     33  O   UNL     1      -1.178  12.141  21.542  0.00  0.00    +0.000 OA
ENDBRANCH  24  25
ENDBRANCH  22  24
ENDBRANCH  19  22
ENDBRANCH   6  19
TORSDOF 5
ENDMDL
