MODEL 1
REMARK VINA RESULT:      -7.8      0.000      0.000
REMARK  Name = 
REMARK  5 active torsions:
REMARK  status: ('A' for Active; 'I' for Inactive)
REMARK    1  A    between atoms: N_6  and  C_7
REMARK    2  A    between atoms: C_7  and  C_8
REMARK    3  A    between atoms: N_10  and  C_11
REMARK    4  A    between atoms: C_13  and  S_14
REMARK    5  A    between atoms: S_14  and  N_17
REMARK                            x       y       z     vdW  Elec       q    Type
REMARK                         _______ _______ _______ _____ _____    ______ ____
ROOT
ATOM      1  C   UNL     1       2.843   6.402  18.737  0.00  0.00    +0.000 A 
ATOM      2  C   UNL     1       3.757   6.608  17.691  0.00  0.00    +0.000 A 
ATOM      3  C   UNL     1       4.317   5.510  17.019  0.00  0.00    +0.000 A 
ATOM      4  C   UNL     1       4.025   4.207  17.434  0.00  0.00    +0.000 A 
ATOM      5  C   UNL     1       3.123   3.998  18.479  0.00  0.00    +0.000 A 
ATOM      6  C   UNL     1       2.531   5.088  19.121  0.00  0.00    +0.000 A 
ATOM      7 CL   UNL     1       1.348   4.774  20.343  0.00  0.00    +0.000 Cl
ENDROOT
BRANCH   1  10
ATOM      8  C   UNL     1       1.702   8.603  18.876  0.00  0.00    +0.000 C 
ATOM      9  O   UNL     1       1.543   8.770  17.668  0.00  0.00    +0.000 OA
ATOM     10  N   UNL     1       2.266   7.479  19.452  0.00  0.00    +0.000 N 
ATOM     11  H   UNL     1       2.001   7.293  20.423  0.00  0.00    +0.000 HD
BRANCH   8  12
ATOM     12  C   UNL     1       1.266   9.658  19.887  0.00  0.00    +0.000 C 
BRANCH  12  18
ATOM     13  N   UNL     1      -1.452  10.390  18.967  0.00  0.00    +0.000 NA
ATOM     14  C   UNL     1      -0.431  11.165  18.909  0.00  0.00    +0.000 A 
ATOM     15  S   UNL     1      -0.580  12.828  18.313  0.00  0.00    +0.000 S 
ATOM     16  C   UNL     1       1.151  13.052  18.463  0.00  0.00    +0.000 A 
ATOM     17  C   UNL     1       1.739  11.949  18.960  0.00  0.00    +0.000 A 
ATOM     18  N   UNL     1       0.877  10.900  19.235  0.00  0.00    +0.000 N 
ATOM     19  H   UNL     1      -2.257  10.950  18.649  0.00  0.00    +0.000 HD
ENDBRANCH  12  18
ENDBRANCH   8  12
ENDBRANCH   1  10
BRANCH   3  20
ATOM     20  S   UNL     1       5.517   5.754  15.717  0.00  0.00    +0.000 S 
ATOM     21  O   UNL     1       5.498   4.552  14.908  0.00  0.00    +0.000 OA
ATOM     22  O   UNL     1       5.246   7.048  15.124  0.00  0.00    +0.000 OA
BRANCH  20  23
ATOM     23  N   UNL     1       7.015   5.861  16.477  0.00  0.00    +0.000 NA
ATOM     24  C   UNL     1       7.534   4.733  17.262  0.00  0.00    +0.000 C 
ATOM     25  C   UNL     1       7.527   5.248  18.686  0.00  0.00    +0.000 C 
ATOM     26  C   UNL     1       7.853   6.724  18.547  0.00  0.00    +0.000 C 
ATOM     27  C   UNL     1       7.408   7.119  17.140  0.00  0.00    +0.000 C 
ENDBRANCH  20  23
ENDBRANCH   3  20
TORSDOF 5
ENDMDL
MODEL 2
REMARK VINA RESULT:      -7.8      0.616      1.261
REMARK  Name = 
REMARK  5 active torsions:
REMARK  status: ('A' for Active; 'I' for Inactive)
REMARK    1  A    between atoms: N_6  and  C_7
REMARK    2  A    between atoms: C_7  and  C_8
REMARK    3  A    between atoms: N_10  and  C_11
REMARK    4  A    between atoms: C_13  and  S_14
REMARK    5  A    between atoms: S_14  and  N_17
REMARK                            x       y       z     vdW  Elec       q    Type
REMARK                         _______ _______ _______ _____ _____    ______ ____
ROOT
ATOM      1  C   UNL     1       2.871   6.282  18.773  0.00  0.00    +0.000 A 
ATOM      2  C   UNL     1       3.807   6.488  17.746  0.00  0.00    +0.000 A 
ATOM      3  C   UNL     1       4.333   5.393  17.043  0.00  0.00    +0.000 A 
ATOM      4  C   UNL     1       3.986   4.088  17.410  0.00  0.00    +0.000 A 
ATOM      5  C   UNL     1       3.062   3.879  18.435  0.00  0.00    +0.000 A 
ATOM      6  C   UNL     1       2.503   4.968  19.108  0.00  0.00    +0.000 A 
ATOM      7 CL   UNL     1       1.292   4.659  20.302  0.00  0.00    +0.000 Cl
ENDROOT
BRANCH   1  10
ATOM      8  C   UNL     1       1.756   8.492  18.972  0.00  0.00    +0.000 C 
ATOM      9  O   UNL     1       1.562   8.675  17.770  0.00  0.00    +0.000 OA
ATOM     10  N   UNL     1       2.326   7.356  19.517  0.00  0.00    +0.000 N 
ATOM     11  H   UNL     1       2.088   7.160  20.493  0.00  0.00    +0.000 HD
BRANCH   8  12
ATOM     12  C   UNL     1       1.360   9.538  20.007  0.00  0.00    +0.000 C 
BRANCH  12  18
ATOM     13  N   UNL     1       1.822  12.349  19.198  0.00  0.00    +0.000 NA
ATOM     14  C   UNL     1       0.704  11.731  19.074  0.00  0.00    +0.000 A 
ATOM     15  S   UNL     1      -0.693  12.514  18.315  0.00  0.00    +0.000 S 
ATOM     16  C   UNL     1      -1.685  11.112  18.662  0.00  0.00    +0.000 A 
ATOM     17  C   UNL     1      -0.966  10.150  19.266  0.00  0.00    +0.000 A 
ATOM     18  N   UNL     1       0.366  10.464  19.483  0.00  0.00    +0.000 N 
ATOM     19  H   UNL     1       1.689  13.274  18.762  0.00  0.00    +0.000 HD
ENDBRANCH  12  18
ENDBRANCH   8  12
ENDBRANCH   1  10
BRANCH   3  20
ATOM     20  S   UNL     1       5.559   5.633  15.766  0.00  0.00    +0.000 S 
ATOM     21  O   UNL     1       5.559   4.429  14.961  0.00  0.00    +0.000 OA
ATOM     22  O   UNL     1       5.299   6.925  15.163  0.00  0.00    +0.000 OA
BRANCH  20  23
ATOM     23  N   UNL     1       7.041   5.745  16.557  0.00  0.00    +0.000 NA
ATOM     24  C   UNL     1       7.485   4.677  17.462  0.00  0.00    +0.000 C 
ATOM     25  C   UNL     1       7.466   5.329  18.829  0.00  0.00    +0.000 C 
ATOM     26  C   UNL     1       7.868   6.768  18.558  0.00  0.00    +0.000 C 
ATOM     27  C   UNL     1       7.479   7.043  17.106  0.00  0.00    +0.000 C 
ENDBRANCH  20  23
ENDBRANCH   3  20
TORSDOF 5
ENDMDL
MODEL 3
REMARK VINA RESULT:      -7.6      2.885      4.394
REMARK  Name = 
REMARK  5 active torsions:
REMARK  status: ('A' for Active; 'I' for Inactive)
REMARK    1  A    between atoms: N_6  and  C_7
REMARK    2  A    between atoms: C_7  and  C_8
REMARK    3  A    between atoms: N_10  and  C_11
REMARK    4  A    between atoms: C_13  and  S_14
REMARK    5  A    between atoms: S_14  and  N_17
REMARK                            x       y       z     vdW  Elec       q    Type
REMARK                         _______ _______ _______ _____ _____    ______ ____
ROOT
ATOM      1  C   UNL     1       3.912   6.156  17.601  0.00  0.00    +0.000 A 
ATOM      2  C   UNL     1       3.195   4.964  17.796  0.00  0.00    +0.000 A 
ATOM      3  C   UNL     1       3.879   3.758  18.015  0.00  0.00    +0.000 A 
ATOM      4  C   UNL     1       5.277   3.723  17.966  0.00  0.00    +0.000 A 
ATOM      5  C   UNL     1       5.993   4.904  17.765  0.00  0.00    +0.000 A 
ATOM      6  C   UNL     1       5.316   6.112  17.590  0.00  0.00    +0.000 A 
ATOM      7 CL   UNL     1       6.250   7.560  17.441  0.00  0.00    +0.000 Cl
ENDROOT
BRANCH   1  10
ATOM      8  C   UNL     1       2.438   8.042  18.261  0.00  0.00    +0.000 C 
ATOM      9  O   UNL     1       2.235   7.680  19.419  0.00  0.00    +0.000 OA
ATOM     10  N   UNL     1       3.264   7.391  17.362  0.00  0.00    +0.000 N 
ATOM     11  H   UNL     1       3.642   7.966  16.605  0.00  0.00    +0.000 HD
BRANCH   8  12
ATOM     12  C   UNL     1       1.779   9.295  17.694  0.00  0.00    +0.000 C 
BRANCH  12  18
ATOM     13  N   UNL     1       2.609  12.137  17.668  0.00  0.00    +0.000 NA
ATOM     14  C   UNL     1       1.894  11.596  18.587  0.00  0.00    +0.000 A 
ATOM     15  S   UNL     1       1.261  12.557  19.934  0.00  0.00    +0.000 S 
ATOM     16  C   UNL     1       0.589  11.114  20.666  0.00  0.00    +0.000 A 
ATOM     17  C   UNL     1       0.819  10.033  19.900  0.00  0.00    +0.000 A 
ATOM     18  N   UNL     1       1.521  10.283  18.732  0.00  0.00    +0.000 N 
ATOM     19  H   UNL     1       2.662  13.141  17.897  0.00  0.00    +0.000 HD
ENDBRANCH  12  18
ENDBRANCH   8  12
ENDBRANCH   1  10
BRANCH   3  20
ATOM     20  S   UNL     1       2.983   2.226  18.218  0.00  0.00    +0.000 S 
ATOM     21  O   UNL     1       1.990   2.186  17.164  0.00  0.00    +0.000 OA
ATOM     22  O   UNL     1       3.967   1.170  18.347  0.00  0.00    +0.000 OA
BRANCH  20  23
ATOM     23  N   UNL     1       2.185   2.343  19.696  0.00  0.00    +0.000 NA
ATOM     24  C   UNL     1       0.830   2.905  19.769  0.00  0.00    +0.000 C 
ATOM     25  C   UNL     1       1.015   4.202  20.527  0.00  0.00    +0.000 C 
ATOM     26  C   UNL     1       2.125   3.898  21.517  0.00  0.00    +0.000 C 
ATOM     27  C   UNL     1       2.934   2.759  20.898  0.00  0.00    +0.000 C 
ENDBRANCH  20  23
ENDBRANCH   3  20
TORSDOF 5
ENDMDL
MODEL 4
REMARK VINA RESULT:      -7.5      1.070      1.437
REMARK  Name = 
REMARK  5 active torsions:
REMARK  status: ('A' for Active; 'I' for Inactive)
REMARK    1  A    between atoms: N_6  and  C_7
REMARK    2  A    between atoms: C_7  and  C_8
REMARK    3  A    between atoms: N_10  and  C_11
REMARK    4  A    between atoms: C_13  and  S_14
REMARK    5  A    between atoms: S_14  and  N_17
REMARK                            x       y       z     vdW  Elec       q    Type
REMARK                         _______ _______ _______ _____ _____    ______ ____
ROOT
ATOM      1  C   UNL     1       2.708   6.891  18.751  0.00  0.00    +0.000 A 
ATOM      2  C   UNL     1       3.565   6.919  17.639  0.00  0.00    +0.000 A 
ATOM      3  C   UNL     1       4.243   5.755  17.243  0.00  0.00    +0.000 A 
ATOM      4  C   UNL     1       4.128   4.583  17.998  0.00  0.00    +0.000 A 
ATOM      5  C   UNL     1       3.284   4.554  19.109  0.00  0.00    +0.000 A 
ATOM      6  C   UNL     1       2.574   5.698  19.480  0.00  0.00    +0.000 A 
ATOM      7 CL   UNL     1       1.469   5.582  20.804  0.00  0.00    +0.000 Cl
ENDROOT
BRANCH   1  10
ATOM      8  C   UNL     1       1.788   9.175  18.431  0.00  0.00    +0.000 C 
ATOM      9  O   UNL     1       2.072   9.289  17.240  0.00  0.00    +0.000 OA
ATOM     10  N   UNL     1       2.017   8.044  19.194  0.00  0.00    +0.000 N 
ATOM     11  H   UNL     1       1.417   7.930  20.015  0.00  0.00    +0.000 HD
BRANCH   8  12
ATOM     12  C   UNL     1       1.123  10.311  19.201  0.00  0.00    +0.000 C 
BRANCH  12  18
ATOM     13  N   UNL     1      -0.845  12.155  20.425  0.00  0.00    +0.000 NA
ATOM     14  C   UNL     1      -1.065  11.446  19.378  0.00  0.00    +0.000 A 
ATOM     15  S   UNL     1      -2.601  11.566  18.501  0.00  0.00    +0.000 S 
ATOM     16  C   UNL     1      -2.096  10.287  17.414  0.00  0.00    +0.000 A 
ATOM     17  C   UNL     1      -0.853   9.867  17.708  0.00  0.00    +0.000 A 
ATOM     18  N   UNL     1      -0.255  10.512  18.779  0.00  0.00    +0.000 N 
ATOM     19  H   UNL     1      -1.681  12.743  20.556  0.00  0.00    +0.000 HD
ENDBRANCH  12  18
ENDBRANCH   8  12
ENDBRANCH   1  10
BRANCH   3  20
ATOM     20  S   UNL     1       5.372   5.784  15.859  0.00  0.00    +0.000 S 
ATOM     21  O   UNL     1       5.252   4.498  15.201  0.00  0.00    +0.000 OA
ATOM     22  O   UNL     1       5.122   7.012  15.131  0.00  0.00    +0.000 OA
BRANCH  20  23
ATOM     23  N   UNL     1       6.916   5.903  16.517  0.00  0.00    +0.000 NA
ATOM     24  C   UNL     1       7.554   4.734  17.138  0.00  0.00    +0.000 C 
ATOM     25  C   UNL     1       7.628   5.099  18.605  0.00  0.00    +0.000 C 
ATOM     26  C   UNL     1       7.865   6.599  18.603  0.00  0.00    +0.000 C 
ATOM     27  C   UNL     1       7.292   7.108  17.281  0.00  0.00    +0.000 C 
ENDBRANCH  20  23
ENDBRANCH   3  20
TORSDOF 5
ENDMDL
MODEL 5
REMARK VINA RESULT:      -7.4      2.841      4.256
REMARK  Name = 
REMARK  5 active torsions:
REMARK  status: ('A' for Active; 'I' for Inactive)
REMARK    1  A    between atoms: N_6  and  C_7
REMARK    2  A    between atoms: C_7  and  C_8
REMARK    3  A    between atoms: N_10  and  C_11
REMARK    4  A    between atoms: C_13  and  S_14
REMARK    5  A    between atoms: S_14  and  N_17
REMARK                            x       y       z     vdW  Elec       q    Type
REMARK                         _______ _______ _______ _____ _____    ______ ____
ROOT
ATOM      1  C   UNL     1       4.033   6.263  17.638  0.00  0.00    +0.000 A 
ATOM      2  C   UNL     1       3.257   5.103  17.790  0.00  0.00    +0.000 A 
ATOM      3  C   UNL     1       3.879   3.859  17.983  0.00  0.00    +0.000 A 
ATOM      4  C   UNL     1       5.274   3.758  17.950  0.00  0.00    +0.000 A 
ATOM      5  C   UNL     1       6.049   4.908  17.791  0.00  0.00    +0.000 A 
ATOM      6  C   UNL     1       5.434   6.152  17.642  0.00  0.00    +0.000 A 
ATOM      7 CL   UNL     1       6.438   7.556  17.546  0.00  0.00    +0.000 Cl
ENDROOT
BRANCH   1  10
ATOM      8  C   UNL     1       2.502   8.120  18.248  0.00  0.00    +0.000 C 
ATOM      9  O   UNL     1       2.116   7.655  19.320  0.00  0.00    +0.000 OA
ATOM     10  N   UNL     1       3.448   7.534  17.426  0.00  0.00    +0.000 N 
ATOM     11  H   UNL     1       3.948   8.168  16.797  0.00  0.00    +0.000 HD
BRANCH   8  12
ATOM     12  C   UNL     1       1.958   9.441  17.715  0.00  0.00    +0.000 C 
BRANCH  12  18
ATOM     13  N   UNL     1      -0.934   9.978  17.375  0.00  0.00    +0.000 NA
ATOM     14  C   UNL     1      -0.268  10.227  18.444  0.00  0.00    +0.000 A 
ATOM     15  S   UNL     1      -1.068  10.873  19.888  0.00  0.00    +0.000 S 
ATOM     16  C   UNL     1       0.476  10.995  20.706  0.00  0.00    +0.000 A 
ATOM     17  C   UNL     1       1.472  10.539  19.926  0.00  0.00    +0.000 A 
ATOM     18  N   UNL     1       1.078  10.087  18.677  0.00  0.00    +0.000 N 
ATOM     19  H   UNL     1      -1.918  10.199  17.590  0.00  0.00    +0.000 HD
ENDBRANCH  12  18
ENDBRANCH   8  12
ENDBRANCH   1  10
BRANCH   3  20
ATOM     20  S   UNL     1       2.908   2.367  18.131  0.00  0.00    +0.000 S 
ATOM     21  O   UNL     1       1.887   2.435  17.105  0.00  0.00    +0.000 OA
ATOM     22  O   UNL     1       3.837   1.256  18.176  0.00  0.00    +0.000 OA
BRANCH  20  23
ATOM     23  N   UNL     1       2.156   2.446  19.635  0.00  0.00    +0.000 NA
ATOM     24  C   UNL     1       0.818   3.037  19.769  0.00  0.00    +0.000 C 
ATOM     25  C   UNL     1       1.057   4.300  20.571  0.00  0.00    +0.000 C 
ATOM     26  C   UNL     1       2.187   3.930  21.515  0.00  0.00    +0.000 C 
ATOM     27  C   UNL     1       2.949   2.797  20.829  0.00  0.00    +0.000 C 
ENDBRANCH  20  23
ENDBRANCH   3  20
TORSDOF 5
ENDMDL
MODEL 6
REMARK VINA RESULT:      -7.4      3.711      4.973
REMARK  Name = 
REMARK  5 active torsions:
REMARK  status: ('A' for Active; 'I' for Inactive)
REMARK    1  A    between atoms: N_6  and  C_7
REMARK    2  A    between atoms: C_7  and  C_8
REMARK    3  A    between atoms: N_10  and  C_11
REMARK    4  A    between atoms: C_13  and  S_14
REMARK    5  A    between atoms: S_14  and  N_17
REMARK                            x       y       z     vdW  Elec       q    Type
REMARK                         _______ _______ _______ _____ _____    ______ ____
ROOT
ATOM      1  C   UNL     1       0.960   8.841  20.158  0.00  0.00    +0.000 A 
ATOM      2  C   UNL     1       1.503   7.571  20.407  0.00  0.00    +0.000 A 
ATOM      3  C   UNL     1       2.383   6.987  19.482  0.00  0.00    +0.000 A 
ATOM      4  C   UNL     1       2.664   7.634  18.274  0.00  0.00    +0.000 A 
ATOM      5  C   UNL     1       2.119   8.894  18.019  0.00  0.00    +0.000 A 
ATOM      6  C   UNL     1       1.278   9.496  18.956  0.00  0.00    +0.000 A 
ATOM      7 CL   UNL     1       0.708  11.097  18.636  0.00  0.00    +0.000 Cl
ENDROOT
BRANCH   1  10
ATOM      8  C   UNL     1       0.345   9.794  22.367  0.00  0.00    +0.000 C 
ATOM      9  O   UNL     1       1.451   9.683  22.895  0.00  0.00    +0.000 OA
ATOM     10  N   UNL     1       0.057   9.460  21.056  0.00  0.00    +0.000 N 
ATOM     11  H   UNL     1      -0.747   9.937  20.640  0.00  0.00    +0.000 HD
BRANCH   8  12
ATOM     12  C   UNL     1      -0.851  10.340  23.139  0.00  0.00    +0.000 C 
BRANCH  12  18
ATOM     13  N   UNL     1      -3.349  11.813  23.741  0.00  0.00    +0.000 NA
ATOM     14  C   UNL     1      -2.336  12.316  23.133  0.00  0.00    +0.000 A 
ATOM     15  S   UNL     1      -2.317  14.020  22.646  0.00  0.00    +0.000 S 
ATOM     16  C   UNL     1      -0.764  13.795  21.866  0.00  0.00    +0.000 A 
ATOM     17  C   UNL     1      -0.325  12.533  22.023  0.00  0.00    +0.000 A 
ATOM     18  N   UNL     1      -1.171  11.704  22.741  0.00  0.00    +0.000 N 
ATOM     19  H   UNL     1      -4.020  12.585  23.868  0.00  0.00    +0.000 HD
ENDBRANCH  12  18
ENDBRANCH   8  12
ENDBRANCH   1  10
BRANCH   3  20
ATOM     20  S   UNL     1       3.047   5.352  19.761  0.00  0.00    +0.000 S 
ATOM     21  O   UNL     1       4.481   5.452  19.576  0.00  0.00    +0.000 OA
ATOM     22  O   UNL     1       2.495   4.877  21.014  0.00  0.00    +0.000 OA
BRANCH  20  23
ATOM     23  N   UNL     1       2.418   4.378  18.542  0.00  0.00    +0.000 NA
ATOM     24  C   UNL     1       1.180   3.617  18.759  0.00  0.00    +0.000 C 
ATOM     25  C   UNL     1       1.636   2.174  18.755  0.00  0.00    +0.000 C 
ATOM     26  C   UNL     1       2.771   2.146  17.748  0.00  0.00    +0.000 C 
ATOM     27  C   UNL     1       3.331   3.568  17.712  0.00  0.00    +0.000 C 
ENDBRANCH  20  23
ENDBRANCH   3  20
TORSDOF 5
ENDMDL
MODEL 7
REMARK VINA RESULT:      -7.3      1.358      1.636
REMARK  Name = 
REMARK  5 active torsions:
REMARK  status: ('A' for Active; 'I' for Inactive)
REMARK    1  A    between atoms: N_6  and  C_7
REMARK    2  A    between atoms: C_7  and  C_8
REMARK    3  A    between atoms: N_10  and  C_11
REMARK    4  A    between atoms: C_13  and  S_14
REMARK    5  A    between atoms: S_14  and  N_17
REMARK                            x       y       z     vdW  Elec       q    Type
REMARK                         _______ _______ _______ _____ _____    ______ ____
ROOT
ATOM      1  C   UNL     1       2.951   7.829  18.487  0.00  0.00    +0.000 A 
ATOM      2  C   UNL     1       3.806   7.418  17.452  0.00  0.00    +0.000 A 
ATOM      3  C   UNL     1       4.186   6.070  17.346  0.00  0.00    +0.000 A 
ATOM      4  C   UNL     1       3.776   5.145  18.312  0.00  0.00    +0.000 A 
ATOM      5  C   UNL     1       2.932   5.552  19.347  0.00  0.00    +0.000 A 
ATOM      6  C   UNL     1       2.518   6.883  19.431  0.00  0.00    +0.000 A 
ATOM      7 CL   UNL     1       1.396   7.315  20.674  0.00  0.00    +0.000 Cl
ENDROOT
BRANCH   1  10
ATOM      8  C   UNL     1       1.401   9.733  18.117  0.00  0.00    +0.000 C 
ATOM      9  O   UNL     1       0.521   9.103  17.531  0.00  0.00    +0.000 OA
ATOM     10  N   UNL     1       2.555   9.179  18.641  0.00  0.00    +0.000 N 
ATOM     11  H   UNL     1       2.994   9.700  19.404  0.00  0.00    +0.000 HD
BRANCH   8  12
ATOM     12  C   UNL     1       1.287  11.238  18.336  0.00  0.00    +0.000 C 
BRANCH  12  18
ATOM     13  N   UNL     1      -1.210  12.562  17.450  0.00  0.00    +0.000 NA
ATOM     14  C   UNL     1      -0.998  12.129  18.640  0.00  0.00    +0.000 A 
ATOM     15  S   UNL     1      -2.256  12.230  19.885  0.00  0.00    +0.000 S 
ATOM     16  C   UNL     1      -1.146  11.587  21.078  0.00  0.00    +0.000 A 
ATOM     17  C   UNL     1       0.046  11.302  20.525  0.00  0.00    +0.000 A 
ATOM     18  N   UNL     1       0.142  11.575  19.169  0.00  0.00    +0.000 N 
ATOM     19  H   UNL     1      -2.185  12.896  17.434  0.00  0.00    +0.000 HD
ENDBRANCH  12  18
ENDBRANCH   8  12
ENDBRANCH   1  10
BRANCH   3  20
ATOM     20  S   UNL     1       5.310   5.539  16.063  0.00  0.00    +0.000 S 
ATOM     21  O   UNL     1       5.031   4.137  15.825  0.00  0.00    +0.000 OA
ATOM     22  O   UNL     1       5.215   6.504  14.986  0.00  0.00    +0.000 OA
BRANCH  20  23
ATOM     23  N   UNL     1       6.857   5.671  16.713  0.00  0.00    +0.000 NA
ATOM     24  C   UNL     1       7.360   4.658  17.651  0.00  0.00    +0.000 C 
ATOM     25  C   UNL     1       7.472   5.405  18.964  0.00  0.00    +0.000 C 
ATOM     26  C   UNL     1       7.873   6.811  18.557  0.00  0.00    +0.000 C 
ATOM     27  C   UNL     1       7.363   6.993  17.128  0.00  0.00    +0.000 C 
ENDBRANCH  20  23
ENDBRANCH   3  20
TORSDOF 5
ENDMDL
MODEL 8
REMARK VINA RESULT:      -7.2      1.120      1.268
REMARK  Name = 
REMARK  5 active torsions:
REMARK  status: ('A' for Active; 'I' for Inactive)
REMARK    1  A    between atoms: N_6  and  C_7
REMARK    2  A    between atoms: C_7  and  C_8
REMARK    3  A    between atoms: N_10  and  C_11
REMARK    4  A    between atoms: C_13  and  S_14
REMARK    5  A    between atoms: S_14  and  N_17
REMARK                            x       y       z     vdW  Elec       q    Type
REMARK                         _______ _______ _______ _____ _____    ______ ____
ROOT
ATOM      1  C   UNL     1       2.735   6.679  18.921  0.00  0.00    +0.000 A 
ATOM      2  C   UNL     1       3.593   6.835  17.820  0.00  0.00    +0.000 A 
ATOM      3  C   UNL     1       4.205   5.712  17.240  0.00  0.00    +0.000 A 
ATOM      4  C   UNL     1       4.024   4.444  17.801  0.00  0.00    +0.000 A 
ATOM      5  C   UNL     1       3.179   4.286  18.901  0.00  0.00    +0.000 A 
ATOM      6  C   UNL     1       2.534   5.395  19.453  0.00  0.00    +0.000 A 
ATOM      7 CL   UNL     1       1.423   5.133  20.752  0.00  0.00    +0.000 Cl
ENDROOT
BRANCH   1  10
ATOM      8  C   UNL     1       1.389   8.766  18.888  0.00  0.00    +0.000 C 
ATOM      9  O   UNL     1       1.120   8.755  17.688  0.00  0.00    +0.000 OA
ATOM     10  N   UNL     1       2.109   7.784  19.546  0.00  0.00    +0.000 N 
ATOM     11  H   UNL     1       1.941   7.705  20.552  0.00  0.00    +0.000 HD
BRANCH   8  12
ATOM     12  C   UNL     1       0.928   9.901  19.795  0.00  0.00    +0.000 C 
BRANCH  12  18
ATOM     13  N   UNL     1       0.974  12.398  21.387  0.00  0.00    +0.000 NA
ATOM     14  C   UNL     1       1.521  12.260  20.234  0.00  0.00    +0.000 A 
ATOM     15  S   UNL     1       2.445  13.581  19.498  0.00  0.00    +0.000 S 
ATOM     16  C   UNL     1       2.679  12.627  18.046  0.00  0.00    +0.000 A 
ATOM     17  C   UNL     1       2.120  11.411  18.173  0.00  0.00    +0.000 A 
ATOM     18  N   UNL     1       1.492  11.179  19.387  0.00  0.00    +0.000 N 
ATOM     19  H   UNL     1       1.226  13.342  21.714  0.00  0.00    +0.000 HD
ENDBRANCH  12  18
ENDBRANCH   8  12
ENDBRANCH   1  10
BRANCH   3  20
ATOM     20  S   UNL     1       5.335   5.897  15.868  0.00  0.00    +0.000 S 
ATOM     21  O   UNL     1       5.246   4.676  15.093  0.00  0.00    +0.000 OA
ATOM     22  O   UNL     1       5.057   7.182  15.257  0.00  0.00    +0.000 OA
BRANCH  20  23
ATOM     23  N   UNL     1       6.875   5.991  16.540  0.00  0.00    +0.000 NA
ATOM     24  C   UNL     1       7.503   4.802  17.132  0.00  0.00    +0.000 C 
ATOM     25  C   UNL     1       7.569   5.124  18.610  0.00  0.00    +0.000 C 
ATOM     26  C   UNL     1       7.812   6.622  18.652  0.00  0.00    +0.000 C 
ATOM     27  C   UNL     1       7.250   7.172  17.341  0.00  0.00    +0.000 C 
ENDBRANCH  20  23
ENDBRANCH   3  20
TORSDOF 5
ENDMDL
MODEL 9
REMARK VINA RESULT:      -7.2      2.812      4.321
REMARK  Name = 
REMARK  5 active torsions:
REMARK  status: ('A' for Active; 'I' for Inactive)
REMARK    1  A    between atoms: N_6  and  C_7
REMARK    2  A    between atoms: C_7  and  C_8
REMARK    3  A    between atoms: N_10  and  C_11
REMARK    4  A    between atoms: C_13  and  S_14
REMARK    5  A    between atoms: S_14  and  N_17
REMARK                            x       y       z     vdW  Elec       q    Type
REMARK                         _______ _______ _______ _____ _____    ______ ____
ROOT
ATOM      1  C   UNL     1       4.073   6.422  17.641  0.00  0.00    +0.000 A 
ATOM      2  C   UNL     1       3.267   5.280  17.780  0.00  0.00    +0.000 A 
ATOM      3  C   UNL     1       3.857   4.017  17.946  0.00  0.00    +0.000 A 
ATOM      4  C   UNL     1       5.249   3.879  17.899  0.00  0.00    +0.000 A 
ATOM      5  C   UNL     1       6.053   5.011  17.754  0.00  0.00    +0.000 A 
ATOM      6  C   UNL     1       5.470   6.273  17.632  0.00  0.00    +0.000 A 
ATOM      7 CL   UNL     1       6.511   7.652  17.552  0.00  0.00    +0.000 Cl
ENDROOT
BRANCH   1  10
ATOM      8  C   UNL     1       2.553   8.284  18.263  0.00  0.00    +0.000 C 
ATOM      9  O   UNL     1       2.116   7.786  19.299  0.00  0.00    +0.000 OA
ATOM     10  N   UNL     1       3.521   7.712  17.457  0.00  0.00    +0.000 N 
ATOM     11  H   UNL     1       4.057   8.359  16.873  0.00  0.00    +0.000 HD
BRANCH   8  12
ATOM     12  C   UNL     1       2.056   9.635  17.760  0.00  0.00    +0.000 C 
BRANCH  12  18
ATOM     13  N   UNL     1       1.439  11.248  20.166  0.00  0.00    +0.000 NA
ATOM     14  C   UNL     1       0.557  10.764  19.369  0.00  0.00    +0.000 A 
ATOM     15  S   UNL     1      -1.168  11.090  19.610  0.00  0.00    +0.000 S 
ATOM     16  C   UNL     1      -1.569  10.038  18.267  0.00  0.00    +0.000 A 
ATOM     17  C   UNL     1      -0.458   9.539  17.697  0.00  0.00    +0.000 A 
ATOM     18  N   UNL     1       0.732   9.947  18.279  0.00  0.00    +0.000 N 
ATOM     19  H   UNL     1       0.924  11.819  20.853  0.00  0.00    +0.000 HD
ENDBRANCH  12  18
ENDBRANCH   8  12
ENDBRANCH   1  10
BRANCH   3  20
ATOM     20  S   UNL     1       2.848   2.549  18.077  0.00  0.00    +0.000 S 
ATOM     21  O   UNL     1       1.811   2.670  17.071  0.00  0.00    +0.000 OA
ATOM     22  O   UNL     1       3.746   1.412  18.078  0.00  0.00    +0.000 OA
BRANCH  20  23
ATOM     23  N   UNL     1       2.125   2.612  19.596  0.00  0.00    +0.000 NA
ATOM     24  C   UNL     1       0.835   3.290  19.779  0.00  0.00    +0.000 C 
ATOM     25  C   UNL     1       1.176   4.494  20.632  0.00  0.00    +0.000 C 
ATOM     26  C   UNL     1       2.290   4.002  21.539  0.00  0.00    +0.000 C 
ATOM     27  C   UNL     1       2.959   2.850  20.790  0.00  0.00    +0.000 C 
ENDBRANCH  20  23
ENDBRANCH   3  20
TORSDOF 5
ENDMDL
