MODEL 1
REMARK VINA RESULT:      -9.0      0.000      0.000
REMARK  Name = 
REMARK  10 active torsions:
REMARK  status: ('A' for Active; 'I' for Inactive)
REMARK    1  A    between atoms: C_1  and  C_2
REMARK    2  A    between atoms: C_2  and  C_3
REMARK    3  A    between atoms: C_2  and  C_4
REMARK    4  A    between atoms: C_2  and  C_5
REMARK    5  A    between atoms: C_8  and  C_9
REMARK    6  A    between atoms: C_11  and  C_12
REMARK    7  A    between atoms: N_14  and  C_15
REMARK    8  A    between atoms: C_15  and  C_16
REMARK    9  A    between atoms: C_16  and  O_17
REMARK   10  A    between atoms: C_19  and  C_20
REMARK                            x       y       z     vdW  Elec       q    Type
REMARK                         _______ _______ _______ _____ _____    ______ ____
ROOT
ATOM      1  C   UNL     1       3.100   5.927  19.146  0.00  0.00    +0.000 A 
ATOM      2  C   UNL     1       3.133   4.767  19.918  0.00  0.00    +0.000 A 
ATOM      3  C   UNL     1       4.080   3.756  19.710  0.00  0.00    +0.000 A 
ATOM      4  C   UNL     1       4.958   3.869  18.614  0.00  0.00    +0.000 A 
ATOM      5  C   UNL     1       4.882   4.981  17.728  0.00  0.00    +0.000 A 
ATOM      6  C   UNL     1       3.996   6.014  18.076  0.00  0.00    +0.000 A 
ENDROOT
BRANCH   5   7
ATOM      7  C   UNL     1       5.594   5.098  16.427  0.00  0.00    +0.000 A 
ATOM      8  C   UNL     1       6.848   5.667  16.292  0.00  0.00    +0.000 A 
ATOM      9  N   UNL     1       7.559   5.660  15.142  0.00  0.00    +0.000 NA
ATOM     10  C   UNL     1       7.028   4.978  14.110  0.00  0.00    +0.000 A 
ATOM     11  C   UNL     1       7.762   4.850  12.939  0.00  0.00    +0.000 A 
ATOM     12  C   UNL     1       7.310   4.072  11.877  0.00  0.00    +0.000 A 
ATOM     13  C   UNL     1       6.096   3.408  11.977  0.00  0.00    +0.000 A 
ATOM     14  C   UNL     1       5.322   3.571  13.138  0.00  0.00    +0.000 A 
ATOM     15  C   UNL     1       5.767   4.344  14.218  0.00  0.00    +0.000 A 
ATOM     16  N   UNL     1       5.045   4.445  15.356  0.00  0.00    +0.000 NA
ENDBRANCH   5   7
BRANCH   1  20
ATOM     17  C   UNL     1       0.806   9.367  20.319  0.00  0.00    +0.000 A 
ATOM     18  C   UNL     1       0.915   8.248  21.151  0.00  0.00    +0.000 A 
ATOM     19  C   UNL     1       1.615   7.118  20.747  0.00  0.00    +0.000 A 
ATOM     20  C   UNL     1       2.211   7.046  19.482  0.00  0.00    +0.000 A 
ATOM     21  C   UNL     1       1.995   8.113  18.600  0.00  0.00    +0.000 A 
ATOM     22  C   UNL     1       1.316   9.259  19.014  0.00  0.00    +0.000 A 
BRANCH  17  24
ATOM     23  C   UNL     1      -1.040  11.119  20.033  0.00  0.00    +0.000 C 
ATOM     24  C   UNL     1       0.220  10.689  20.820  0.00  0.00    +0.000 C 
ATOM     25  C   UNL     1       1.266  11.809  20.698  0.00  0.00    +0.000 C 
ATOM     26  C   UNL     1      -0.198  10.524  22.298  0.00  0.00    +0.000 C 
ENDBRANCH  17  24
ENDBRANCH   1  20
BRANCH   3  27
ATOM     27  C   UNL     1       4.011   2.642  20.715  0.00  0.00    +0.000 C 
ATOM     28  O   UNL     1       3.071   2.601  21.510  0.00  0.00    +0.000 OA
ATOM     29  N   UNL     1       5.012   1.697  20.768  0.00  0.00    +0.000 N 
ATOM     30  H   UNL     1       5.842   1.778  20.201  0.00  0.00    +0.000 HD
BRANCH  29  31
ATOM     31  C   UNL     1       5.011   0.716  21.857  0.00  0.00    +0.000 C 
BRANCH  31  32
ATOM     32  C   UNL     1       6.410   0.183  22.178  0.00  0.00    +0.000 C 
BRANCH  32  33
ATOM     33  O   UNL     1       6.308  -1.044  22.900  0.00  0.00    +0.000 OA
ATOM     34  H   UNL     1       5.803  -0.830  23.704  0.00  0.00    +0.000 HD
ENDBRANCH  32  33
ENDBRANCH  31  32
ENDBRANCH  29  31
ENDBRANCH   3  27
TORSDOF 7
ENDMDL
MODEL 2
REMARK VINA RESULT:      -8.7      0.822      1.394
REMARK  Name = 
REMARK  10 active torsions:
REMARK  status: ('A' for Active; 'I' for Inactive)
REMARK    1  A    between atoms: C_1  and  C_2
REMARK    2  A    between atoms: C_2  and  C_3
REMARK    3  A    between atoms: C_2  and  C_4
REMARK    4  A    between atoms: C_2  and  C_5
REMARK    5  A    between atoms: C_8  and  C_9
REMARK    6  A    between atoms: C_11  and  C_12
REMARK    7  A    between atoms: N_14  and  C_15
REMARK    8  A    between atoms: C_15  and  C_16
REMARK    9  A    between atoms: C_16  and  O_17
REMARK   10  A    between atoms: C_19  and  C_20
REMARK                            x       y       z     vdW  Elec       q    Type
REMARK                         _______ _______ _______ _____ _____    ______ ____
ROOT
ATOM      1  C   UNL     1       3.267   6.273  18.700  0.00  0.00    +0.000 A 
ATOM      2  C   UNL     1       3.179   5.147  19.516  0.00  0.00    +0.000 A 
ATOM      3  C   UNL     1       4.001   4.027  19.336  0.00  0.00    +0.000 A 
ATOM      4  C   UNL     1       4.868   3.997  18.226  0.00  0.00    +0.000 A 
ATOM      5  C   UNL     1       4.907   5.077  17.300  0.00  0.00    +0.000 A 
ATOM      6  C   UNL     1       4.149   6.217  17.617  0.00  0.00    +0.000 A 
ENDROOT
BRANCH   5   7
ATOM      7  C   UNL     1       5.606   5.063  15.986  0.00  0.00    +0.000 A 
ATOM      8  C   UNL     1       6.903   5.510  15.809  0.00  0.00    +0.000 A 
ATOM      9  N   UNL     1       7.594   5.381  14.653  0.00  0.00    +0.000 NA
ATOM     10  C   UNL     1       6.989   4.697  13.664  0.00  0.00    +0.000 A 
ATOM     11  C   UNL     1       7.691   4.445  12.494  0.00  0.00    +0.000 A 
ATOM     12  C   UNL     1       7.156   3.657  11.479  0.00  0.00    +0.000 A 
ATOM     13  C   UNL     1       5.889   3.109  11.626  0.00  0.00    +0.000 A 
ATOM     14  C   UNL     1       5.150   3.400  12.785  0.00  0.00    +0.000 A 
ATOM     15  C   UNL     1       5.679   4.185  13.818  0.00  0.00    +0.000 A 
ATOM     16  N   UNL     1       4.986   4.407  14.957  0.00  0.00    +0.000 NA
ENDBRANCH   5   7
BRANCH   1  20
ATOM     17  C   UNL     1       0.764   9.696  19.397  0.00  0.00    +0.000 A 
ATOM     18  C   UNL     1       1.523   9.577  18.228  0.00  0.00    +0.000 A 
ATOM     19  C   UNL     1       2.369   8.494  18.029  0.00  0.00    +0.000 A 
ATOM     20  C   UNL     1       2.517   7.498  19.003  0.00  0.00    +0.000 A 
ATOM     21  C   UNL     1       1.857   7.682  20.225  0.00  0.00    +0.000 A 
ATOM     22  C   UNL     1       0.986   8.755  20.415  0.00  0.00    +0.000 A 
BRANCH  17  24
ATOM     23  C   UNL     1       0.137  12.155  19.045  0.00  0.00    +0.000 C 
ATOM     24  C   UNL     1      -0.321  10.766  19.547  0.00  0.00    +0.000 C 
ATOM     25  C   UNL     1      -0.727  10.901  21.024  0.00  0.00    +0.000 C 
ATOM     26  C   UNL     1      -1.549  10.356  18.704  0.00  0.00    +0.000 C 
ENDBRANCH  17  24
ENDBRANCH   1  20
BRANCH   3  27
ATOM     27  C   UNL     1       3.821   2.966  20.385  0.00  0.00    +0.000 C 
ATOM     28  O   UNL     1       2.804   2.966  21.078  0.00  0.00    +0.000 OA
ATOM     29  N   UNL     1       4.806   2.024  20.589  0.00  0.00    +0.000 N 
ATOM     30  H   UNL     1       5.690   2.075  20.109  0.00  0.00    +0.000 HD
BRANCH  29  31
ATOM     31  C   UNL     1       4.685   1.100  21.722  0.00  0.00    +0.000 C 
BRANCH  31  32
ATOM     32  C   UNL     1       5.944   0.256  21.936  0.00  0.00    +0.000 C 
BRANCH  32  33
ATOM     33  O   UNL     1       6.888   0.982  22.722  0.00  0.00    +0.000 OA
ATOM     34  H   UNL     1       6.362   1.436  23.404  0.00  0.00    +0.000 HD
ENDBRANCH  32  33
ENDBRANCH  31  32
ENDBRANCH  29  31
ENDBRANCH   3  27
TORSDOF 7
ENDMDL
MODEL 3
REMARK VINA RESULT:      -8.6      6.075     11.373
REMARK  Name = 
REMARK  10 active torsions:
REMARK  status: ('A' for Active; 'I' for Inactive)
REMARK    1  A    between atoms: C_1  and  C_2
REMARK    2  A    between atoms: C_2  and  C_3
REMARK    3  A    between atoms: C_2  and  C_4
REMARK    4  A    between atoms: C_2  and  C_5
REMARK    5  A    between atoms: C_8  and  C_9
REMARK    6  A    between atoms: C_11  and  C_12
REMARK    7  A    between atoms: N_14  and  C_15
REMARK    8  A    between atoms: C_15  and  C_16
REMARK    9  A    between atoms: C_16  and  O_17
REMARK   10  A    between atoms: C_19  and  C_20
REMARK                            x       y       z     vdW  Elec       q    Type
REMARK                         _______ _______ _______ _____ _____    ______ ____
ROOT
ATOM      1  C   UNL     1       1.030  10.348  18.731  0.00  0.00    +0.000 A 
ATOM      2  C   UNL     1       1.835  11.484  18.659  0.00  0.00    +0.000 A 
ATOM      3  C   UNL     1       1.304  12.780  18.678  0.00  0.00    +0.000 A 
ATOM      4  C   UNL     1      -0.096  12.935  18.661  0.00  0.00    +0.000 A 
ATOM      5  C   UNL     1      -0.957  11.803  18.615  0.00  0.00    +0.000 A 
ATOM      6  C   UNL     1      -0.354  10.538  18.728  0.00  0.00    +0.000 A 
ENDROOT
BRANCH   5   7
ATOM      7  C   UNL     1      -2.424  11.843  18.369  0.00  0.00    +0.000 A 
ATOM      8  C   UNL     1      -3.021  11.322  17.236  0.00  0.00    +0.000 A 
ATOM      9  N   UNL     1      -4.360  11.234  17.061  0.00  0.00    +0.000 NA
ATOM     10  C   UNL     1      -5.128  11.605  18.103  0.00  0.00    +0.000 A 
ATOM     11  C   UNL     1      -6.503  11.438  18.017  0.00  0.00    +0.000 A 
ATOM     12  C   UNL     1      -7.338  11.707  19.098  0.00  0.00    +0.000 A 
ATOM     13  C   UNL     1      -6.795  12.158  20.293  0.00  0.00    +0.000 A 
ATOM     14  C   UNL     1      -5.410  12.378  20.374  0.00  0.00    +0.000 A 
ATOM     15  C   UNL     1      -4.557  12.104  19.298  0.00  0.00    +0.000 A 
ATOM     16  N   UNL     1      -3.219  12.258  19.404  0.00  0.00    +0.000 NA
ENDBRANCH   5   7
BRANCH   1  20
ATOM     17  C   UNL     1       2.357   6.279  19.125  0.00  0.00    +0.000 A 
ATOM     18  C   UNL     1       1.957   7.024  20.239  0.00  0.00    +0.000 A 
ATOM     19  C   UNL     1       1.577   8.355  20.114  0.00  0.00    +0.000 A 
ATOM     20  C   UNL     1       1.609   9.007  18.876  0.00  0.00    +0.000 A 
ATOM     21  C   UNL     1       2.131   8.301  17.784  0.00  0.00    +0.000 A 
ATOM     22  C   UNL     1       2.487   6.957  17.902  0.00  0.00    +0.000 A 
BRANCH  17  24
ATOM     23  C   UNL     1       1.836   4.117  20.395  0.00  0.00    +0.000 C 
ATOM     24  C   UNL     1       2.580   4.767  19.205  0.00  0.00    +0.000 C 
ATOM     25  C   UNL     1       4.080   4.463  19.355  0.00  0.00    +0.000 C 
ATOM     26  C   UNL     1       2.042   4.111  17.914  0.00  0.00    +0.000 C 
ENDBRANCH  17  24
ENDBRANCH   1  20
BRANCH   3  27
ATOM     27  C   UNL     1       2.344  13.863  18.699  0.00  0.00    +0.000 C 
ATOM     28  O   UNL     1       2.627  14.410  19.765  0.00  0.00    +0.000 OA
ATOM     29  N   UNL     1       2.947  14.264  17.527  0.00  0.00    +0.000 N 
ATOM     30  H   UNL     1       2.649  13.906  16.633  0.00  0.00    +0.000 HD
BRANCH  29  31
ATOM     31  C   UNL     1       3.837  15.429  17.544  0.00  0.00    +0.000 C 
BRANCH  31  32
ATOM     32  C   UNL     1       3.096  16.745  17.296  0.00  0.00    +0.000 C 
BRANCH  32  33
ATOM     33  O   UNL     1       2.808  17.382  18.541  0.00  0.00    +0.000 OA
ATOM     34  H   UNL     1       3.671  17.651  18.900  0.00  0.00    +0.000 HD
ENDBRANCH  32  33
ENDBRANCH  31  32
ENDBRANCH  29  31
ENDBRANCH   3  27
TORSDOF 7
ENDMDL
MODEL 4
REMARK VINA RESULT:      -8.5      6.193     11.294
REMARK  Name = 
REMARK  10 active torsions:
REMARK  status: ('A' for Active; 'I' for Inactive)
REMARK    1  A    between atoms: C_1  and  C_2
REMARK    2  A    between atoms: C_2  and  C_3
REMARK    3  A    between atoms: C_2  and  C_4
REMARK    4  A    between atoms: C_2  and  C_5
REMARK    5  A    between atoms: C_8  and  C_9
REMARK    6  A    between atoms: C_11  and  C_12
REMARK    7  A    between atoms: N_14  and  C_15
REMARK    8  A    between atoms: C_15  and  C_16
REMARK    9  A    between atoms: C_16  and  O_17
REMARK   10  A    between atoms: C_19  and  C_20
REMARK                            x       y       z     vdW  Elec       q    Type
REMARK                         _______ _______ _______ _____ _____    ______ ____
ROOT
ATOM      1  C   UNL     1       0.919  10.635  18.730  0.00  0.00    +0.000 A 
ATOM      2  C   UNL     1       1.660  11.802  18.552  0.00  0.00    +0.000 A 
ATOM      3  C   UNL     1       1.066  13.070  18.529  0.00  0.00    +0.000 A 
ATOM      4  C   UNL     1      -0.340  13.157  18.579  0.00  0.00    +0.000 A 
ATOM      5  C   UNL     1      -1.143  11.984  18.644  0.00  0.00    +0.000 A 
ATOM      6  C   UNL     1      -0.472  10.758  18.793  0.00  0.00    +0.000 A 
ENDROOT
BRANCH   5   7
ATOM      7  C   UNL     1      -2.621  11.940  18.477  0.00  0.00    +0.000 A 
ATOM      8  C   UNL     1      -3.249  11.350  17.395  0.00  0.00    +0.000 A 
ATOM      9  N   UNL     1      -4.588  11.187  17.297  0.00  0.00    +0.000 NA
ATOM     10  C   UNL     1      -5.318  11.554  18.367  0.00  0.00    +0.000 A 
ATOM     11  C   UNL     1      -6.686  11.313  18.361  0.00  0.00    +0.000 A 
ATOM     12  C   UNL     1      -7.476  11.576  19.477  0.00  0.00    +0.000 A 
ATOM     13  C   UNL     1      -6.895  12.095  20.626  0.00  0.00    +0.000 A 
ATOM     14  C   UNL     1      -5.521  12.389  20.624  0.00  0.00    +0.000 A 
ATOM     15  C   UNL     1      -4.713  12.123  19.512  0.00  0.00    +0.000 A 
ATOM     16  N   UNL     1      -3.381  12.349  19.541  0.00  0.00    +0.000 NA
ENDBRANCH   5   7
BRANCH   1  20
ATOM     17  C   UNL     1       2.479   6.658  19.200  0.00  0.00    +0.000 A 
ATOM     18  C   UNL     1       1.902   7.344  20.274  0.00  0.00    +0.000 A 
ATOM     19  C   UNL     1       1.445   8.648  20.130  0.00  0.00    +0.000 A 
ATOM     20  C   UNL     1       1.572   9.333  18.916  0.00  0.00    +0.000 A 
ATOM     21  C   UNL     1       2.264   8.694  17.879  0.00  0.00    +0.000 A 
ATOM     22  C   UNL     1       2.699   7.376  18.013  0.00  0.00    +0.000 A 
BRANCH  17  24
ATOM     23  C   UNL     1       2.217   4.366  18.088  0.00  0.00    +0.000 C 
ATOM     24  C   UNL     1       2.800   5.163  19.278  0.00  0.00    +0.000 C 
ATOM     25  C   UNL     1       2.230   4.569  20.577  0.00  0.00    +0.000 C 
ATOM     26  C   UNL     1       4.333   4.976  19.247  0.00  0.00    +0.000 C 
ENDBRANCH  17  24
ENDBRANCH   1  20
BRANCH   3  27
ATOM     27  C   UNL     1       2.049  14.201  18.432  0.00  0.00    +0.000 C 
ATOM     28  O   UNL     1       1.676  15.350  18.669  0.00  0.00    +0.000 OA
ATOM     29  N   UNL     1       3.349  13.955  18.046  0.00  0.00    +0.000 N 
ATOM     30  H   UNL     1       3.642  13.040  17.741  0.00  0.00    +0.000 HD
BRANCH  29  31
ATOM     31  C   UNL     1       4.247  15.087  17.801  0.00  0.00    +0.000 C 
BRANCH  31  32
ATOM     32  C   UNL     1       5.725  14.690  17.831  0.00  0.00    +0.000 C 
BRANCH  32  33
ATOM     33  O   UNL     1       6.516  15.796  18.268  0.00  0.00    +0.000 OA
ATOM     34  H   UNL     1       7.264  15.403  18.751  0.00  0.00    +0.000 HD
ENDBRANCH  32  33
ENDBRANCH  31  32
ENDBRANCH  29  31
ENDBRANCH   3  27
TORSDOF 7
ENDMDL
MODEL 5
REMARK VINA RESULT:      -8.4      5.676     11.667
REMARK  Name = 
REMARK  10 active torsions:
REMARK  status: ('A' for Active; 'I' for Inactive)
REMARK    1  A    between atoms: C_1  and  C_2
REMARK    2  A    between atoms: C_2  and  C_3
REMARK    3  A    between atoms: C_2  and  C_4
REMARK    4  A    between atoms: C_2  and  C_5
REMARK    5  A    between atoms: C_8  and  C_9
REMARK    6  A    between atoms: C_11  and  C_12
REMARK    7  A    between atoms: N_14  and  C_15
REMARK    8  A    between atoms: C_15  and  C_16
REMARK    9  A    between atoms: C_16  and  O_17
REMARK   10  A    between atoms: C_19  and  C_20
REMARK                            x       y       z     vdW  Elec       q    Type
REMARK                         _______ _______ _______ _____ _____    ______ ____
ROOT
ATOM      1  C   UNL     1       0.223   9.856  18.947  0.00  0.00    +0.000 A 
ATOM      2  C   UNL     1      -0.844   9.862  18.050  0.00  0.00    +0.000 A 
ATOM      3  C   UNL     1      -1.846  10.840  18.086  0.00  0.00    +0.000 A 
ATOM      4  C   UNL     1      -1.829  11.785  19.131  0.00  0.00    +0.000 A 
ATOM      5  C   UNL     1      -0.823  11.745  20.137  0.00  0.00    +0.000 A 
ATOM      6  C   UNL     1       0.217  10.817  19.962  0.00  0.00    +0.000 A 
ENDROOT
BRANCH   5   7
ATOM      7  C   UNL     1      -0.830  12.537  21.397  0.00  0.00    +0.000 A 
ATOM      8  C   UNL     1       0.151  13.456  21.725  0.00  0.00    +0.000 A 
ATOM      9  N   UNL     1       0.087  14.275  22.800  0.00  0.00    +0.000 NA
ATOM     10  C   UNL     1      -1.047  14.230  23.524  0.00  0.00    +0.000 A 
ATOM     11  C   UNL     1      -1.208  15.122  24.575  0.00  0.00    +0.000 A 
ATOM     12  C   UNL     1      -2.398  15.193  25.294  0.00  0.00    +0.000 A 
ATOM     13  C   UNL     1      -3.454  14.353  24.965  0.00  0.00    +0.000 A 
ATOM     14  C   UNL     1      -3.282  13.413  23.935  0.00  0.00    +0.000 A 
ATOM     15  C   UNL     1      -2.094  13.336  23.199  0.00  0.00    +0.000 A 
ATOM     16  N   UNL     1      -1.960  12.471  22.169  0.00  0.00    +0.000 NA
ENDBRANCH   5   7
BRANCH   1  20
ATOM     17  C   UNL     1       3.254   6.867  18.356  0.00  0.00    +0.000 A 
ATOM     18  C   UNL     1       2.522   6.934  19.546  0.00  0.00    +0.000 A 
ATOM     19  C   UNL     1       1.578   7.932  19.753  0.00  0.00    +0.000 A 
ATOM     20  C   UNL     1       1.348   8.925  18.793  0.00  0.00    +0.000 A 
ATOM     21  C   UNL     1       2.169   8.934  17.658  0.00  0.00    +0.000 A 
ATOM     22  C   UNL     1       3.097   7.916  17.436  0.00  0.00    +0.000 A 
BRANCH  17  24
ATOM     23  C   UNL     1       5.089   5.935  16.831  0.00  0.00    +0.000 C 
ATOM     24  C   UNL     1       4.142   5.665  18.024  0.00  0.00    +0.000 C 
ATOM     25  C   UNL     1       3.272   4.445  17.678  0.00  0.00    +0.000 C 
ATOM     26  C   UNL     1       5.028   5.343  19.248  0.00  0.00    +0.000 C 
ENDBRANCH  17  24
ENDBRANCH   1  20
BRANCH   3  27
ATOM     27  C   UNL     1      -2.844  10.729  16.970  0.00  0.00    +0.000 C 
ATOM     28  O   UNL     1      -4.036  10.570  17.237  0.00  0.00    +0.000 OA
ATOM     29  N   UNL     1      -2.422  10.768  15.659  0.00  0.00    +0.000 N 
ATOM     30  H   UNL     1      -1.442  10.786  15.423  0.00  0.00    +0.000 HD
BRANCH  29  31
ATOM     31  C   UNL     1      -3.387  10.495  14.590  0.00  0.00    +0.000 C 
BRANCH  31  32
ATOM     32  C   UNL     1      -2.809   9.616  13.478  0.00  0.00    +0.000 C 
BRANCH  32  33
ATOM     33  O   UNL     1      -3.563   9.791  12.279  0.00  0.00    +0.000 OA
ATOM     34  H   UNL     1      -3.172  10.564  11.838  0.00  0.00    +0.000 HD
ENDBRANCH  32  33
ENDBRANCH  31  32
ENDBRANCH  29  31
ENDBRANCH   3  27
TORSDOF 7
ENDMDL
MODEL 6
REMARK VINA RESULT:      -8.4      6.267     11.616
REMARK  Name = 
REMARK  10 active torsions:
REMARK  status: ('A' for Active; 'I' for Inactive)
REMARK    1  A    between atoms: C_1  and  C_2
REMARK    2  A    between atoms: C_2  and  C_3
REMARK    3  A    between atoms: C_2  and  C_4
REMARK    4  A    between atoms: C_2  and  C_5
REMARK    5  A    between atoms: C_8  and  C_9
REMARK    6  A    between atoms: C_11  and  C_12
REMARK    7  A    between atoms: N_14  and  C_15
REMARK    8  A    between atoms: C_15  and  C_16
REMARK    9  A    between atoms: C_16  and  O_17
REMARK   10  A    between atoms: C_19  and  C_20
REMARK                            x       y       z     vdW  Elec       q    Type
REMARK                         _______ _______ _______ _____ _____    ______ ____
ROOT
ATOM      1  C   UNL     1       0.879  10.463  18.817  0.00  0.00    +0.000 A 
ATOM      2  C   UNL     1       1.629  11.621  18.619  0.00  0.00    +0.000 A 
ATOM      3  C   UNL     1       1.044  12.893  18.584  0.00  0.00    +0.000 A 
ATOM      4  C   UNL     1      -0.360  12.992  18.643  0.00  0.00    +0.000 A 
ATOM      5  C   UNL     1      -1.173  11.826  18.727  0.00  0.00    +0.000 A 
ATOM      6  C   UNL     1      -0.510  10.597  18.887  0.00  0.00    +0.000 A 
ENDROOT
BRANCH   5   7
ATOM      7  C   UNL     1      -2.652  11.792  18.570  0.00  0.00    +0.000 A 
ATOM      8  C   UNL     1      -3.295  11.114  17.550  0.00  0.00    +0.000 A 
ATOM      9  N   UNL     1      -4.637  10.965  17.473  0.00  0.00    +0.000 NA
ATOM     10  C   UNL     1      -5.356  11.442  18.506  0.00  0.00    +0.000 A 
ATOM     11  C   UNL     1      -6.727  11.225  18.528  0.00  0.00    +0.000 A 
ATOM     12  C   UNL     1      -7.507  11.604  19.617  0.00  0.00    +0.000 A 
ATOM     13  C   UNL     1      -6.912  12.219  20.710  0.00  0.00    +0.000 A 
ATOM     14  C   UNL     1      -5.533  12.488  20.676  0.00  0.00    +0.000 A 
ATOM     15  C   UNL     1      -4.735  12.106  19.591  0.00  0.00    +0.000 A 
ATOM     16  N   UNL     1      -3.400  12.312  19.593  0.00  0.00    +0.000 NA
ENDBRANCH   5   7
BRANCH   1  20
ATOM     17  C   UNL     1       2.409   6.481  19.343  0.00  0.00    +0.000 A 
ATOM     18  C   UNL     1       1.888   7.207  20.418  0.00  0.00    +0.000 A 
ATOM     19  C   UNL     1       1.441   8.512  20.254  0.00  0.00    +0.000 A 
ATOM     20  C   UNL     1       1.524   9.158  19.015  0.00  0.00    +0.000 A 
ATOM     21  C   UNL     1       2.162   8.478  17.969  0.00  0.00    +0.000 A 
ATOM     22  C   UNL     1       2.586   7.158  18.125  0.00  0.00    +0.000 A 
BRANCH  17  24
ATOM     23  C   UNL     1       4.221   4.671  19.312  0.00  0.00    +0.000 C 
ATOM     24  C   UNL     1       2.714   4.985  19.453  0.00  0.00    +0.000 C 
ATOM     25  C   UNL     1       1.959   4.211  18.359  0.00  0.00    +0.000 C 
ATOM     26  C   UNL     1       2.270   4.483  20.846  0.00  0.00    +0.000 C 
ENDBRANCH  17  24
ENDBRANCH   1  20
BRANCH   3  27
ATOM     27  C   UNL     1       2.036  14.016  18.467  0.00  0.00    +0.000 C 
ATOM     28  O   UNL     1       3.210  13.760  18.201  0.00  0.00    +0.000 OA
ATOM     29  N   UNL     1       1.637  15.315  18.694  0.00  0.00    +0.000 N 
ATOM     30  H   UNL     1       0.709  15.531  19.021  0.00  0.00    +0.000 HD
BRANCH  29  31
ATOM     31  C   UNL     1       2.650  16.375  18.736  0.00  0.00    +0.000 C 
BRANCH  31  32
ATOM     32  C   UNL     1       2.972  16.944  17.352  0.00  0.00    +0.000 C 
BRANCH  32  33
ATOM     33  O   UNL     1       2.088  18.024  17.053  0.00  0.00    +0.000 OA
ATOM     34  H   UNL     1       1.313  17.615  16.630  0.00  0.00    +0.000 HD
ENDBRANCH  32  33
ENDBRANCH  31  32
ENDBRANCH  29  31
ENDBRANCH   3  27
TORSDOF 7
ENDMDL
MODEL 7
REMARK VINA RESULT:      -8.1      6.059     10.500
REMARK  Name = 
REMARK  10 active torsions:
REMARK  status: ('A' for Active; 'I' for Inactive)
REMARK    1  A    between atoms: C_1  and  C_2
REMARK    2  A    between atoms: C_2  and  C_3
REMARK    3  A    between atoms: C_2  and  C_4
REMARK    4  A    between atoms: C_2  and  C_5
REMARK    5  A    between atoms: C_8  and  C_9
REMARK    6  A    between atoms: C_11  and  C_12
REMARK    7  A    between atoms: N_14  and  C_15
REMARK    8  A    between atoms: C_15  and  C_16
REMARK    9  A    between atoms: C_16  and  O_17
REMARK   10  A    between atoms: C_19  and  C_20
REMARK                            x       y       z     vdW  Elec       q    Type
REMARK                         _______ _______ _______ _____ _____    ______ ____
ROOT
ATOM      1  C   UNL     1       0.833  10.559  18.982  0.00  0.00    +0.000 A 
ATOM      2  C   UNL     1      -0.552  10.712  19.012  0.00  0.00    +0.000 A 
ATOM      3  C   UNL     1      -1.175  11.936  18.739  0.00  0.00    +0.000 A 
ATOM      4  C   UNL     1      -0.368  13.073  18.535  0.00  0.00    +0.000 A 
ATOM      5  C   UNL     1       1.050  12.987  18.611  0.00  0.00    +0.000 A 
ATOM      6  C   UNL     1       1.604  11.703  18.761  0.00  0.00    +0.000 A 
ENDROOT
BRANCH   5   7
ATOM      7  C   UNL     1       1.985  14.144  18.637  0.00  0.00    +0.000 A 
ATOM      8  C   UNL     1       1.700  15.340  19.270  0.00  0.00    +0.000 A 
ATOM      9  N   UNL     1       2.591  16.348  19.413  0.00  0.00    +0.000 NA
ATOM     10  C   UNL     1       3.843  16.111  18.980  0.00  0.00    +0.000 A 
ATOM     11  C   UNL     1       4.822  17.071  19.197  0.00  0.00    +0.000 A 
ATOM     12  C   UNL     1       6.154  16.840  18.864  0.00  0.00    +0.000 A 
ATOM     13  C   UNL     1       6.523  15.627  18.298  0.00  0.00    +0.000 A 
ATOM     14  C   UNL     1       5.532  14.669  18.029  0.00  0.00    +0.000 A 
ATOM     15  C   UNL     1       4.189  14.884  18.365  0.00  0.00    +0.000 A 
ATOM     16  N   UNL     1       3.252  13.932  18.161  0.00  0.00    +0.000 NA
ENDBRANCH   5   7
BRANCH   1  20
ATOM     17  C   UNL     1       2.309   6.534  19.285  0.00  0.00    +0.000 A 
ATOM     18  C   UNL     1       1.801   7.207  20.400  0.00  0.00    +0.000 A 
ATOM     19  C   UNL     1       1.372   8.525  20.309  0.00  0.00    +0.000 A 
ATOM     20  C   UNL     1       1.460   9.237  19.107  0.00  0.00    +0.000 A 
ATOM     21  C   UNL     1       2.085   8.606  18.023  0.00  0.00    +0.000 A 
ATOM     22  C   UNL     1       2.491   7.274  18.105  0.00  0.00    +0.000 A 
BRANCH  17  24
ATOM     23  C   UNL     1       4.104   4.707  19.260  0.00  0.00    +0.000 C 
ATOM     24  C   UNL     1       2.593   5.030  19.312  0.00  0.00    +0.000 C 
ATOM     25  C   UNL     1       1.915   4.343  18.114  0.00  0.00    +0.000 C 
ATOM     26  C   UNL     1       2.044   4.439  20.630  0.00  0.00    +0.000 C 
ENDBRANCH  17  24
ENDBRANCH   1  20
BRANCH   3  27
ATOM     27  C   UNL     1      -2.675  11.864  18.719  0.00  0.00    +0.000 C 
ATOM     28  O   UNL     1      -3.314  12.268  19.691  0.00  0.00    +0.000 OA
ATOM     29  N   UNL     1      -3.326  11.316  17.635  0.00  0.00    +0.000 N 
ATOM     30  H   UNL     1      -2.817  10.880  16.882  0.00  0.00    +0.000 HD
BRANCH  29  31
ATOM     31  C   UNL     1      -4.775  11.106  17.704  0.00  0.00    +0.000 C 
BRANCH  31  32
ATOM     32  C   UNL     1      -5.570  12.216  17.013  0.00  0.00    +0.000 C 
BRANCH  32  33
ATOM     33  O   UNL     1      -6.963  12.053  17.277  0.00  0.00    +0.000 OA
ATOM     34  H   UNL     1      -7.419  12.539  16.568  0.00  0.00    +0.000 HD
ENDBRANCH  32  33
ENDBRANCH  31  32
ENDBRANCH  29  31
ENDBRANCH   3  27
TORSDOF 7
ENDMDL
MODEL 8
REMARK VINA RESULT:      -8.1      5.701     11.085
REMARK  Name = 
REMARK  10 active torsions:
REMARK  status: ('A' for Active; 'I' for Inactive)
REMARK    1  A    between atoms: C_1  and  C_2
REMARK    2  A    between atoms: C_2  and  C_3
REMARK    3  A    between atoms: C_2  and  C_4
REMARK    4  A    between atoms: C_2  and  C_5
REMARK    5  A    between atoms: C_8  and  C_9
REMARK    6  A    between atoms: C_11  and  C_12
REMARK    7  A    between atoms: N_14  and  C_15
REMARK    8  A    between atoms: C_15  and  C_16
REMARK    9  A    between atoms: C_16  and  O_17
REMARK   10  A    between atoms: C_19  and  C_20
REMARK                            x       y       z     vdW  Elec       q    Type
REMARK                         _______ _______ _______ _____ _____    ______ ____
ROOT
ATOM      1  C   UNL     1       1.227  10.316  18.535  0.00  0.00    +0.000 A 
ATOM      2  C   UNL     1       1.968  11.497  18.524  0.00  0.00    +0.000 A 
ATOM      3  C   UNL     1       1.370  12.757  18.650  0.00  0.00    +0.000 A 
ATOM      4  C   UNL     1      -0.037  12.836  18.680  0.00  0.00    +0.000 A 
ATOM      5  C   UNL     1      -0.838  11.664  18.576  0.00  0.00    +0.000 A 
ATOM      6  C   UNL     1      -0.165  10.430  18.582  0.00  0.00    +0.000 A 
ENDROOT
BRANCH   5   7
ATOM      7  C   UNL     1      -2.311  11.641  18.371  0.00  0.00    +0.000 A 
ATOM      8  C   UNL     1      -2.931  10.907  17.376  0.00  0.00    +0.000 A 
ATOM      9  N   UNL     1      -4.272  10.773  17.262  0.00  0.00    +0.000 NA
ATOM     10  C   UNL     1      -5.017  11.326  18.238  0.00  0.00    +0.000 A 
ATOM     11  C   UNL     1      -6.391  11.131  18.227  0.00  0.00    +0.000 A 
ATOM     12  C   UNL     1      -7.200  11.591  19.263  0.00  0.00    +0.000 A 
ATOM     13  C   UNL     1      -6.632  12.266  20.334  0.00  0.00    +0.000 A 
ATOM     14  C   UNL     1      -5.249  12.513  20.329  0.00  0.00    +0.000 A 
ATOM     15  C   UNL     1      -4.422  12.049  19.298  0.00  0.00    +0.000 A 
ATOM     16  N   UNL     1      -3.083  12.236  19.333  0.00  0.00    +0.000 NA
ENDBRANCH   5   7
BRANCH   1  20
ATOM     17  C   UNL     1       2.792   6.314  18.525  0.00  0.00    +0.000 A 
ATOM     18  C   UNL     1       2.179   6.851  19.661  0.00  0.00    +0.000 A 
ATOM     19  C   UNL     1       1.720   8.162  19.677  0.00  0.00    +0.000 A 
ATOM     20  C   UNL     1       1.881   9.002  18.568  0.00  0.00    +0.000 A 
ATOM     21  C   UNL     1       2.607   8.506  17.477  0.00  0.00    +0.000 A 
ATOM     22  C   UNL     1       3.044   7.181  17.450  0.00  0.00    +0.000 A 
BRANCH  17  24
ATOM     23  C   UNL     1       3.752   4.253  19.705  0.00  0.00    +0.000 C 
ATOM     24  C   UNL     1       3.117   4.822  18.415  0.00  0.00    +0.000 C 
ATOM     25  C   UNL     1       4.095   4.579  17.253  0.00  0.00    +0.000 C 
ATOM     26  C   UNL     1       1.808   4.040  18.166  0.00  0.00    +0.000 C 
ENDBRANCH  17  24
ENDBRANCH   1  20
BRANCH   3  27
ATOM     27  C   UNL     1       2.351  13.892  18.722  0.00  0.00    +0.000 C 
ATOM     28  O   UNL     1       2.177  14.791  19.544  0.00  0.00    +0.000 OA
ATOM     29  N   UNL     1       3.415  13.940  17.848  0.00  0.00    +0.000 N 
ATOM     30  H   UNL     1       3.510  13.274  17.097  0.00  0.00    +0.000 HD
BRANCH  29  31
ATOM     31  C   UNL     1       4.265  15.134  17.825  0.00  0.00    +0.000 C 
BRANCH  31  32
ATOM     32  C   UNL     1       5.640  14.896  18.454  0.00  0.00    +0.000 C 
BRANCH  32  33
ATOM     33  O   UNL     1       6.571  14.494  17.450  0.00  0.00    +0.000 OA
ATOM     34  H   UNL     1       6.088  14.559  16.608  0.00  0.00    +0.000 HD
ENDBRANCH  32  33
ENDBRANCH  31  32
ENDBRANCH  29  31
ENDBRANCH   3  27
TORSDOF 7
ENDMDL
MODEL 9
REMARK VINA RESULT:      -8.1      6.316     11.509
REMARK  Name = 
REMARK  10 active torsions:
REMARK  status: ('A' for Active; 'I' for Inactive)
REMARK    1  A    between atoms: C_1  and  C_2
REMARK    2  A    between atoms: C_2  and  C_3
REMARK    3  A    between atoms: C_2  and  C_4
REMARK    4  A    between atoms: C_2  and  C_5
REMARK    5  A    between atoms: C_8  and  C_9
REMARK    6  A    between atoms: C_11  and  C_12
REMARK    7  A    between atoms: N_14  and  C_15
REMARK    8  A    between atoms: C_15  and  C_16
REMARK    9  A    between atoms: C_16  and  O_17
REMARK   10  A    between atoms: C_19  and  C_20
REMARK                            x       y       z     vdW  Elec       q    Type
REMARK                         _______ _______ _______ _____ _____    ______ ____
ROOT
ATOM      1  C   UNL     1       0.867  10.591  18.810  0.00  0.00    +0.000 A 
ATOM      2  C   UNL     1       1.621  11.745  18.607  0.00  0.00    +0.000 A 
ATOM      3  C   UNL     1       1.040  13.019  18.557  0.00  0.00    +0.000 A 
ATOM      4  C   UNL     1      -0.364  13.122  18.606  0.00  0.00    +0.000 A 
ATOM      5  C   UNL     1      -1.180  11.959  18.696  0.00  0.00    +0.000 A 
ATOM      6  C   UNL     1      -0.522  10.730  18.871  0.00  0.00    +0.000 A 
ENDROOT
BRANCH   5   7
ATOM      7  C   UNL     1      -2.659  11.927  18.531  0.00  0.00    +0.000 A 
ATOM      8  C   UNL     1      -3.293  11.314  17.466  0.00  0.00    +0.000 A 
ATOM      9  N   UNL     1      -4.634  11.163  17.372  0.00  0.00    +0.000 NA
ATOM     10  C   UNL     1      -5.360  11.568  18.431  0.00  0.00    +0.000 A 
ATOM     11  C   UNL     1      -6.730  11.342  18.433  0.00  0.00    +0.000 A 
ATOM     12  C   UNL     1      -7.516  11.645  19.541  0.00  0.00    +0.000 A 
ATOM     13  C   UNL     1      -6.930  12.190  20.675  0.00  0.00    +0.000 A 
ATOM     14  C   UNL     1      -5.553  12.468  20.664  0.00  0.00    +0.000 A 
ATOM     15  C   UNL     1      -4.748  12.162  19.560  0.00  0.00    +0.000 A 
ATOM     16  N   UNL     1      -3.414  12.374  19.582  0.00  0.00    +0.000 NA
ENDBRANCH   5   7
BRANCH   1  20
ATOM     17  C   UNL     1       2.386   6.609  19.369  0.00  0.00    +0.000 A 
ATOM     18  C   UNL     1       1.824   7.328  20.429  0.00  0.00    +0.000 A 
ATOM     19  C   UNL     1       1.381   8.633  20.256  0.00  0.00    +0.000 A 
ATOM     20  C   UNL     1       1.507   9.287  19.025  0.00  0.00    +0.000 A 
ATOM     21  C   UNL     1       2.185   8.614  17.999  0.00  0.00    +0.000 A 
ATOM     22  C   UNL     1       2.606   7.294  18.163  0.00  0.00    +0.000 A 
BRANCH  17  24
ATOM     23  C   UNL     1       2.048   4.287  18.343  0.00  0.00    +0.000 C 
ATOM     24  C   UNL     1       2.690   5.113  19.481  0.00  0.00    +0.000 C 
ATOM     25  C   UNL     1       2.167   4.568  20.821  0.00  0.00    +0.000 C 
ATOM     26  C   UNL     1       4.218   4.903  19.395  0.00  0.00    +0.000 C 
ENDBRANCH  17  24
ENDBRANCH   1  20
BRANCH   3  27
ATOM     27  C   UNL     1       2.035  14.137  18.436  0.00  0.00    +0.000 C 
ATOM     28  O   UNL     1       3.208  13.878  18.168  0.00  0.00    +0.000 OA
ATOM     29  N   UNL     1       1.642  15.439  18.660  0.00  0.00    +0.000 N 
ATOM     30  H   UNL     1       0.714  15.658  18.988  0.00  0.00    +0.000 HD
BRANCH  29  31
ATOM     31  C   UNL     1       2.658  16.495  18.698  0.00  0.00    +0.000 C 
BRANCH  31  32
ATOM     32  C   UNL     1       3.014  16.926  20.122  0.00  0.00    +0.000 C 
BRANCH  32  33
ATOM     33  O   UNL     1       4.431  16.921  20.291  0.00  0.00    +0.000 OA
ATOM     34  H   UNL     1       4.734  17.785  19.962  0.00  0.00    +0.000 HD
ENDBRANCH  32  33
ENDBRANCH  31  32
ENDBRANCH  29  31
ENDBRANCH   3  27
TORSDOF 7
ENDMDL
