MODEL 1
REMARK VINA RESULT:      -7.2      0.000      0.000
REMARK  Name = 
REMARK  3 active torsions:
REMARK  status: ('A' for Active; 'I' for Inactive)
REMARK    1  A    between atoms: C_1  and  C_2
REMARK    2  A    between atoms: C_2  and  S_3
REMARK    3  A    between atoms: S_3  and  C_4
REMARK                            x       y       z     vdW  Elec       q    Type
REMARK                         _______ _______ _______ _____ _____    ______ ____
ROOT
ATOM      1  C   UNL     1       6.594   4.499  14.362  0.00  0.00    +0.000 A 
ATOM      2  N   UNL     1       7.409   5.214  15.163  0.00  0.00    +0.000 NA
ATOM      3  N   UNL     1       6.830   5.232  16.352  0.00  0.00    +0.000 N 
ATOM      4  C   UNL     1       5.675   4.547  16.255  0.00  0.00    +0.000 A 
ATOM      5  N   UNL     1       4.718   4.429  17.327  0.00  0.00    +0.000 N 
ATOM      6 SE   UNL     1       4.920   5.336  18.870  0.00  0.00    +0.000 Se
ATOM      7  C   UNL     1       3.301   4.680  19.337  0.00  0.00    +0.000 A 
ATOM      8  C   UNL     1       2.627   4.976  20.524  0.00  0.00    +0.000 A 
ATOM      9  C   UNL     1       1.375   4.392  20.757  0.00  0.00    +0.000 A 
ATOM     10  C   UNL     1       0.815   3.519  19.808  0.00  0.00    +0.000 A 
ATOM     11  C   UNL     1       1.502   3.235  18.616  0.00  0.00    +0.000 A 
ATOM     12  C   UNL     1       2.750   3.835  18.394  0.00  0.00    +0.000 A 
ATOM     13  C   UNL     1       3.554   3.706  17.277  0.00  0.00    +0.000 A 
ATOM     14  O   UNL     1       3.244   3.023  16.315  0.00  0.00    +0.000 OA
ATOM     15  N   UNL     1       5.492   4.067  15.010  0.00  0.00    +0.000 NA
ATOM     16  H   UNL     1       7.209   5.729  17.187  0.00  0.00    +0.000 HD
ENDROOT
BRANCH   1  17
ATOM     17  S   UNL     1       6.833   4.346  12.590  0.00  0.00    +0.000 S 
BRANCH  17  19
ATOM     18  C   UNL     1       4.503   3.397  11.564  0.00  0.00    +0.000 C 
ATOM     19  C   UNL     1       5.730   2.920  12.333  0.00  0.00    +0.000 C 
ENDBRANCH  17  19
ENDBRANCH   1  17
TORSDOF 2
ENDMDL
MODEL 2
REMARK VINA RESULT:      -6.5      1.782      1.999
REMARK  Name = 
REMARK  3 active torsions:
REMARK  status: ('A' for Active; 'I' for Inactive)
REMARK    1  A    between atoms: C_1  and  C_2
REMARK    2  A    between atoms: C_2  and  S_3
REMARK    3  A    between atoms: S_3  and  C_4
REMARK                            x       y       z     vdW  Elec       q    Type
REMARK                         _______ _______ _______ _____ _____    ______ ____
ROOT
ATOM      1  C   UNL     1       6.193   5.460  15.334  0.00  0.00    +0.000 A 
ATOM      2  N   UNL     1       5.429   6.566  15.240  0.00  0.00    +0.000 NA
ATOM      3  N   UNL     1       4.601   6.528  16.270  0.00  0.00    +0.000 N 
ATOM      4  C   UNL     1       4.860   5.403  16.963  0.00  0.00    +0.000 A 
ATOM      5  N   UNL     1       4.093   4.965  18.102  0.00  0.00    +0.000 N 
ATOM      6 SE   UNL     1       2.597   5.827  18.615  0.00  0.00    +0.000 Se
ATOM      7  C   UNL     1       2.393   4.512  19.839  0.00  0.00    +0.000 A 
ATOM      8  C   UNL     1       1.320   4.400  20.726  0.00  0.00    +0.000 A 
ATOM      9  C   UNL     1       1.293   3.328  21.625  0.00  0.00    +0.000 A 
ATOM     10  C   UNL     1       2.336   2.384  21.633  0.00  0.00    +0.000 A 
ATOM     11  C   UNL     1       3.406   2.506  20.731  0.00  0.00    +0.000 A 
ATOM     12  C   UNL     1       3.414   3.582  19.831  0.00  0.00    +0.000 A 
ATOM     13  C   UNL     1       4.355   3.849  18.854  0.00  0.00    +0.000 A 
ATOM     14  O   UNL     1       5.327   3.138  18.662  0.00  0.00    +0.000 OA
ATOM     15  N   UNL     1       5.863   4.702  16.400  0.00  0.00    +0.000 NA
ATOM     16  H   UNL     1       3.864   7.241  16.463  0.00  0.00    +0.000 HD
ENDROOT
BRANCH   1  17
ATOM     17  S   UNL     1       7.346   4.943  14.060  0.00  0.00    +0.000 S 
BRANCH  17  19
ATOM     18  C   UNL     1       6.798   3.471  11.844  0.00  0.00    +0.000 C 
ATOM     19  C   UNL     1       6.259   3.729  13.247  0.00  0.00    +0.000 C 
ENDBRANCH  17  19
ENDBRANCH   1  17
TORSDOF 2
ENDMDL
MODEL 3
REMARK VINA RESULT:      -6.2      4.538      6.642
REMARK  Name = 
REMARK  3 active torsions:
REMARK  status: ('A' for Active; 'I' for Inactive)
REMARK    1  A    between atoms: C_1  and  C_2
REMARK    2  A    between atoms: C_2  and  S_3
REMARK    3  A    between atoms: S_3  and  C_4
REMARK                            x       y       z     vdW  Elec       q    Type
REMARK                         _______ _______ _______ _____ _____    ______ ____
ROOT
ATOM      1  C   UNL     1       1.370   9.994  18.825  0.00  0.00    +0.000 A 
ATOM      2  N   UNL     1       2.066   9.914  17.674  0.00  0.00    +0.000 NA
ATOM      3  N   UNL     1       2.508   8.671  17.598  0.00  0.00    +0.000 N 
ATOM      4  C   UNL     1       2.090   8.019  18.700  0.00  0.00    +0.000 A 
ATOM      5  N   UNL     1       2.457   6.663  19.020  0.00  0.00    +0.000 N 
ATOM      6 SE   UNL     1       3.655   5.754  18.027  0.00  0.00    +0.000 Se
ATOM      7  C   UNL     1       3.507   4.437  19.257  0.00  0.00    +0.000 A 
ATOM      8  C   UNL     1       4.231   3.242  19.244  0.00  0.00    +0.000 A 
ATOM      9  C   UNL     1       4.012   2.306  20.262  0.00  0.00    +0.000 A 
ATOM     10  C   UNL     1       3.074   2.570  21.276  0.00  0.00    +0.000 A 
ATOM     11  C   UNL     1       2.357   3.778  21.279  0.00  0.00    +0.000 A 
ATOM     12  C   UNL     1       2.594   4.709  20.256  0.00  0.00    +0.000 A 
ATOM     13  C   UNL     1       2.017   5.956  20.110  0.00  0.00    +0.000 A 
ATOM     14  O   UNL     1       1.200   6.403  20.897  0.00  0.00    +0.000 OA
ATOM     15  N   UNL     1       1.365   8.825  19.500  0.00  0.00    +0.000 NA
ATOM     16  H   UNL     1       3.103   8.300  16.825  0.00  0.00    +0.000 HD
ENDROOT
BRANCH   1  17
ATOM     17  S   UNL     1       0.729  11.532  19.491  0.00  0.00    +0.000 S 
BRANCH  17  19
ATOM     18  C   UNL     1      -1.427  10.600  18.125  0.00  0.00    +0.000 C 
ATOM     19  C   UNL     1      -1.027  11.052  19.526  0.00  0.00    +0.000 C 
ENDBRANCH  17  19
ENDBRANCH   1  17
TORSDOF 2
ENDMDL
MODEL 4
REMARK VINA RESULT:      -6.2      4.691      6.012
REMARK  Name = 
REMARK  3 active torsions:
REMARK  status: ('A' for Active; 'I' for Inactive)
REMARK    1  A    between atoms: C_1  and  C_2
REMARK    2  A    between atoms: C_2  and  S_3
REMARK    3  A    between atoms: S_3  and  C_4
REMARK                            x       y       z     vdW  Elec       q    Type
REMARK                         _______ _______ _______ _____ _____    ______ ____
ROOT
ATOM      1  C   UNL     1       4.518   5.446  18.301  0.00  0.00    +0.000 A 
ATOM      2  N   UNL     1       4.241   4.912  19.506  0.00  0.00    +0.000 NA
ATOM      3  N   UNL     1       3.296   5.672  20.035  0.00  0.00    +0.000 N 
ATOM      4  C   UNL     1       3.024   6.657  19.158  0.00  0.00    +0.000 A 
ATOM      5  N   UNL     1       2.112   7.741  19.424  0.00  0.00    +0.000 N 
ATOM      6 SE   UNL     1       1.356   7.957  21.044  0.00  0.00    +0.000 Se
ATOM      7  C   UNL     1       0.656   9.490  20.389  0.00  0.00    +0.000 A 
ATOM      8  C   UNL     1      -0.125  10.390  21.117  0.00  0.00    +0.000 A 
ATOM      9  C   UNL     1      -0.606  11.540  20.479  0.00  0.00    +0.000 A 
ATOM     10  C   UNL     1      -0.306  11.775  19.125  0.00  0.00    +0.000 A 
ATOM     11  C   UNL     1       0.486  10.864  18.407  0.00  0.00    +0.000 A 
ATOM     12  C   UNL     1       0.966   9.721  19.064  0.00  0.00    +0.000 A 
ATOM     13  C   UNL     1       1.781   8.735  18.540  0.00  0.00    +0.000 A 
ATOM     14  O   UNL     1       2.191   8.759  17.391  0.00  0.00    +0.000 OA
ATOM     15  N   UNL     1       3.778   6.546  18.047  0.00  0.00    +0.000 NA
ATOM     16  H   UNL     1       2.882   5.528  20.981  0.00  0.00    +0.000 HD
ENDROOT
BRANCH   1  17
ATOM     17  S   UNL     1       5.876   4.897  17.264  0.00  0.00    +0.000 S 
BRANCH  17  19
ATOM     18  C   UNL     1       7.757   6.088  18.821  0.00  0.00    +0.000 C 
ATOM     19  C   UNL     1       6.967   6.329  17.539  0.00  0.00    +0.000 C 
ENDBRANCH  17  19
ENDBRANCH   1  17
TORSDOF 2
ENDMDL
MODEL 5
REMARK VINA RESULT:      -6.2      4.515      6.216
REMARK  Name = 
REMARK  3 active torsions:
REMARK  status: ('A' for Active; 'I' for Inactive)
REMARK    1  A    between atoms: C_1  and  C_2
REMARK    2  A    between atoms: C_2  and  S_3
REMARK    3  A    between atoms: S_3  and  C_4
REMARK                            x       y       z     vdW  Elec       q    Type
REMARK                         _______ _______ _______ _____ _____    ______ ____
ROOT
ATOM      1  C   UNL     1       3.572   4.567  19.053  0.00  0.00    +0.000 A 
ATOM      2  N   UNL     1       3.987   5.042  17.862  0.00  0.00    +0.000 NA
ATOM      3  N   UNL     1       3.550   6.287  17.791  0.00  0.00    +0.000 N 
ATOM      4  C   UNL     1       2.869   6.548  18.923  0.00  0.00    +0.000 A 
ATOM      5  N   UNL     1       2.161   7.778  19.171  0.00  0.00    +0.000 N 
ATOM      6 SE   UNL     1       1.996   9.040  17.896  0.00  0.00    +0.000 Se
ATOM      7  C   UNL     1       0.933   9.922  19.063  0.00  0.00    +0.000 A 
ATOM      8  C   UNL     1       0.278  11.127  18.800  0.00  0.00    +0.000 A 
ATOM      9  C   UNL     1      -0.514  11.701  19.802  0.00  0.00    +0.000 A 
ATOM     10  C   UNL     1      -0.640  11.070  21.052  0.00  0.00    +0.000 A 
ATOM     11  C   UNL     1       0.020   9.854  21.301  0.00  0.00    +0.000 A 
ATOM     12  C   UNL     1       0.803   9.289  20.283  0.00  0.00    +0.000 A 
ATOM     13  C   UNL     1       1.494   8.093  20.327  0.00  0.00    +0.000 A 
ATOM     14  O   UNL     1       1.494   7.365  21.305  0.00  0.00    +0.000 OA
ATOM     15  N   UNL     1       2.863   5.482  19.747  0.00  0.00    +0.000 NA
ATOM     16  H   UNL     1       3.692   6.919  16.973  0.00  0.00    +0.000 HD
ENDROOT
BRANCH   1  17
ATOM     17  S   UNL     1       3.741   2.851  19.549  0.00  0.00    +0.000 S 
BRANCH  17  19
ATOM     18  C   UNL     1       1.200   2.396  18.703  0.00  0.00    +0.000 C 
ATOM     19  C   UNL     1       2.643   2.139  18.282  0.00  0.00    +0.000 C 
ENDBRANCH  17  19
ENDBRANCH   1  17
TORSDOF 2
ENDMDL
MODEL 6
REMARK VINA RESULT:      -6.1      1.170      1.377
REMARK  Name = 
REMARK  3 active torsions:
REMARK  status: ('A' for Active; 'I' for Inactive)
REMARK    1  A    between atoms: C_1  and  C_2
REMARK    2  A    between atoms: C_2  and  S_3
REMARK    3  A    between atoms: S_3  and  C_4
REMARK                            x       y       z     vdW  Elec       q    Type
REMARK                         _______ _______ _______ _____ _____    ______ ____
ROOT
ATOM      1  C   UNL     1       6.608   4.248  14.651  0.00  0.00    +0.000 A 
ATOM      2  N   UNL     1       7.453   4.873  15.495  0.00  0.00    +0.000 NA
ATOM      3  N   UNL     1       6.857   4.874  16.676  0.00  0.00    +0.000 N 
ATOM      4  C   UNL     1       5.663   4.268  16.533  0.00  0.00    +0.000 A 
ATOM      5  N   UNL     1       4.684   4.163  17.585  0.00  0.00    +0.000 N 
ATOM      6 SE   UNL     1       4.917   4.985  19.171  0.00  0.00    +0.000 Se
ATOM      7  C   UNL     1       3.253   4.412  19.586  0.00  0.00    +0.000 A 
ATOM      8  C   UNL     1       2.580   4.695  20.777  0.00  0.00    +0.000 A 
ATOM      9  C   UNL     1       1.291   4.182  20.966  0.00  0.00    +0.000 A 
ATOM     10  C   UNL     1       0.693   3.390  19.970  0.00  0.00    +0.000 A 
ATOM     11  C   UNL     1       1.379   3.117  18.775  0.00  0.00    +0.000 A 
ATOM     12  C   UNL     1       2.666   3.647  18.598  0.00  0.00    +0.000 A 
ATOM     13  C   UNL     1       3.478   3.518  17.487  0.00  0.00    +0.000 A 
ATOM     14  O   UNL     1       3.141   2.900  16.491  0.00  0.00    +0.000 OA
ATOM     15  N   UNL     1       5.471   3.857  15.265  0.00  0.00    +0.000 NA
ATOM     16  H   UNL     1       7.253   5.308  17.538  0.00  0.00    +0.000 HD
ENDROOT
BRANCH   1  17
ATOM     17  S   UNL     1       6.865   4.161  12.878  0.00  0.00    +0.000 S 
BRANCH  17  19
ATOM     18  C   UNL     1       7.908   6.229  11.458  0.00  0.00    +0.000 C 
ATOM     19  C   UNL     1       8.124   5.472  12.764  0.00  0.00    +0.000 C 
ENDBRANCH  17  19
ENDBRANCH   1  17
TORSDOF 2
ENDMDL
MODEL 7
REMARK VINA RESULT:      -6.1      3.070      3.643
REMARK  Name = 
REMARK  3 active torsions:
REMARK  status: ('A' for Active; 'I' for Inactive)
REMARK    1  A    between atoms: C_1  and  C_2
REMARK    2  A    between atoms: C_2  and  S_3
REMARK    3  A    between atoms: S_3  and  C_4
REMARK                            x       y       z     vdW  Elec       q    Type
REMARK                         _______ _______ _______ _____ _____    ______ ____
ROOT
ATOM      1  C   UNL     1       5.608   4.834  15.985  0.00  0.00    +0.000 A 
ATOM      2  N   UNL     1       5.463   3.824  16.865  0.00  0.00    +0.000 NA
ATOM      3  N   UNL     1       4.572   4.234  17.751  0.00  0.00    +0.000 N 
ATOM      4  C   UNL     1       4.199   5.482  17.410  0.00  0.00    +0.000 A 
ATOM      5  N   UNL     1       3.308   6.298  18.195  0.00  0.00    +0.000 N 
ATOM      6 SE   UNL     1       2.724   5.763  19.813  0.00  0.00    +0.000 Se
ATOM      7  C   UNL     1       1.942   7.388  19.945  0.00  0.00    +0.000 A 
ATOM      8  C   UNL     1       1.232   7.849  21.055  0.00  0.00    +0.000 A 
ATOM      9  C   UNL     1       0.675   9.133  21.018  0.00  0.00    +0.000 A 
ATOM     10  C   UNL     1       0.829   9.938  19.875  0.00  0.00    +0.000 A 
ATOM     11  C   UNL     1       1.551   9.463  18.767  0.00  0.00    +0.000 A 
ATOM     12  C   UNL     1       2.110   8.178  18.825  0.00  0.00    +0.000 A 
ATOM     13  C   UNL     1       2.876   7.555  17.857  0.00  0.00    +0.000 A 
ATOM     14  O   UNL     1       3.163   8.087  16.798  0.00  0.00    +0.000 OA
ATOM     15  N   UNL     1       4.834   5.895  16.296  0.00  0.00    +0.000 NA
ATOM     16  H   UNL     1       4.260   3.678  18.577  0.00  0.00    +0.000 HD
ENDROOT
BRANCH   1  17
ATOM     17  S   UNL     1       6.855   4.854  14.696  0.00  0.00    +0.000 S 
BRANCH  17  19
ATOM     18  C   UNL     1       6.759   3.782  12.201  0.00  0.00    +0.000 C 
ATOM     19  C   UNL     1       5.973   3.792  13.508  0.00  0.00    +0.000 C 
ENDBRANCH  17  19
ENDBRANCH   1  17
TORSDOF 2
ENDMDL
MODEL 8
REMARK VINA RESULT:      -6.1      4.498      7.798
REMARK  Name = 
REMARK  3 active torsions:
REMARK  status: ('A' for Active; 'I' for Inactive)
REMARK    1  A    between atoms: C_1  and  C_2
REMARK    2  A    between atoms: C_2  and  S_3
REMARK    3  A    between atoms: S_3  and  C_4
REMARK                            x       y       z     vdW  Elec       q    Type
REMARK                         _______ _______ _______ _____ _____    ______ ____
ROOT
ATOM      1  C   UNL     1       0.794   9.047  20.411  0.00  0.00    +0.000 A 
ATOM      2  N   UNL     1       0.832   8.088  21.356  0.00  0.00    +0.000 NA
ATOM      3  N   UNL     1       1.698   7.185  20.928  0.00  0.00    +0.000 N 
ATOM      4  C   UNL     1       2.161   7.597  19.732  0.00  0.00    +0.000 A 
ATOM      5  N   UNL     1       3.055   6.824  18.907  0.00  0.00    +0.000 N 
ATOM      6 SE   UNL     1       3.521   5.140  19.346  0.00  0.00    +0.000 Se
ATOM      7  C   UNL     1       4.389   5.086  17.761  0.00  0.00    +0.000 A 
ATOM      8  C   UNL     1       5.065   3.974  17.254  0.00  0.00    +0.000 A 
ATOM      9  C   UNL     1       5.698   4.075  16.009  0.00  0.00    +0.000 A 
ATOM     10  C   UNL     1       5.652   5.282  15.289  0.00  0.00    +0.000 A 
ATOM     11  C   UNL     1       4.963   6.390  15.808  0.00  0.00    +0.000 A 
ATOM     12  C   UNL     1       4.327   6.269  17.053  0.00  0.00    +0.000 A 
ATOM     13  C   UNL     1       3.578   7.230  17.706  0.00  0.00    +0.000 A 
ATOM     14  O   UNL     1       3.380   8.341  17.243  0.00  0.00    +0.000 OA
ATOM     15  N   UNL     1       1.612   8.773  19.373  0.00  0.00    +0.000 NA
ATOM     16  H   UNL     1       1.932   6.303  21.433  0.00  0.00    +0.000 HD
ENDROOT
BRANCH   1  17
ATOM     17  S   UNL     1      -0.380  10.404  20.423  0.00  0.00    +0.000 S 
BRANCH  17  19
ATOM     18  C   UNL     1      -1.433  11.351  22.742  0.00  0.00    +0.000 C 
ATOM     19  C   UNL     1      -0.093  10.938  22.141  0.00  0.00    +0.000 C 
ENDBRANCH  17  19
ENDBRANCH   1  17
TORSDOF 2
ENDMDL
MODEL 9
REMARK VINA RESULT:      -6.1      4.202      7.148
REMARK  Name = 
REMARK  3 active torsions:
REMARK  status: ('A' for Active; 'I' for Inactive)
REMARK    1  A    between atoms: C_1  and  C_2
REMARK    2  A    between atoms: C_2  and  S_3
REMARK    3  A    between atoms: S_3  and  C_4
REMARK                            x       y       z     vdW  Elec       q    Type
REMARK                         _______ _______ _______ _____ _____    ______ ____
ROOT
ATOM      1  C   UNL     1       1.054   8.643  20.431  0.00  0.00    +0.000 A 
ATOM      2  N   UNL     1       1.048   7.615  21.302  0.00  0.00    +0.000 NA
ATOM      3  N   UNL     1       1.882   6.715  20.812  0.00  0.00    +0.000 N 
ATOM      4  C   UNL     1       2.370   7.196  19.653  0.00  0.00    +0.000 A 
ATOM      5  N   UNL     1       3.242   6.454  18.778  0.00  0.00    +0.000 N 
ATOM      6 SE   UNL     1       3.639   4.725  19.092  0.00  0.00    +0.000 Se
ATOM      7  C   UNL     1       4.517   4.755  17.511  0.00  0.00    +0.000 A 
ATOM      8  C   UNL     1       5.155   3.659  16.927  0.00  0.00    +0.000 A 
ATOM      9  C   UNL     1       5.801   3.828  15.696  0.00  0.00    +0.000 A 
ATOM     10  C   UNL     1       5.807   5.086  15.067  0.00  0.00    +0.000 A 
ATOM     11  C   UNL     1       5.156   6.179  15.665  0.00  0.00    +0.000 A 
ATOM     12  C   UNL     1       4.507   5.990  16.893  0.00  0.00    +0.000 A 
ATOM     13  C   UNL     1       3.789   6.927  17.613  0.00  0.00    +0.000 A 
ATOM     14  O   UNL     1       3.637   8.076  17.233  0.00  0.00    +0.000 OA
ATOM     15  N   UNL     1       1.869   8.416  19.380  0.00  0.00    +0.000 NA
ATOM     16  H   UNL     1       2.079   5.789  21.252  0.00  0.00    +0.000 HD
ENDROOT
BRANCH   1  17
ATOM     17  S   UNL     1      -0.068  10.039  20.539  0.00  0.00    +0.000 S 
BRANCH  17  19
ATOM     18  C   UNL     1      -1.658  10.738  18.450  0.00  0.00    +0.000 C 
ATOM     19  C   UNL     1      -0.213  10.355  18.751  0.00  0.00    +0.000 C 
ENDBRANCH  17  19
ENDBRANCH   1  17
TORSDOF 2
ENDMDL
