MODEL 1
REMARK VINA RESULT:      -8.0      0.000      0.000
REMARK  Name = 
REMARK  2 active torsions:
REMARK  status: ('A' for Active; 'I' for Inactive)
REMARK    1  A    between atoms: N_4  and  C_5
REMARK    2  A    between atoms: C_5  and  C_7
REMARK                            x       y       z     vdW  Elec       q    Type
REMARK                         _______ _______ _______ _____ _____    ______ ____
ROOT
ATOM      1  C   UNL     1       2.240   4.602  19.533  0.00  0.00    +0.000 A 
ATOM      2  C   UNL     1       1.412   5.223  20.498  0.00  0.00    +0.000 A 
ATOM      3  C   UNL     1       1.356   6.619  20.622  0.00  0.00    +0.000 A 
ATOM      4  C   UNL     1       2.126   7.431  19.791  0.00  0.00    +0.000 A 
ATOM      5  C   UNL     1       2.920   6.836  18.814  0.00  0.00    +0.000 A 
ATOM      6  C   UNL     1       2.971   5.451  18.654  0.00  0.00    +0.000 A 
ATOM      7  C   UNL     1       3.841   5.197  17.485  0.00  0.00    +0.000 A 
ATOM      8  C   UNL     1       4.158   4.027  16.776  0.00  0.00    +0.000 A 
ATOM      9  C   UNL     1       5.032   4.098  15.685  0.00  0.00    +0.000 A 
ATOM     10  C   UNL     1       5.567   5.329  15.284  0.00  0.00    +0.000 A 
ATOM     11  C   UNL     1       5.210   6.504  15.959  0.00  0.00    +0.000 A 
ATOM     12  C   UNL     1       4.340   6.418  17.050  0.00  0.00    +0.000 A 
ATOM     13  C   UNL     1       3.804   7.559  17.847  0.00  0.00    +0.000 C 
ENDROOT
BRANCH   1  14
ATOM     14  C   UNL     1       2.342   3.119  19.555  0.00  0.00    +0.000 C 
ATOM     15  O   UNL     1       1.351   2.447  19.318  0.00  0.00    +0.000 OA
BRANCH  14  19
ATOM     16  N   UNL     1       5.390   1.174  20.395  0.00  0.00    +0.000 N 
ATOM     17  C   UNL     1       4.249   1.548  19.640  0.00  0.00    +0.000 C 
ATOM     18  N   UNL     1       3.978   0.859  18.425  0.00  0.00    +0.000 N 
ATOM     19  N   UNL     1       3.522   2.527  20.082  0.00  0.00    +0.000 NA
ATOM     20  H   UNL     1       6.009   0.418  20.073  0.00  0.00    +0.000 HD
ATOM     21  H   UNL     1       5.621   1.671  21.269  0.00  0.00    +0.000 HD
ATOM     22  H   UNL     1       4.609   0.103  18.124  0.00  0.00    +0.000 HD
ATOM     23  H   UNL     1       3.201   1.091  17.798  0.00  0.00    +0.000 HD
ENDBRANCH  14  19
ENDBRANCH   1  14
TORSDOF 2
ENDMDL
MODEL 2
REMARK VINA RESULT:      -7.9      2.633      4.467
REMARK  Name = 
REMARK  2 active torsions:
REMARK  status: ('A' for Active; 'I' for Inactive)
REMARK    1  A    between atoms: N_4  and  C_5
REMARK    2  A    between atoms: C_5  and  C_7
REMARK                            x       y       z     vdW  Elec       q    Type
REMARK                         _______ _______ _______ _____ _____    ______ ____
ROOT
ATOM      1  C   UNL     1       3.976   6.058  17.744  0.00  0.00    +0.000 A 
ATOM      2  C   UNL     1       3.817   7.383  17.277  0.00  0.00    +0.000 A 
ATOM      3  C   UNL     1       2.909   8.267  17.880  0.00  0.00    +0.000 A 
ATOM      4  C   UNL     1       2.135   7.849  18.961  0.00  0.00    +0.000 A 
ATOM      5  C   UNL     1       2.304   6.557  19.453  0.00  0.00    +0.000 A 
ATOM      6  C   UNL     1       3.221   5.671  18.887  0.00  0.00    +0.000 A 
ATOM      7  C   UNL     1       3.180   4.444  19.712  0.00  0.00    +0.000 A 
ATOM      8  C   UNL     1       3.960   3.275  19.711  0.00  0.00    +0.000 A 
ATOM      9  C   UNL     1       3.681   2.261  20.634  0.00  0.00    +0.000 A 
ATOM     10  C   UNL     1       2.651   2.419  21.571  0.00  0.00    +0.000 A 
ATOM     11  C   UNL     1       1.908   3.606  21.606  0.00  0.00    +0.000 A 
ATOM     12  C   UNL     1       2.194   4.608  20.676  0.00  0.00    +0.000 A 
ATOM     13  C   UNL     1       1.554   5.954  20.599  0.00  0.00    +0.000 C 
ENDROOT
BRANCH   1  14
ATOM     14  C   UNL     1       4.860   5.149  16.968  0.00  0.00    +0.000 C 
ATOM     15  O   UNL     1       4.424   4.595  15.971  0.00  0.00    +0.000 OA
BRANCH  14  19
ATOM     16  N   UNL     1       8.345   4.203  17.828  0.00  0.00    +0.000 N 
ATOM     17  C   UNL     1       7.270   4.595  16.991  0.00  0.00    +0.000 C 
ATOM     18  N   UNL     1       7.525   4.814  15.608  0.00  0.00    +0.000 N 
ATOM     19  N   UNL     1       6.106   4.765  17.536  0.00  0.00    +0.000 NA
ATOM     20  H   UNL     1       9.292   4.078  17.444  0.00  0.00    +0.000 HD
ATOM     21  H   UNL     1       8.192   4.058  18.838  0.00  0.00    +0.000 HD
ATOM     22  H   UNL     1       8.479   4.679  15.246  0.00  0.00    +0.000 HD
ATOM     23  H   UNL     1       6.818   5.137  14.941  0.00  0.00    +0.000 HD
ENDBRANCH  14  19
ENDBRANCH   1  14
TORSDOF 2
ENDMDL
MODEL 3
REMARK VINA RESULT:      -7.9      2.830      4.846
REMARK  Name = 
REMARK  2 active torsions:
REMARK  status: ('A' for Active; 'I' for Inactive)
REMARK    1  A    between atoms: N_4  and  C_5
REMARK    2  A    between atoms: C_5  and  C_7
REMARK                            x       y       z     vdW  Elec       q    Type
REMARK                         _______ _______ _______ _____ _____    ______ ____
ROOT
ATOM      1  C   UNL     1       4.725   5.538  17.871  0.00  0.00    +0.000 A 
ATOM      2  C   UNL     1       4.727   6.788  17.207  0.00  0.00    +0.000 A 
ATOM      3  C   UNL     1       3.699   7.722  17.405  0.00  0.00    +0.000 A 
ATOM      4  C   UNL     1       2.642   7.433  18.266  0.00  0.00    +0.000 A 
ATOM      5  C   UNL     1       2.643   6.221  18.952  0.00  0.00    +0.000 A 
ATOM      6  C   UNL     1       3.668   5.288  18.792  0.00  0.00    +0.000 A 
ATOM      7  C   UNL     1       3.374   4.180  19.726  0.00  0.00    +0.000 A 
ATOM      8  C   UNL     1       4.103   3.038  20.101  0.00  0.00    +0.000 A 
ATOM      9  C   UNL     1       3.556   2.148  21.032  0.00  0.00    +0.000 A 
ATOM     10  C   UNL     1       2.304   2.404  21.608  0.00  0.00    +0.000 A 
ATOM     11  C   UNL     1       1.602   3.569  21.273  0.00  0.00    +0.000 A 
ATOM     12  C   UNL     1       2.157   4.447  20.339  0.00  0.00    +0.000 A 
ATOM     13  C   UNL     1       1.588   5.756  19.906  0.00  0.00    +0.000 C 
ENDROOT
BRANCH   1  14
ATOM     14  C   UNL     1       5.778   4.556  17.506  0.00  0.00    +0.000 C 
ATOM     15  O   UNL     1       6.728   4.389  18.255  0.00  0.00    +0.000 OA
BRANCH  14  19
ATOM     16  N   UNL     1       6.268   3.573  13.960  0.00  0.00    +0.000 N 
ATOM     17  C   UNL     1       6.505   4.295  15.157  0.00  0.00    +0.000 C 
ATOM     18  N   UNL     1       7.549   5.263  15.175  0.00  0.00    +0.000 N 
ATOM     19  N   UNL     1       5.775   4.013  16.191  0.00  0.00    +0.000 NA
ATOM     20  H   UNL     1       6.837   3.745  13.120  0.00  0.00    +0.000 HD
ATOM     21  H   UNL     1       5.531   2.851  13.925  0.00  0.00    +0.000 HD
ATOM     22  H   UNL     1       8.102   5.421  14.322  0.00  0.00    +0.000 HD
ATOM     23  H   UNL     1       7.815   5.799  16.007  0.00  0.00    +0.000 HD
ENDBRANCH  14  19
ENDBRANCH   1  14
TORSDOF 2
ENDMDL
MODEL 4
REMARK VINA RESULT:      -7.7      3.146      4.924
REMARK  Name = 
REMARK  2 active torsions:
REMARK  status: ('A' for Active; 'I' for Inactive)
REMARK    1  A    between atoms: N_4  and  C_5
REMARK    2  A    between atoms: C_5  and  C_7
REMARK                            x       y       z     vdW  Elec       q    Type
REMARK                         _______ _______ _______ _____ _____    ______ ____
ROOT
ATOM      1  C   UNL     1       5.314   5.448  17.066  0.00  0.00    +0.000 A 
ATOM      2  C   UNL     1       5.610   6.822  16.906  0.00  0.00    +0.000 A 
ATOM      3  C   UNL     1       4.662   7.813  17.203  0.00  0.00    +0.000 A 
ATOM      4  C   UNL     1       3.395   7.459  17.663  0.00  0.00    +0.000 A 
ATOM      5  C   UNL     1       3.100   6.111  17.858  0.00  0.00    +0.000 A 
ATOM      6  C   UNL     1       4.036   5.111  17.596  0.00  0.00    +0.000 A 
ATOM      7  C   UNL     1       3.404   3.834  17.992  0.00  0.00    +0.000 A 
ATOM      8  C   UNL     1       3.895   2.521  18.080  0.00  0.00    +0.000 A 
ATOM      9  C   UNL     1       3.042   1.492  18.498  0.00  0.00    +0.000 A 
ATOM     10  C   UNL     1       1.716   1.773  18.851  0.00  0.00    +0.000 A 
ATOM     11  C   UNL     1       1.240   3.090  18.813  0.00  0.00    +0.000 A 
ATOM     12  C   UNL     1       2.102   4.106  18.390  0.00  0.00    +0.000 A 
ATOM     13  C   UNL     1       1.794   5.565  18.341  0.00  0.00    +0.000 C 
ENDROOT
BRANCH   1  14
ATOM     14  C   UNL     1       6.325   4.461  16.605  0.00  0.00    +0.000 C 
ATOM     15  O   UNL     1       7.368   4.336  17.228  0.00  0.00    +0.000 OA
BRANCH  14  19
ATOM     16  N   UNL     1       6.292   3.388  13.052  0.00  0.00    +0.000 N 
ATOM     17  C   UNL     1       6.643   4.189  14.169  0.00  0.00    +0.000 C 
ATOM     18  N   UNL     1       7.532   5.283  13.972  0.00  0.00    +0.000 N 
ATOM     19  N   UNL     1       6.157   3.863  15.326  0.00  0.00    +0.000 NA
ATOM     20  H   UNL     1       6.671   3.594  12.117  0.00  0.00    +0.000 HD
ATOM     21  H   UNL     1       5.666   2.577  13.170  0.00  0.00    +0.000 HD
ATOM     22  H   UNL     1       7.895   5.471  13.028  0.00  0.00    +0.000 HD
ATOM     23  H   UNL     1       7.870   5.886  14.728  0.00  0.00    +0.000 HD
ENDBRANCH  14  19
ENDBRANCH   1  14
TORSDOF 2
ENDMDL
MODEL 5
REMARK VINA RESULT:      -7.5      2.627      4.260
REMARK  Name = 
REMARK  2 active torsions:
REMARK  status: ('A' for Active; 'I' for Inactive)
REMARK    1  A    between atoms: N_4  and  C_5
REMARK    2  A    between atoms: C_5  and  C_7
REMARK                            x       y       z     vdW  Elec       q    Type
REMARK                         _______ _______ _______ _____ _____    ______ ____
ROOT
ATOM      1  C   UNL     1       4.299   3.919  19.264  0.00  0.00    +0.000 A 
ATOM      2  C   UNL     1       4.153   2.708  19.980  0.00  0.00    +0.000 A 
ATOM      3  C   UNL     1       3.156   2.552  20.955  0.00  0.00    +0.000 A 
ATOM      4  C   UNL     1       2.283   3.600  21.243  0.00  0.00    +0.000 A 
ATOM      5  C   UNL     1       2.393   4.787  20.523  0.00  0.00    +0.000 A 
ATOM      6  C   UNL     1       3.359   4.955  19.529  0.00  0.00    +0.000 A 
ATOM      7  C   UNL     1       3.121   6.289  18.938  0.00  0.00    +0.000 A 
ATOM      8  C   UNL     1       3.682   6.948  17.831  0.00  0.00    +0.000 A 
ATOM      9  C   UNL     1       3.245   8.238  17.504  0.00  0.00    +0.000 A 
ATOM     10  C   UNL     1       2.240   8.858  18.257  0.00  0.00    +0.000 A 
ATOM     11  C   UNL     1       1.644   8.180  19.329  0.00  0.00    +0.000 A 
ATOM     12  C   UNL     1       2.093   6.896  19.647  0.00  0.00    +0.000 A 
ATOM     13  C   UNL     1       1.542   6.003  20.708  0.00  0.00    +0.000 C 
ENDROOT
BRANCH   1  14
ATOM     14  C   UNL     1       5.460   4.047  18.344  0.00  0.00    +0.000 C 
ATOM     15  O   UNL     1       6.548   4.371  18.794  0.00  0.00    +0.000 OA
BRANCH  14  19
ATOM     16  N   UNL     1       5.473   4.189  14.635  0.00  0.00    +0.000 N 
ATOM     17  C   UNL     1       5.999   4.312  15.946  0.00  0.00    +0.000 C 
ATOM     18  N   UNL     1       7.356   4.711  16.102  0.00  0.00    +0.000 N 
ATOM     19  N   UNL     1       5.222   4.022  16.942  0.00  0.00    +0.000 NA
ATOM     20  H   UNL     1       6.058   4.386  13.812  0.00  0.00    +0.000 HD
ATOM     21  H   UNL     1       4.498   3.881  14.493  0.00  0.00    +0.000 HD
ATOM     22  H   UNL     1       7.922   4.906  15.265  0.00  0.00    +0.000 HD
ATOM     23  H   UNL     1       7.828   4.785  17.009  0.00  0.00    +0.000 HD
ENDBRANCH  14  19
ENDBRANCH   1  14
TORSDOF 2
ENDMDL
MODEL 6
REMARK VINA RESULT:      -7.5      2.989      4.806
REMARK  Name = 
REMARK  2 active torsions:
REMARK  status: ('A' for Active; 'I' for Inactive)
REMARK    1  A    between atoms: N_4  and  C_5
REMARK    2  A    between atoms: C_5  and  C_7
REMARK                            x       y       z     vdW  Elec       q    Type
REMARK                         _______ _______ _______ _____ _____    ______ ____
ROOT
ATOM      1  C   UNL     1       4.025   4.569  18.225  0.00  0.00    +0.000 A 
ATOM      2  C   UNL     1       4.184   3.226  18.642  0.00  0.00    +0.000 A 
ATOM      3  C   UNL     1       3.560   2.743  19.802  0.00  0.00    +0.000 A 
ATOM      4  C   UNL     1       2.765   3.587  20.577  0.00  0.00    +0.000 A 
ATOM      5  C   UNL     1       2.572   4.902  20.160  0.00  0.00    +0.000 A 
ATOM      6  C   UNL     1       3.160   5.396  18.996  0.00  0.00    +0.000 A 
ATOM      7  C   UNL     1       2.670   6.783  18.837  0.00  0.00    +0.000 A 
ATOM      8  C   UNL     1       2.811   7.724  17.804  0.00  0.00    +0.000 A 
ATOM      9  C   UNL     1       2.220   8.987  17.937  0.00  0.00    +0.000 A 
ATOM     10  C   UNL     1       1.471   9.301  19.079  0.00  0.00    +0.000 A 
ATOM     11  C   UNL     1       1.288   8.344  20.086  0.00  0.00    +0.000 A 
ATOM     12  C   UNL     1       1.887   7.090  19.942  0.00  0.00    +0.000 A 
ATOM     13  C   UNL     1       1.755   5.932  20.873  0.00  0.00    +0.000 C 
ENDROOT
BRANCH   1  14
ATOM     14  C   UNL     1       4.824   5.034  17.061  0.00  0.00    +0.000 C 
ATOM     15  O   UNL     1       4.810   4.386  16.027  0.00  0.00    +0.000 OA
BRANCH  14  19
ATOM     16  N   UNL     1       7.626   7.469  17.090  0.00  0.00    +0.000 N 
ATOM     17  C   UNL     1       6.894   6.328  16.672  0.00  0.00    +0.000 C 
ATOM     18  N   UNL     1       7.415   5.534  15.611  0.00  0.00    +0.000 N 
ATOM     19  N   UNL     1       5.765   6.082  17.259  0.00  0.00    +0.000 NA
ATOM     20  H   UNL     1       8.516   7.718  16.638  0.00  0.00    +0.000 HD
ATOM     21  H   UNL     1       7.261   8.073  17.842  0.00  0.00    +0.000 HD
ATOM     22  H   UNL     1       8.309   5.800  15.177  0.00  0.00    +0.000 HD
ATOM     23  H   UNL     1       6.933   4.719  15.219  0.00  0.00    +0.000 HD
ENDBRANCH  14  19
ENDBRANCH   1  14
TORSDOF 2
ENDMDL
MODEL 7
REMARK VINA RESULT:      -7.4      2.442      4.114
REMARK  Name = 
REMARK  2 active torsions:
REMARK  status: ('A' for Active; 'I' for Inactive)
REMARK    1  A    between atoms: N_4  and  C_5
REMARK    2  A    between atoms: C_5  and  C_7
REMARK                            x       y       z     vdW  Elec       q    Type
REMARK                         _______ _______ _______ _____ _____    ______ ____
ROOT
ATOM      1  C   UNL     1       3.613   4.055  19.035  0.00  0.00    +0.000 A 
ATOM      2  C   UNL     1       3.529   2.835  19.747  0.00  0.00    +0.000 A 
ATOM      3  C   UNL     1       2.779   2.729  20.928  0.00  0.00    +0.000 A 
ATOM      4  C   UNL     1       2.098   3.837  21.430  0.00  0.00    +0.000 A 
ATOM      5  C   UNL     1       2.144   5.036  20.722  0.00  0.00    +0.000 A 
ATOM      6  C   UNL     1       2.861   5.157  19.532  0.00  0.00    +0.000 A 
ATOM      7  C   UNL     1       2.614   6.527  19.034  0.00  0.00    +0.000 A 
ATOM      8  C   UNL     1       2.957   7.176  17.836  0.00  0.00    +0.000 A 
ATOM      9  C   UNL     1       2.577   8.509  17.641  0.00  0.00    +0.000 A 
ATOM     10  C   UNL     1       1.837   9.185  18.620  0.00  0.00    +0.000 A 
ATOM     11  C   UNL     1       1.450   8.522  19.792  0.00  0.00    +0.000 A 
ATOM     12  C   UNL     1       1.841   7.193  19.976  0.00  0.00    +0.000 A 
ATOM     13  C   UNL     1       1.475   6.312  21.123  0.00  0.00    +0.000 C 
ENDROOT
BRANCH   1  14
ATOM     14  C   UNL     1       4.533   4.116  17.869  0.00  0.00    +0.000 C 
ATOM     15  O   UNL     1       4.078   4.009  16.741  0.00  0.00    +0.000 OA
BRANCH  14  19
ATOM     16  N   UNL     1       8.240   4.286  17.899  0.00  0.00    +0.000 N 
ATOM     17  C   UNL     1       6.930   4.491  17.397  0.00  0.00    +0.000 C 
ATOM     18  N   UNL     1       6.773   5.187  16.165  0.00  0.00    +0.000 N 
ATOM     19  N   UNL     1       5.934   4.059  18.104  0.00  0.00    +0.000 NA
ATOM     20  H   UNL     1       9.062   4.631  17.384  0.00  0.00    +0.000 HD
ATOM     21  H   UNL     1       8.383   3.803  18.800  0.00  0.00    +0.000 HD
ATOM     22  H   UNL     1       7.609   5.520  15.665  0.00  0.00    +0.000 HD
ATOM     23  H   UNL     1       5.863   5.414  15.751  0.00  0.00    +0.000 HD
ENDBRANCH  14  19
ENDBRANCH   1  14
TORSDOF 2
ENDMDL
MODEL 8
REMARK VINA RESULT:      -7.3      2.675      4.775
REMARK  Name = 
REMARK  2 active torsions:
REMARK  status: ('A' for Active; 'I' for Inactive)
REMARK    1  A    between atoms: N_4  and  C_5
REMARK    2  A    between atoms: C_5  and  C_7
REMARK                            x       y       z     vdW  Elec       q    Type
REMARK                         _______ _______ _______ _____ _____    ______ ____
ROOT
ATOM      1  C   UNL     1       3.877   3.922  17.804  0.00  0.00    +0.000 A 
ATOM      2  C   UNL     1       3.950   2.509  17.806  0.00  0.00    +0.000 A 
ATOM      3  C   UNL     1       3.266   1.744  18.763  0.00  0.00    +0.000 A 
ATOM      4  C   UNL     1       2.497   2.368  19.743  0.00  0.00    +0.000 A 
ATOM      5  C   UNL     1       2.389   3.757  19.734  0.00  0.00    +0.000 A 
ATOM      6  C   UNL     1       3.037   4.536  18.775  0.00  0.00    +0.000 A 
ATOM      7  C   UNL     1       2.629   5.935  19.029  0.00  0.00    +0.000 A 
ATOM      8  C   UNL     1       2.852   7.129  18.324  0.00  0.00    +0.000 A 
ATOM      9  C   UNL     1       2.327   8.330  18.819  0.00  0.00    +0.000 A 
ATOM     10  C   UNL     1       1.564   8.338  19.994  0.00  0.00    +0.000 A 
ATOM     11  C   UNL     1       1.299   7.139  20.669  0.00  0.00    +0.000 A 
ATOM     12  C   UNL     1       1.832   5.949  20.166  0.00  0.00    +0.000 A 
ATOM     13  C   UNL     1       1.609   4.579  20.711  0.00  0.00    +0.000 C 
ENDROOT
BRANCH   1  14
ATOM     14  C   UNL     1       4.734   4.660  16.840  0.00  0.00    +0.000 C 
ATOM     15  O   UNL     1       4.738   4.329  15.665  0.00  0.00    +0.000 OA
BRANCH  14  19
ATOM     16  N   UNL     1       7.700   6.565  18.004  0.00  0.00    +0.000 N 
ATOM     17  C   UNL     1       6.990   5.474  17.441  0.00  0.00    +0.000 C 
ATOM     18  N   UNL     1       7.726   4.347  16.977  0.00  0.00    +0.000 N 
ATOM     19  N   UNL     1       5.701   5.571  17.349  0.00  0.00    +0.000 NA
ATOM     20  H   UNL     1       8.727   6.543  18.077  0.00  0.00    +0.000 HD
ATOM     21  H   UNL     1       7.194   7.402  18.329  0.00  0.00    +0.000 HD
ATOM     22  H   UNL     1       8.751   4.346  17.063  0.00  0.00    +0.000 HD
ATOM     23  H   UNL     1       7.298   3.536  16.520  0.00  0.00    +0.000 HD
ENDBRANCH  14  19
ENDBRANCH   1  14
TORSDOF 2
ENDMDL
MODEL 9
REMARK VINA RESULT:      -7.3      3.204      4.685
REMARK  Name = 
REMARK  2 active torsions:
REMARK  status: ('A' for Active; 'I' for Inactive)
REMARK    1  A    between atoms: N_4  and  C_5
REMARK    2  A    between atoms: C_5  and  C_7
REMARK                            x       y       z     vdW  Elec       q    Type
REMARK                         _______ _______ _______ _____ _____    ______ ____
ROOT
ATOM      1  C   UNL     1       2.021   5.522  19.736  0.00  0.00    +0.000 A 
ATOM      2  C   UNL     1       1.137   4.733  20.509  0.00  0.00    +0.000 A 
ATOM      3  C   UNL     1       0.932   3.374  20.223  0.00  0.00    +0.000 A 
ATOM      4  C   UNL     1       1.599   2.770  19.159  0.00  0.00    +0.000 A 
ATOM      5  C   UNL     1       2.498   3.527  18.410  0.00  0.00    +0.000 A 
ATOM      6  C   UNL     1       2.739   4.871  18.693  0.00  0.00    +0.000 A 
ATOM      7  C   UNL     1       3.794   5.312  17.755  0.00  0.00    +0.000 A 
ATOM      8  C   UNL     1       4.528   6.506  17.649  0.00  0.00    +0.000 A 
ATOM      9  C   UNL     1       5.487   6.637  16.636  0.00  0.00    +0.000 A 
ATOM     10  C   UNL     1       5.732   5.578  15.752  0.00  0.00    +0.000 A 
ATOM     11  C   UNL     1       5.037   4.370  15.891  0.00  0.00    +0.000 A 
ATOM     12  C   UNL     1       4.080   4.254  16.903  0.00  0.00    +0.000 A 
ATOM     13  C   UNL     1       3.290   3.035  17.239  0.00  0.00    +0.000 C 
ENDROOT
BRANCH   1  14
ATOM     14  C   UNL     1       2.081   6.979  20.021  0.00  0.00    +0.000 C 
ATOM     15  O   UNL     1       1.937   7.372  21.168  0.00  0.00    +0.000 OA
BRANCH  14  19
ATOM     16  N   UNL     1       1.676   9.737  17.569  0.00  0.00    +0.000 N 
ATOM     17  C   UNL     1       1.517   9.056  18.803  0.00  0.00    +0.000 C 
ATOM     18  N   UNL     1       0.799   9.698  19.850  0.00  0.00    +0.000 N 
ATOM     19  N   UNL     1       2.065   7.887  18.927  0.00  0.00    +0.000 NA
ATOM     20  H   UNL     1       1.278  10.676  17.432  0.00  0.00    +0.000 HD
ATOM     21  H   UNL     1       2.210   9.303  16.801  0.00  0.00    +0.000 HD
ATOM     22  H   UNL     1       0.407  10.636  19.689  0.00  0.00    +0.000 HD
ATOM     23  H   UNL     1       0.672   9.297  20.785  0.00  0.00    +0.000 HD
ENDBRANCH  14  19
ENDBRANCH   1  14
TORSDOF 2
ENDMDL
