MODEL 1
REMARK VINA RESULT:      -7.5      0.000      0.000
REMARK  Name = 
REMARK  6 active torsions:
REMARK  status: ('A' for Active; 'I' for Inactive)
REMARK    1  A    between atoms: C_1  and  O_2
REMARK    2  A    between atoms: O_2  and  C_3
REMARK    3  A    between atoms: C_7  and  N_8
REMARK    4  A    between atoms: C_11  and  C_12
REMARK    5  A    between atoms: C_21  and  C_22
REMARK    6  A    between atoms: C_27  and  C_28
REMARK                            x       y       z     vdW  Elec       q    Type
REMARK                         _______ _______ _______ _____ _____    ______ ____
ROOT
ATOM      1  N   UNL     1       2.352   7.368  18.866  0.00  0.00    +0.000 N 
ATOM      2  C   UNL     1       2.177   7.721  20.272  0.00  0.00    +0.000 C 
ATOM      3  C   UNL     1       1.007   8.696  20.385  0.00  0.00    +0.000 C 
ATOM      4  C   UNL     1       1.226   9.924  19.478  0.00  0.00    +0.000 C 
ATOM      5  C   UNL     1       1.466   9.482  18.015  0.00  0.00    +0.000 C 
ATOM      6  C   UNL     1       0.225   8.918  17.314  0.00  0.00    +0.000 C 
ATOM      7  C   UNL     1       2.628   8.481  17.959  0.00  0.00    +0.000 C 
ENDROOT
BRANCH   4   8
ATOM      8  C   UNL     1       0.084  10.933  19.645  0.00  0.00    +0.000 C 
ATOM      9  O   UNL     1      -0.972  10.595  20.185  0.00  0.00    +0.000 OA
ATOM     10  N   UNL     1       0.279  12.237  19.210  0.00  0.00    +0.000 N 
ATOM     11  C   UNL     1       1.437  12.726  18.460  0.00  0.00    +0.000 C 
ATOM     12  C   UNL     1       2.003  13.999  19.061  0.00  0.00    +0.000 C 
ATOM     13  N   UNL     1       0.954  14.933  19.380  0.00  0.00    +0.000 N 
ATOM     14  C   UNL     1      -0.358  14.569  19.518  0.00  0.00    +0.000 A 
ATOM     15  N   UNL     1      -1.057  15.648  19.812  0.00  0.00    +0.000 NA
ATOM     16  N   UNL     1      -0.181  16.708  19.902  0.00  0.00    +0.000 NA
ATOM     17  C   UNL     1       1.042  16.268  19.660  0.00  0.00    +0.000 A 
ATOM     18  C   UNL     1      -0.852  13.174  19.319  0.00  0.00    +0.000 C 
BRANCH  17  19
ATOM     19  C   UNL     1       2.307  17.050  19.687  0.00  0.00    +0.000 C 
ATOM     20  F   UNL     1       2.105  18.359  20.013  0.00  0.00    +0.000 F 
ATOM     21  F   UNL     1       3.190  16.575  20.604  0.00  0.00    +0.000 F 
ATOM     22  F   UNL     1       2.937  17.064  18.485  0.00  0.00    +0.000 F 
ENDBRANCH  17  19
ENDBRANCH   4   8
BRANCH   1  27
ATOM     23  C   UNL     1       5.705   4.672  16.103  0.00  0.00    +0.000 A 
ATOM     24  C   UNL     1       5.679   5.941  16.639  0.00  0.00    +0.000 A 
ATOM     25  N   UNL     1       4.687   6.398  17.425  0.00  0.00    +0.000 NA
ATOM     26  C   UNL     1       3.623   5.592  17.690  0.00  0.00    +0.000 A 
ATOM     27  C   UNL     1       2.513   6.042  18.447  0.00  0.00    +0.000 A 
ATOM     28  C   UNL     1       1.489   5.124  18.722  0.00  0.00    +0.000 A 
ATOM     29  C   UNL     1       1.571   3.836  18.233  0.00  0.00    +0.000 A 
ATOM     30  N   UNL     1       2.591   3.393  17.477  0.00  0.00    +0.000 NA
ATOM     31  C   UNL     1       3.585   4.260  17.214  0.00  0.00    +0.000 A 
ATOM     32  C   UNL     1       4.638   3.834  16.415  0.00  0.00    +0.000 A 
BRANCH  23  34
ATOM     33  C   UNL     1       6.340   4.018  13.921  0.00  0.00    +0.000 C 
ATOM     34  O   UNL     1       6.678   4.156  15.297  0.00  0.00    +0.000 OA
ENDBRANCH  23  34
ENDBRANCH   1  27
TORSDOF 4
ENDMDL
MODEL 2
REMARK VINA RESULT:      -7.2      3.680      4.264
REMARK  Name = 
REMARK  6 active torsions:
REMARK  status: ('A' for Active; 'I' for Inactive)
REMARK    1  A    between atoms: C_1  and  O_2
REMARK    2  A    between atoms: O_2  and  C_3
REMARK    3  A    between atoms: C_7  and  N_8
REMARK    4  A    between atoms: C_11  and  C_12
REMARK    5  A    between atoms: C_21  and  C_22
REMARK    6  A    between atoms: C_27  and  C_28
REMARK                            x       y       z     vdW  Elec       q    Type
REMARK                         _______ _______ _______ _____ _____    ______ ____
ROOT
ATOM      1  N   UNL     1       1.908   7.601  19.919  0.00  0.00    +0.000 N 
ATOM      2  C   UNL     1       1.189   8.108  21.084  0.00  0.00    +0.000 C 
ATOM      3  C   UNL     1       0.050   9.002  20.600  0.00  0.00    +0.000 C 
ATOM      4  C   UNL     1       0.585  10.125  19.687  0.00  0.00    +0.000 C 
ATOM      5  C   UNL     1       1.387   9.527  18.506  0.00  0.00    +0.000 C 
ATOM      6  C   UNL     1       0.532   8.795  17.467  0.00  0.00    +0.000 C 
ATOM      7  C   UNL     1       2.497   8.613  19.043  0.00  0.00    +0.000 C 
ENDROOT
BRANCH   4   8
ATOM      8  C   UNL     1      -0.551  11.062  19.257  0.00  0.00    +0.000 C 
ATOM      9  O   UNL     1      -0.953  11.060  18.092  0.00  0.00    +0.000 OA
ATOM     10  N   UNL     1      -1.136  11.879  20.216  0.00  0.00    +0.000 N 
ATOM     11  C   UNL     1      -0.675  12.050  21.594  0.00  0.00    +0.000 C 
ATOM     12  C   UNL     1      -1.812  11.915  22.590  0.00  0.00    +0.000 C 
ATOM     13  N   UNL     1      -2.968  12.660  22.161  0.00  0.00    +0.000 N 
ATOM     14  C   UNL     1      -3.160  13.068  20.869  0.00  0.00    +0.000 A 
ATOM     15  N   UNL     1      -4.307  13.717  20.807  0.00  0.00    +0.000 NA
ATOM     16  N   UNL     1      -4.875  13.692  22.063  0.00  0.00    +0.000 NA
ATOM     17  C   UNL     1      -4.070  13.032  22.879  0.00  0.00    +0.000 A 
ATOM     18  C   UNL     1      -2.180  12.818  19.771  0.00  0.00    +0.000 C 
BRANCH  17  19
ATOM     19  C   UNL     1      -4.294  12.724  24.317  0.00  0.00    +0.000 C 
ATOM     20  F   UNL     1      -5.609  12.807  24.670  0.00  0.00    +0.000 F 
ATOM     21  F   UNL     1      -3.904  11.463  24.642  0.00  0.00    +0.000 F 
ATOM     22  F   UNL     1      -3.637  13.578  25.140  0.00  0.00    +0.000 F 
ENDBRANCH  17  19
ENDBRANCH   4   8
BRANCH   1  27
ATOM     23  C   UNL     1       4.683   4.712  16.742  0.00  0.00    +0.000 A 
ATOM     24  C   UNL     1       4.522   6.065  16.941  0.00  0.00    +0.000 A 
ATOM     25  N   UNL     1       3.776   6.590  17.930  0.00  0.00    +0.000 NA
ATOM     26  C   UNL     1       3.106   5.757  18.771  0.00  0.00    +0.000 A 
ATOM     27  C   UNL     1       2.245   6.249  19.783  0.00  0.00    +0.000 A 
ATOM     28  C   UNL     1       1.642   5.319  20.643  0.00  0.00    +0.000 A 
ATOM     29  C   UNL     1       1.874   3.970  20.467  0.00  0.00    +0.000 A 
ATOM     30  N   UNL     1       2.652   3.472  19.491  0.00  0.00    +0.000 NA
ATOM     31  C   UNL     1       3.244   4.353  18.665  0.00  0.00    +0.000 A 
ATOM     32  C   UNL     1       4.034   3.862  17.633  0.00  0.00    +0.000 A 
BRANCH  23  34
ATOM     33  C   UNL     1       6.588   4.825  15.345  0.00  0.00    +0.000 C 
ATOM     34  O   UNL     1       5.420   4.122  15.755  0.00  0.00    +0.000 OA
ENDBRANCH  23  34
ENDBRANCH   1  27
TORSDOF 4
ENDMDL
MODEL 3
REMARK VINA RESULT:      -7.1      6.094      8.935
REMARK  Name = 
REMARK  6 active torsions:
REMARK  status: ('A' for Active; 'I' for Inactive)
REMARK    1  A    between atoms: C_1  and  O_2
REMARK    2  A    between atoms: O_2  and  C_3
REMARK    3  A    between atoms: C_7  and  N_8
REMARK    4  A    between atoms: C_11  and  C_12
REMARK    5  A    between atoms: C_21  and  C_22
REMARK    6  A    between atoms: C_27  and  C_28
REMARK                            x       y       z     vdW  Elec       q    Type
REMARK                         _______ _______ _______ _____ _____    ______ ____
ROOT
ATOM      1  N   UNL     1       1.500  13.701  19.794  0.00  0.00    +0.000 N 
ATOM      2  C   UNL     1       2.491  13.431  20.832  0.00  0.00    +0.000 C 
ATOM      3  C   UNL     1       3.507  14.571  20.841  0.00  0.00    +0.000 C 
ATOM      4  C   UNL     1       4.133  14.759  19.443  0.00  0.00    +0.000 C 
ATOM      5  C   UNL     1       3.031  14.979  18.380  0.00  0.00    +0.000 C 
ATOM      6  C   UNL     1       2.320  16.333  18.478  0.00  0.00    +0.000 C 
ATOM      7  C   UNL     1       2.020  13.825  18.433  0.00  0.00    +0.000 C 
ENDROOT
BRANCH   4   8
ATOM      8  C   UNL     1       5.201  15.858  19.470  0.00  0.00    +0.000 C 
ATOM      9  O   UNL     1       5.067  16.840  20.203  0.00  0.00    +0.000 OA
ATOM     10  N   UNL     1       6.334  15.704  18.681  0.00  0.00    +0.000 N 
ATOM     11  C   UNL     1       6.554  14.647  17.694  0.00  0.00    +0.000 C 
ATOM     12  C   UNL     1       7.913  13.993  17.860  0.00  0.00    +0.000 C 
ATOM     13  N   UNL     1       8.945  14.981  18.041  0.00  0.00    +0.000 N 
ATOM     14  C   UNL     1       8.691  16.269  18.428  0.00  0.00    +0.000 A 
ATOM     15  N   UNL     1       9.840  16.911  18.504  0.00  0.00    +0.000 NA
ATOM     16  N   UNL     1      10.845  16.018  18.201  0.00  0.00    +0.000 NA
ATOM     17  C   UNL     1      10.301  14.841  17.940  0.00  0.00    +0.000 A 
ATOM     18  C   UNL     1       7.317  16.801  18.672  0.00  0.00    +0.000 C 
BRANCH  17  19
ATOM     19  C   UNL     1      11.004  13.574  17.604  0.00  0.00    +0.000 C 
ATOM     20  F   UNL     1      12.328  13.609  17.928  0.00  0.00    +0.000 F 
ATOM     21  F   UNL     1      10.490  12.506  18.269  0.00  0.00    +0.000 F 
ATOM     22  F   UNL     1      10.957  13.289  16.279  0.00  0.00    +0.000 F 
ENDBRANCH  17  19
ENDBRANCH   4   8
BRANCH   1  27
ATOM     23  C   UNL     1      -2.361  10.761  18.183  0.00  0.00    +0.000 A 
ATOM     24  C   UNL     1      -0.989  10.727  18.056  0.00  0.00    +0.000 A 
ATOM     25  N   UNL     1      -0.162  11.596  18.666  0.00  0.00    +0.000 NA
ATOM     26  C   UNL     1      -0.689  12.593  19.426  0.00  0.00    +0.000 A 
ATOM     27  C   UNL     1       0.126  13.583  20.030  0.00  0.00    +0.000 A 
ATOM     28  C   UNL     1      -0.498  14.539  20.847  0.00  0.00    +0.000 A 
ATOM     29  C   UNL     1      -1.867  14.510  21.015  0.00  0.00    +0.000 A 
ATOM     30  N   UNL     1      -2.669  13.610  20.422  0.00  0.00    +0.000 NA
ATOM     31  C   UNL     1      -2.084  12.682  19.643  0.00  0.00    +0.000 A 
ATOM     32  C   UNL     1      -2.893  11.754  18.999  0.00  0.00    +0.000 A 
BRANCH  23  34
ATOM     33  C   UNL     1      -3.630  10.246  16.255  0.00  0.00    +0.000 C 
ATOM     34  O   UNL     1      -3.248   9.913  17.586  0.00  0.00    +0.000 OA
ENDBRANCH  23  34
ENDBRANCH   1  27
TORSDOF 4
ENDMDL
MODEL 4
REMARK VINA RESULT:      -7.0      4.644      9.971
REMARK  Name = 
REMARK  6 active torsions:
REMARK  status: ('A' for Active; 'I' for Inactive)
REMARK    1  A    between atoms: C_1  and  O_2
REMARK    2  A    between atoms: O_2  and  C_3
REMARK    3  A    between atoms: C_7  and  N_8
REMARK    4  A    between atoms: C_11  and  C_12
REMARK    5  A    between atoms: C_21  and  C_22
REMARK    6  A    between atoms: C_27  and  C_28
REMARK                            x       y       z     vdW  Elec       q    Type
REMARK                         _______ _______ _______ _____ _____    ______ ____
ROOT
ATOM      1  N   UNL     1       0.613  10.384  20.165  0.00  0.00    +0.000 N 
ATOM      2  C   UNL     1       1.349  10.014  18.959  0.00  0.00    +0.000 C 
ATOM      3  C   UNL     1       1.409   8.491  18.877  0.00  0.00    +0.000 C 
ATOM      4  C   UNL     1       2.020   7.895  20.163  0.00  0.00    +0.000 C 
ATOM      5  C   UNL     1       1.234   8.372  21.407  0.00  0.00    +0.000 C 
ATOM      6  C   UNL     1      -0.169   7.770  21.538  0.00  0.00    +0.000 C 
ATOM      7  C   UNL     1       1.175   9.906  21.427  0.00  0.00    +0.000 C 
ENDROOT
BRANCH   4   8
ATOM      8  C   UNL     1       2.142   6.371  20.050  0.00  0.00    +0.000 C 
ATOM      9  O   UNL     1       1.267   5.639  20.517  0.00  0.00    +0.000 OA
ATOM     10  N   UNL     1       3.236   5.840  19.379  0.00  0.00    +0.000 N 
ATOM     11  C   UNL     1       4.387   6.595  18.883  0.00  0.00    +0.000 C 
ATOM     12  C   UNL     1       4.714   6.245  17.443  0.00  0.00    +0.000 C 
ATOM     13  N   UNL     1       4.696   4.819  17.240  0.00  0.00    +0.000 N 
ATOM     14  C   UNL     1       4.071   3.948  18.090  0.00  0.00    +0.000 A 
ATOM     15  N   UNL     1       4.236   2.725  17.623  0.00  0.00    +0.000 NA
ATOM     16  N   UNL     1       4.941   2.816  16.442  0.00  0.00    +0.000 NA
ATOM     17  C   UNL     1       5.201   4.089  16.200  0.00  0.00    +0.000 A 
ATOM     18  C   UNL     1       3.369   4.373  19.337  0.00  0.00    +0.000 C 
BRANCH  17  19
ATOM     19  C   UNL     1       5.904   4.661  15.021  0.00  0.00    +0.000 C 
ATOM     20  F   UNL     1       5.242   5.725  14.483  0.00  0.00    +0.000 F 
ATOM     21  F   UNL     1       7.146   5.118  15.330  0.00  0.00    +0.000 F 
ATOM     22  F   UNL     1       6.041   3.765  14.011  0.00  0.00    +0.000 F 
ENDBRANCH  17  19
ENDBRANCH   4   8
BRANCH   1  27
ATOM     23  C   UNL     1      -3.840  11.123  17.763  0.00  0.00    +0.000 A 
ATOM     24  C   UNL     1      -2.957  10.072  17.880  0.00  0.00    +0.000 A 
ATOM     25  N   UNL     1      -1.864  10.100  18.666  0.00  0.00    +0.000 NA
ATOM     26  C   UNL     1      -1.577  11.231  19.365  0.00  0.00    +0.000 A 
ATOM     27  C   UNL     1      -0.402  11.348  20.149  0.00  0.00    +0.000 A 
ATOM     28  C   UNL     1      -0.218  12.528  20.886  0.00  0.00    +0.000 A 
ATOM     29  C   UNL     1      -1.153  13.539  20.807  0.00  0.00    +0.000 A 
ATOM     30  N   UNL     1      -2.255  13.473  20.041  0.00  0.00    +0.000 NA
ATOM     31  C   UNL     1      -2.450  12.344  19.337  0.00  0.00    +0.000 A 
ATOM     32  C   UNL     1      -3.569  12.261  18.518  0.00  0.00    +0.000 A 
BRANCH  23  34
ATOM     33  C   UNL     1      -5.813  12.280  17.161  0.00  0.00    +0.000 C 
ATOM     34  O   UNL     1      -4.958  11.156  16.981  0.00  0.00    +0.000 OA
ENDBRANCH  23  34
ENDBRANCH   1  27
TORSDOF 4
ENDMDL
MODEL 5
REMARK VINA RESULT:      -6.9      6.399      8.488
REMARK  Name = 
REMARK  6 active torsions:
REMARK  status: ('A' for Active; 'I' for Inactive)
REMARK    1  A    between atoms: C_1  and  O_2
REMARK    2  A    between atoms: O_2  and  C_3
REMARK    3  A    between atoms: C_7  and  N_8
REMARK    4  A    between atoms: C_11  and  C_12
REMARK    5  A    between atoms: C_21  and  C_22
REMARK    6  A    between atoms: C_27  and  C_28
REMARK                            x       y       z     vdW  Elec       q    Type
REMARK                         _______ _______ _______ _____ _____    ______ ____
ROOT
ATOM      1  N   UNL     1       4.591  15.492  18.304  0.00  0.00    +0.000 N 
ATOM      2  C   UNL     1       3.571  16.367  17.734  0.00  0.00    +0.000 C 
ATOM      3  C   UNL     1       2.374  16.398  18.680  0.00  0.00    +0.000 C 
ATOM      4  C   UNL     1       1.857  14.970  18.957  0.00  0.00    +0.000 C 
ATOM      5  C   UNL     1       2.997  14.078  19.502  0.00  0.00    +0.000 C 
ATOM      6  C   UNL     1       3.445  14.423  20.926  0.00  0.00    +0.000 C 
ATOM      7  C   UNL     1       4.187  14.106  18.532  0.00  0.00    +0.000 C 
ENDROOT
BRANCH   4   8
ATOM      8  C   UNL     1       0.613  15.008  19.853  0.00  0.00    +0.000 C 
ATOM      9  O   UNL     1       0.369  16.002  20.539  0.00  0.00    +0.000 OA
ATOM     10  N   UNL     1      -0.246  13.916  19.843  0.00  0.00    +0.000 N 
ATOM     11  C   UNL     1      -0.008  12.644  19.162  0.00  0.00    +0.000 C 
ATOM     12  C   UNL     1      -1.207  12.212  18.338  0.00  0.00    +0.000 C 
ATOM     13  N   UNL     1      -2.430  12.367  19.081  0.00  0.00    +0.000 N 
ATOM     14  C   UNL     1      -2.540  13.170  20.185  0.00  0.00    +0.000 A 
ATOM     15  N   UNL     1      -3.781  13.095  20.627  0.00  0.00    +0.000 NA
ATOM     16  N   UNL     1      -4.483  12.267  19.778  0.00  0.00    +0.000 NA
ATOM     17  C   UNL     1      -3.667  11.842  18.828  0.00  0.00    +0.000 A 
ATOM     18  C   UNL     1      -1.400  13.944  20.758  0.00  0.00    +0.000 C 
BRANCH  17  19
ATOM     19  C   UNL     1      -3.999  10.963  17.676  0.00  0.00    +0.000 C 
ATOM     20  F   UNL     1      -5.315  10.605  17.654  0.00  0.00    +0.000 F 
ATOM     21  F   UNL     1      -3.761  11.564  16.481  0.00  0.00    +0.000 F 
ATOM     22  F   UNL     1      -3.302   9.799  17.691  0.00  0.00    +0.000 F 
ENDBRANCH  17  19
ENDBRANCH   4   8
BRANCH   1  27
ATOM     23  C   UNL     1       9.162  13.315  17.587  0.00  0.00    +0.000 A 
ATOM     24  C   UNL     1       7.858  12.954  17.328  0.00  0.00    +0.000 A 
ATOM     25  N   UNL     1       6.804  13.765  17.538  0.00  0.00    +0.000 NA
ATOM     26  C   UNL     1       7.011  15.001  18.067  0.00  0.00    +0.000 A 
ATOM     27  C   UNL     1       5.937  15.871  18.381  0.00  0.00    +0.000 A 
ATOM     28  C   UNL     1       6.247  17.150  18.866  0.00  0.00    +0.000 A 
ATOM     29  C   UNL     1       7.565  17.514  19.051  0.00  0.00    +0.000 A 
ATOM     30  N   UNL     1       8.602  16.697  18.801  0.00  0.00    +0.000 NA
ATOM     31  C   UNL     1       8.320  15.470  18.326  0.00  0.00    +0.000 A 
ATOM     32  C   UNL     1       9.374  14.598  18.083  0.00  0.00    +0.000 A 
BRANCH  23  34
ATOM     33  C   UNL     1      11.467  13.227  17.065  0.00  0.00    +0.000 C 
ATOM     34  O   UNL     1      10.267  12.537  17.401  0.00  0.00    +0.000 OA
ENDBRANCH  23  34
ENDBRANCH   1  27
TORSDOF 4
ENDMDL
MODEL 6
REMARK VINA RESULT:      -6.9      4.501     10.140
REMARK  Name = 
REMARK  6 active torsions:
REMARK  status: ('A' for Active; 'I' for Inactive)
REMARK    1  A    between atoms: C_1  and  O_2
REMARK    2  A    between atoms: O_2  and  C_3
REMARK    3  A    between atoms: C_7  and  N_8
REMARK    4  A    between atoms: C_11  and  C_12
REMARK    5  A    between atoms: C_21  and  C_22
REMARK    6  A    between atoms: C_27  and  C_28
REMARK                            x       y       z     vdW  Elec       q    Type
REMARK                         _______ _______ _______ _____ _____    ______ ____
ROOT
ATOM      1  N   UNL     1       0.697  10.751  20.125  0.00  0.00    +0.000 N 
ATOM      2  C   UNL     1       1.378  10.271  18.925  0.00  0.00    +0.000 C 
ATOM      3  C   UNL     1       1.309   8.746  18.906  0.00  0.00    +0.000 C 
ATOM      4  C   UNL     1       1.891   8.154  20.207  0.00  0.00    +0.000 C 
ATOM      5  C   UNL     1       1.170   8.747  21.442  0.00  0.00    +0.000 C 
ATOM      6  C   UNL     1      -0.275   8.271  21.619  0.00  0.00    +0.000 C 
ATOM      7  C   UNL     1       1.240  10.280  21.397  0.00  0.00    +0.000 C 
ENDROOT
BRANCH   4   8
ATOM      8  C   UNL     1       1.883   6.622  20.157  0.00  0.00    +0.000 C 
ATOM      9  O   UNL     1       0.920   5.989  20.595  0.00  0.00    +0.000 OA
ATOM     10  N   UNL     1       2.963   5.970  19.577  0.00  0.00    +0.000 N 
ATOM     11  C   UNL     1       4.204   6.601  19.127  0.00  0.00    +0.000 C 
ATOM     12  C   UNL     1       4.584   6.164  17.725  0.00  0.00    +0.000 C 
ATOM     13  N   UNL     1       4.451   4.738  17.572  0.00  0.00    +0.000 N 
ATOM     14  C   UNL     1       3.701   3.961  18.413  0.00  0.00    +0.000 A 
ATOM     15  N   UNL     1       3.784   2.710  18.001  0.00  0.00    +0.000 NA
ATOM     16  N   UNL     1       4.563   2.690  16.864  0.00  0.00    +0.000 NA
ATOM     17  C   UNL     1       4.951   3.925  16.594  0.00  0.00    +0.000 A 
ATOM     18  C   UNL     1       2.967   4.497  19.597  0.00  0.00    +0.000 C 
BRANCH  17  19
ATOM     19  C   UNL     1       5.771   4.384  15.441  0.00  0.00    +0.000 C 
ATOM     20  F   UNL     1       6.042   3.378  14.560  0.00  0.00    +0.000 F 
ATOM     21  F   UNL     1       5.149   5.351  14.716  0.00  0.00    +0.000 F 
ATOM     22  F   UNL     1       6.977   4.873  15.822  0.00  0.00    +0.000 F 
ENDBRANCH  17  19
ENDBRANCH   4   8
BRANCH   1  27
ATOM     23  C   UNL     1       0.661  15.718  18.910  0.00  0.00    +0.000 A 
ATOM     24  C   UNL     1       1.561  14.685  18.767  0.00  0.00    +0.000 A 
ATOM     25  N   UNL     1       1.291  13.409  19.100  0.00  0.00    +0.000 NA
ATOM     26  C   UNL     1       0.081  13.105  19.642  0.00  0.00    +0.000 A 
ATOM     27  C   UNL     1      -0.234  11.795  20.083  0.00  0.00    +0.000 A 
ATOM     28  C   UNL     1      -1.527  11.560  20.573  0.00  0.00    +0.000 A 
ATOM     29  C   UNL     1      -2.435  12.597  20.641  0.00  0.00    +0.000 A 
ATOM     30  N   UNL     1      -2.152  13.857  20.270  0.00  0.00    +0.000 NA
ATOM     31  C   UNL     1      -0.919  14.095  19.789  0.00  0.00    +0.000 A 
ATOM     32  C   UNL     1      -0.593  15.395  19.421  0.00  0.00    +0.000 A 
BRANCH  23  34
ATOM     33  C   UNL     1      -0.107  17.645  17.774  0.00  0.00    +0.000 C 
ATOM     34  O   UNL     1       0.879  17.028  18.597  0.00  0.00    +0.000 OA
ENDBRANCH  23  34
ENDBRANCH   1  27
TORSDOF 4
ENDMDL
MODEL 7
REMARK VINA RESULT:      -6.8      7.292     10.291
REMARK  Name = 
REMARK  6 active torsions:
REMARK  status: ('A' for Active; 'I' for Inactive)
REMARK    1  A    between atoms: C_1  and  O_2
REMARK    2  A    between atoms: O_2  and  C_3
REMARK    3  A    between atoms: C_7  and  N_8
REMARK    4  A    between atoms: C_11  and  C_12
REMARK    5  A    between atoms: C_21  and  C_22
REMARK    6  A    between atoms: C_27  and  C_28
REMARK                            x       y       z     vdW  Elec       q    Type
REMARK                         _______ _______ _______ _____ _____    ______ ____
ROOT
ATOM      1  N   UNL     1       1.803  15.191  20.191  0.00  0.00    +0.000 N 
ATOM      2  C   UNL     1       2.792  15.282  21.262  0.00  0.00    +0.000 C 
ATOM      3  C   UNL     1       3.957  16.140  20.774  0.00  0.00    +0.000 C 
ATOM      4  C   UNL     1       4.540  15.577  19.460  0.00  0.00    +0.000 C 
ATOM      5  C   UNL     1       3.433  15.448  18.387  0.00  0.00    +0.000 C 
ATOM      6  C   UNL     1       2.924  16.785  17.839  0.00  0.00    +0.000 C 
ATOM      7  C   UNL     1       2.273  14.605  18.937  0.00  0.00    +0.000 C 
ENDROOT
BRANCH   4   8
ATOM      8  C   UNL     1       5.752  16.400  19.009  0.00  0.00    +0.000 C 
ATOM      9  O   UNL     1       5.824  17.602  19.273  0.00  0.00    +0.000 OA
ATOM     10  N   UNL     1       6.779  15.755  18.332  0.00  0.00    +0.000 N 
ATOM     11  C   UNL     1       6.759  14.368  17.865  0.00  0.00    +0.000 C 
ATOM     12  C   UNL     1       8.020  13.622  18.259  0.00  0.00    +0.000 C 
ATOM     13  N   UNL     1       9.195  14.413  17.995  0.00  0.00    +0.000 N 
ATOM     14  C   UNL     1       9.161  15.770  17.820  0.00  0.00    +0.000 A 
ATOM     15  N   UNL     1      10.393  16.188  17.600  0.00  0.00    +0.000 NA
ATOM     16  N   UNL     1      11.230  15.095  17.673  0.00  0.00    +0.000 NA
ATOM     17  C   UNL     1      10.503  14.021  17.933  0.00  0.00    +0.000 A 
ATOM     18  C   UNL     1       7.904  16.574  17.849  0.00  0.00    +0.000 C 
BRANCH  17  19
ATOM     19  C   UNL     1      10.986  12.629  18.137  0.00  0.00    +0.000 C 
ATOM     20  F   UNL     1      12.323  12.500  17.900  0.00  0.00    +0.000 F 
ATOM     21  F   UNL     1      10.794  12.196  19.411  0.00  0.00    +0.000 F 
ATOM     22  F   UNL     1      10.379  11.742  17.310  0.00  0.00    +0.000 F 
ENDBRANCH  17  19
ENDBRANCH   4   8
BRANCH   1  27
ATOM     23  C   UNL     1      -2.012  12.784  22.599  0.00  0.00    +0.000 A 
ATOM     24  C   UNL     1      -0.643  12.636  22.548  0.00  0.00    +0.000 A 
ATOM     25  N   UNL     1       0.174  13.478  21.888  0.00  0.00    +0.000 NA
ATOM     26  C   UNL     1      -0.363  14.520  21.197  0.00  0.00    +0.000 A 
ATOM     27  C   UNL     1       0.437  15.395  20.421  0.00  0.00    +0.000 A 
ATOM     28  C   UNL     1      -0.194  16.479  19.791  0.00  0.00    +0.000 A 
ATOM     29  C   UNL     1      -1.557  16.646  19.916  0.00  0.00    +0.000 A 
ATOM     30  N   UNL     1      -2.348  15.809  20.610  0.00  0.00    +0.000 NA
ATOM     31  C   UNL     1      -1.755  14.772  21.227  0.00  0.00    +0.000 A 
ATOM     32  C   UNL     1      -2.553  13.878  21.931  0.00  0.00    +0.000 A 
BRANCH  23  34
ATOM     33  C   UNL     1      -4.095  12.569  23.698  0.00  0.00    +0.000 C 
ATOM     34  O   UNL     1      -2.889  11.962  23.245  0.00  0.00    +0.000 OA
ENDBRANCH  23  34
ENDBRANCH   1  27
TORSDOF 4
ENDMDL
MODEL 8
REMARK VINA RESULT:      -6.8      6.718      9.506
REMARK  Name = 
REMARK  6 active torsions:
REMARK  status: ('A' for Active; 'I' for Inactive)
REMARK    1  A    between atoms: C_1  and  O_2
REMARK    2  A    between atoms: O_2  and  C_3
REMARK    3  A    between atoms: C_7  and  N_8
REMARK    4  A    between atoms: C_11  and  C_12
REMARK    5  A    between atoms: C_21  and  C_22
REMARK    6  A    between atoms: C_27  and  C_28
REMARK                            x       y       z     vdW  Elec       q    Type
REMARK                         _______ _______ _______ _____ _____    ______ ____
ROOT
ATOM      1  N   UNL     1       1.841  14.669  19.484  0.00  0.00    +0.000 N 
ATOM      2  C   UNL     1       2.994  13.797  19.277  0.00  0.00    +0.000 C 
ATOM      3  C   UNL     1       4.265  14.611  19.506  0.00  0.00    +0.000 C 
ATOM      4  C   UNL     1       4.285  15.863  18.602  0.00  0.00    +0.000 C 
ATOM      5  C   UNL     1       3.011  16.712  18.824  0.00  0.00    +0.000 C 
ATOM      6  C   UNL     1       2.956  17.427  20.179  0.00  0.00    +0.000 C 
ATOM      7  C   UNL     1       1.764  15.842  18.614  0.00  0.00    +0.000 C 
ENDROOT
BRANCH   4   8
ATOM      8  C   UNL     1       5.593  16.642  18.784  0.00  0.00    +0.000 C 
ATOM      9  O   UNL     1       5.595  17.730  19.362  0.00  0.00    +0.000 OA
ATOM     10  N   UNL     1       6.774  16.077  18.319  0.00  0.00    +0.000 N 
ATOM     11  C   UNL     1       6.883  14.853  17.524  0.00  0.00    +0.000 C 
ATOM     12  C   UNL     1       7.932  13.909  18.084  0.00  0.00    +0.000 C 
ATOM     13  N   UNL     1       9.141  14.616  18.417  0.00  0.00    +0.000 N 
ATOM     14  C   UNL     1       9.192  15.971  18.601  0.00  0.00    +0.000 A 
ATOM     15  N   UNL     1      10.434  16.302  18.895  0.00  0.00    +0.000 NA
ATOM     16  N   UNL     1      11.181  15.144  18.938  0.00  0.00    +0.000 NA
ATOM     17  C   UNL     1      10.390  14.119  18.667  0.00  0.00    +0.000 A 
ATOM     18  C   UNL     1       8.009  16.869  18.445  0.00  0.00    +0.000 C 
BRANCH  17  19
ATOM     19  C   UNL     1      10.754  12.678  18.641  0.00  0.00    +0.000 C 
ATOM     20  F   UNL     1      12.067  12.465  18.943  0.00  0.00    +0.000 F 
ATOM     21  F   UNL     1      10.046  11.948  19.543  0.00  0.00    +0.000 F 
ATOM     22  F   UNL     1      10.561  12.114  17.422  0.00  0.00    +0.000 F 
ENDBRANCH  17  19
ENDBRANCH   4   8
BRANCH   1  27
ATOM     23  C   UNL     1      -2.467  11.985  18.866  0.00  0.00    +0.000 A 
ATOM     24  C   UNL     1      -1.330  12.193  18.116  0.00  0.00    +0.000 A 
ATOM     25  N   UNL     1      -0.267  12.894  18.550  0.00  0.00    +0.000 NA
ATOM     26  C   UNL     1      -0.309  13.468  19.783  0.00  0.00    +0.000 A 
ATOM     27  C   UNL     1       0.747  14.281  20.266  0.00  0.00    +0.000 A 
ATOM     28  C   UNL     1       0.646  14.782  21.573  0.00  0.00    +0.000 A 
ATOM     29  C   UNL     1      -0.472  14.501  22.332  0.00  0.00    +0.000 A 
ATOM     30  N   UNL     1      -1.506  13.769  21.886  0.00  0.00    +0.000 NA
ATOM     31  C   UNL     1      -1.419  13.274  20.638  0.00  0.00    +0.000 A 
ATOM     32  C   UNL     1      -2.486  12.533  20.145  0.00  0.00    +0.000 A 
BRANCH  23  34
ATOM     33  C   UNL     1      -3.717  11.073  17.078  0.00  0.00    +0.000 C 
ATOM     34  O   UNL     1      -3.575  11.290  18.478  0.00  0.00    +0.000 OA
ENDBRANCH  23  34
ENDBRANCH   1  27
TORSDOF 4
ENDMDL
MODEL 9
REMARK VINA RESULT:      -6.8      6.174      8.683
REMARK  Name = 
REMARK  6 active torsions:
REMARK  status: ('A' for Active; 'I' for Inactive)
REMARK    1  A    between atoms: C_1  and  O_2
REMARK    2  A    between atoms: O_2  and  C_3
REMARK    3  A    between atoms: C_7  and  N_8
REMARK    4  A    between atoms: C_11  and  C_12
REMARK    5  A    between atoms: C_21  and  C_22
REMARK    6  A    between atoms: C_27  and  C_28
REMARK                            x       y       z     vdW  Elec       q    Type
REMARK                         _______ _______ _______ _____ _____    ______ ____
ROOT
ATOM      1  N   UNL     1      -1.181  12.232  18.859  0.00  0.00    +0.000 N 
ATOM      2  C   UNL     1      -0.354  11.382  19.712  0.00  0.00    +0.000 C 
ATOM      3  C   UNL     1       0.421  12.274  20.679  0.00  0.00    +0.000 C 
ATOM      4  C   UNL     1       1.237  13.335  19.913  0.00  0.00    +0.000 C 
ATOM      5  C   UNL     1       0.316  14.161  18.983  0.00  0.00    +0.000 C 
ATOM      6  C   UNL     1      -0.634  15.112  19.718  0.00  0.00    +0.000 C 
ATOM      7  C   UNL     1      -0.463  13.219  18.054  0.00  0.00    +0.000 C 
ENDROOT
BRANCH   4   8
ATOM      8  C   UNL     1       2.068  14.185  20.881  0.00  0.00    +0.000 C 
ATOM      9  O   UNL     1       1.785  14.219  22.081  0.00  0.00    +0.000 OA
ATOM     10  N   UNL     1       3.162  14.881  20.385  0.00  0.00    +0.000 N 
ATOM     11  C   UNL     1       3.530  15.007  18.974  0.00  0.00    +0.000 C 
ATOM     12  C   UNL     1       4.998  14.702  18.744  0.00  0.00    +0.000 C 
ATOM     13  N   UNL     1       5.824  15.359  19.724  0.00  0.00    +0.000 N 
ATOM     14  C   UNL     1       5.343  15.829  20.916  0.00  0.00    +0.000 A 
ATOM     15  N   UNL     1       6.346  16.368  21.582  0.00  0.00    +0.000 NA
ATOM     16  N   UNL     1       7.489  16.210  20.826  0.00  0.00    +0.000 NA
ATOM     17  C   UNL     1       7.173  15.579  19.708  0.00  0.00    +0.000 A 
ATOM     18  C   UNL     1       3.908  15.743  21.318  0.00  0.00    +0.000 C 
BRANCH  17  19
ATOM     19  C   UNL     1       8.092  15.160  18.616  0.00  0.00    +0.000 C 
ATOM     20  F   UNL     1       9.389  15.500  18.865  0.00  0.00    +0.000 F 
ATOM     21  F   UNL     1       8.093  13.814  18.428  0.00  0.00    +0.000 F 
ATOM     22  F   UNL     1       7.783  15.736  17.427  0.00  0.00    +0.000 F 
ENDBRANCH  17  19
ENDBRANCH   4   8
BRANCH   1  27
ATOM     23  C   UNL     1      -5.624  12.707  21.345  0.00  0.00    +0.000 A 
ATOM     24  C   UNL     1      -4.338  13.158  21.550  0.00  0.00    +0.000 A 
ATOM     25  N   UNL     1      -3.332  12.964  20.677  0.00  0.00    +0.000 NA
ATOM     26  C   UNL     1      -3.567  12.256  19.539  0.00  0.00    +0.000 A 
ATOM     27  C   UNL     1      -2.532  11.954  18.619  0.00  0.00    +0.000 A 
ATOM     28  C   UNL     1      -2.877  11.272  17.442  0.00  0.00    +0.000 A 
ATOM     29  C   UNL     1      -4.186  10.892  17.227  0.00  0.00    +0.000 A 
ATOM     30  N   UNL     1      -5.180  11.128  18.100  0.00  0.00    +0.000 NA
ATOM     31  C   UNL     1      -4.866  11.790  19.228  0.00  0.00    +0.000 A 
ATOM     32  C   UNL     1      -5.871  12.025  20.158  0.00  0.00    +0.000 A 
BRANCH  23  34
ATOM     33  C   UNL     1      -7.782  11.989  21.991  0.00  0.00    +0.000 C 
ATOM     34  O   UNL     1      -6.680  12.868  22.194  0.00  0.00    +0.000 OA
ENDBRANCH  23  34
ENDBRANCH   1  27
TORSDOF 4
ENDMDL
