MODEL 1
REMARK VINA RESULT:      -6.9      0.000      0.000
REMARK  Name = 
REMARK  5 active torsions:
REMARK  status: ('A' for Active; 'I' for Inactive)
REMARK    1  A    between atoms: N_1  and  C_2
REMARK    2  A    between atoms: N_10  and  C_11
REMARK    3  A    between atoms: C_13  and  C_14
REMARK    4  A    between atoms: C_14  and  O_15
REMARK    5  A    between atoms: C_17  and  O_18
REMARK                            x       y       z     vdW  Elec       q    Type
REMARK                         _______ _______ _______ _____ _____    ______ ____
ROOT
ATOM      1  C   UNL     1       6.687   6.490  16.759  0.00  0.00    +0.000 A 
ATOM      2  N   UNL     1       7.425   5.719  15.939  0.00  0.00    +0.000 NA
ATOM      3  C   UNL     1       6.995   4.466  15.680  0.00  0.00    +0.000 A 
ATOM      4  N   UNL     1       5.893   3.849  16.144  0.00  0.00    +0.000 NA
ATOM      5  C   UNL     1       5.177   4.666  16.939  0.00  0.00    +0.000 A 
ATOM      6  C   UNL     1       5.503   5.964  17.280  0.00  0.00    +0.000 A 
ATOM      7  C   UNL     1       4.453   6.383  18.123  0.00  0.00    +0.000 A 
ATOM      8  N   UNL     1       3.521   5.441  18.299  0.00  0.00    +0.000 NA
ATOM      9  N   UNL     1       4.002   4.383  17.591  0.00  0.00    +0.000 N 
ENDROOT
BRANCH   9  10
ATOM     10  C   UNL     1       3.331   3.090  17.643  0.00  0.00    +0.000 C 
ATOM     11  O   UNL     1       1.944   3.285  18.035  0.00  0.00    +0.000 OA
ATOM     12  C   UNL     1       1.730   2.612  19.295  0.00  0.00    +0.000 C 
ATOM     13  C   UNL     1       3.103   2.382  19.908  0.00  0.00    +0.000 C 
ATOM     14  C   UNL     1       3.952   2.142  18.678  0.00  0.00    +0.000 C 
BRANCH  14  15
ATOM     15  O   UNL     1       3.833   0.766  18.283  0.00  0.00    +0.000 OA
ATOM     16  H   UNL     1       2.894   0.512  18.287  0.00  0.00    +0.000 HD
ENDBRANCH  14  15
BRANCH  12  17
ATOM     17  C   UNL     1       0.762   3.414  20.162  0.00  0.00    +0.000 C 
BRANCH  17  18
ATOM     18  O   UNL     1       1.248   4.726  20.423  0.00  0.00    +0.000 OA
ATOM     19  H   UNL     1       0.743   5.336  19.847  0.00  0.00    +0.000 HD
ENDBRANCH  17  18
ENDBRANCH  12  17
ENDBRANCH   9  10
BRANCH   1  20
ATOM     20  N   UNL     1       7.153   7.766  17.037  0.00  0.00    +0.000 N 
ATOM     21  H   UNL     1       8.047   7.740  17.514  0.00  0.00    +0.000 HD
ATOM     22  H   UNL     1       7.045   8.459  16.311  0.00  0.00    +0.000 HD
ENDBRANCH   1  20
TORSDOF 5
ENDMDL
MODEL 2
REMARK VINA RESULT:      -6.7      1.579      2.811
REMARK  Name = 
REMARK  5 active torsions:
REMARK  status: ('A' for Active; 'I' for Inactive)
REMARK    1  A    between atoms: N_1  and  C_2
REMARK    2  A    between atoms: N_10  and  C_11
REMARK    3  A    between atoms: C_13  and  C_14
REMARK    4  A    between atoms: C_14  and  O_15
REMARK    5  A    between atoms: C_17  and  O_18
REMARK                            x       y       z     vdW  Elec       q    Type
REMARK                         _______ _______ _______ _____ _____    ______ ____
ROOT
ATOM      1  C   UNL     1       7.043   5.500  15.747  0.00  0.00    +0.000 A 
ATOM      2  N   UNL     1       7.663   6.480  16.431  0.00  0.00    +0.000 NA
ATOM      3  C   UNL     1       7.281   6.711  17.705  0.00  0.00    +0.000 A 
ATOM      4  N   UNL     1       6.327   6.083  18.418  0.00  0.00    +0.000 NA
ATOM      5  C   UNL     1       5.754   5.099  17.700  0.00  0.00    +0.000 A 
ATOM      6  C   UNL     1       6.054   4.759  16.396  0.00  0.00    +0.000 A 
ATOM      7  C   UNL     1       5.190   3.684  16.102  0.00  0.00    +0.000 A 
ATOM      8  N   UNL     1       4.409   3.348  17.134  0.00  0.00    +0.000 NA
ATOM      9  N   UNL     1       4.747   4.251  18.093  0.00  0.00    +0.000 N 
ENDROOT
BRANCH   9  10
ATOM     10  C   UNL     1       4.009   4.309  19.350  0.00  0.00    +0.000 C 
ATOM     11  O   UNL     1       3.310   3.051  19.553  0.00  0.00    +0.000 OA
ATOM     12  C   UNL     1       1.890   3.317  19.566  0.00  0.00    +0.000 C 
ATOM     13  C   UNL     1       1.694   4.679  18.917  0.00  0.00    +0.000 C 
ATOM     14  C   UNL     1       2.943   5.413  19.358  0.00  0.00    +0.000 C 
BRANCH  14  15
ATOM     15  O   UNL     1       2.735   5.946  20.676  0.00  0.00    +0.000 OA
ATOM     16  H   UNL     1       3.200   5.389  21.324  0.00  0.00    +0.000 HD
ENDBRANCH  14  15
BRANCH  12  17
ATOM     17  C   UNL     1       1.134   2.169  18.901  0.00  0.00    +0.000 C 
BRANCH  17  18
ATOM     18  O   UNL     1       1.766   1.745  17.699  0.00  0.00    +0.000 OA
ATOM     19  H   UNL     1       1.056   1.611  17.038  0.00  0.00    +0.000 HD
ENDBRANCH  17  18
ENDBRANCH  12  17
ENDBRANCH   9  10
BRANCH   1  20
ATOM     20  N   UNL     1       7.429   5.290  14.432  0.00  0.00    +0.000 N 
ATOM     21  H   UNL     1       8.077   4.516  14.353  0.00  0.00    +0.000 HD
ATOM     22  H   UNL     1       6.706   5.351  13.729  0.00  0.00    +0.000 HD
ENDBRANCH   1  20
TORSDOF 5
ENDMDL
MODEL 3
REMARK VINA RESULT:      -6.6      3.055      5.451
REMARK  Name = 
REMARK  5 active torsions:
REMARK  status: ('A' for Active; 'I' for Inactive)
REMARK    1  A    between atoms: N_1  and  C_2
REMARK    2  A    between atoms: N_10  and  C_11
REMARK    3  A    between atoms: C_13  and  C_14
REMARK    4  A    between atoms: C_14  and  O_15
REMARK    5  A    between atoms: C_17  and  O_18
REMARK                            x       y       z     vdW  Elec       q    Type
REMARK                         _______ _______ _______ _____ _____    ______ ____
ROOT
ATOM      1  C   UNL     1       2.046   3.468  20.153  0.00  0.00    +0.000 A 
ATOM      2  N   UNL     1       2.717   2.543  20.865  0.00  0.00    +0.000 NA
ATOM      3  C   UNL     1       4.010   2.310  20.554  0.00  0.00    +0.000 A 
ATOM      4  N   UNL     1       4.754   2.888  19.593  0.00  0.00    +0.000 NA
ATOM      5  C   UNL     1       4.049   3.820  18.926  0.00  0.00    +0.000 A 
ATOM      6  C   UNL     1       2.727   4.155  19.147  0.00  0.00    +0.000 A 
ATOM      7  C   UNL     1       2.456   5.166  18.202  0.00  0.00    +0.000 A 
ATOM      8  N   UNL     1       3.516   5.469  17.445  0.00  0.00    +0.000 NA
ATOM      9  N   UNL     1       4.473   4.606  17.884  0.00  0.00    +0.000 N 
ENDROOT
BRANCH   9  10
ATOM     10  C   UNL     1       5.762   4.523  17.206  0.00  0.00    +0.000 C 
ATOM     11  O   UNL     1       6.825   4.512  18.197  0.00  0.00    +0.000 OA
ATOM     12  C   UNL     1       7.638   5.691  18.004  0.00  0.00    +0.000 C 
ATOM     13  C   UNL     1       6.808   6.664  17.181  0.00  0.00    +0.000 C 
ATOM     14  C   UNL     1       6.026   5.724  16.288  0.00  0.00    +0.000 C 
BRANCH  14  15
ATOM     15  O   UNL     1       6.835   5.365  15.157  0.00  0.00    +0.000 OA
ATOM     16  H   UNL     1       7.774   5.418  15.405  0.00  0.00    +0.000 HD
ENDBRANCH  14  15
BRANCH  12  17
ATOM     17  C   UNL     1       8.115   6.227  19.352  0.00  0.00    +0.000 C 
BRANCH  17  18
ATOM     18  O   UNL     1       7.796   5.340  20.417  0.00  0.00    +0.000 OA
ATOM     19  H   UNL     1       6.956   4.898  20.177  0.00  0.00    +0.000 HD
ENDBRANCH  17  18
ENDBRANCH  12  17
ENDBRANCH   9  10
BRANCH   1  20
ATOM     20  N   UNL     1       0.713   3.679  20.467  0.00  0.00    +0.000 N 
ATOM     21  H   UNL     1       0.134   2.897  20.185  0.00  0.00    +0.000 HD
ATOM     22  H   UNL     1       0.516   4.088  21.370  0.00  0.00    +0.000 HD
ENDBRANCH   1  20
TORSDOF 5
ENDMDL
MODEL 4
REMARK VINA RESULT:      -6.5      2.868      5.431
REMARK  Name = 
REMARK  5 active torsions:
REMARK  status: ('A' for Active; 'I' for Inactive)
REMARK    1  A    between atoms: N_1  and  C_2
REMARK    2  A    between atoms: N_10  and  C_11
REMARK    3  A    between atoms: C_13  and  C_14
REMARK    4  A    between atoms: C_14  and  O_15
REMARK    5  A    between atoms: C_17  and  O_18
REMARK                            x       y       z     vdW  Elec       q    Type
REMARK                         _______ _______ _______ _____ _____    ______ ____
ROOT
ATOM      1  C   UNL     1       1.540   2.985  19.599  0.00  0.00    +0.000 A 
ATOM      2  N   UNL     1       1.955   1.721  19.393  0.00  0.00    +0.000 NA
ATOM      3  C   UNL     1       3.048   1.524  18.627  0.00  0.00    +0.000 A 
ATOM      4  N   UNL     1       3.812   2.444  18.009  0.00  0.00    +0.000 NA
ATOM      5  C   UNL     1       3.372   3.691  18.264  0.00  0.00    +0.000 A 
ATOM      6  C   UNL     1       2.274   4.028  19.031  0.00  0.00    +0.000 A 
ATOM      7  C   UNL     1       2.231   5.436  18.989  0.00  0.00    +0.000 A 
ATOM      8  N   UNL     1       3.226   5.965  18.268  0.00  0.00    +0.000 NA
ATOM      9  N   UNL     1       3.895   4.875  17.805  0.00  0.00    +0.000 N 
ENDROOT
BRANCH   9  10
ATOM     10  C   UNL     1       4.986   5.026  16.850  0.00  0.00    +0.000 C 
ATOM     11  O   UNL     1       6.242   4.681  17.498  0.00  0.00    +0.000 OA
ATOM     12  C   UNL     1       7.082   5.856  17.514  0.00  0.00    +0.000 C 
ATOM     13  C   UNL     1       6.169   7.050  17.280  0.00  0.00    +0.000 C 
ATOM     14  C   UNL     1       5.133   6.467  16.343  0.00  0.00    +0.000 C 
BRANCH  14  15
ATOM     15  O   UNL     1       5.635   6.512  14.997  0.00  0.00    +0.000 OA
ATOM     16  H   UNL     1       5.477   7.398  14.626  0.00  0.00    +0.000 HD
ENDBRANCH  14  15
BRANCH  12  17
ATOM     17  C   UNL     1       7.892   5.905  18.808  0.00  0.00    +0.000 C 
BRANCH  17  18
ATOM     18  O   UNL     1       7.141   5.434  19.920  0.00  0.00    +0.000 OA
ATOM     19  H   UNL     1       6.306   5.067  19.565  0.00  0.00    +0.000 HD
ENDBRANCH  17  18
ENDBRANCH  12  17
ENDBRANCH   9  10
BRANCH   1  20
ATOM     20  N   UNL     1       0.401   3.171  20.368  0.00  0.00    +0.000 N 
ATOM     21  H   UNL     1       0.470   4.005  20.940  0.00  0.00    +0.000 HD
ATOM     22  H   UNL     1      -0.486   3.001  19.918  0.00  0.00    +0.000 HD
ENDBRANCH   1  20
TORSDOF 5
ENDMDL
MODEL 5
REMARK VINA RESULT:      -6.5      2.831      5.763
REMARK  Name = 
REMARK  5 active torsions:
REMARK  status: ('A' for Active; 'I' for Inactive)
REMARK    1  A    between atoms: N_1  and  C_2
REMARK    2  A    between atoms: N_10  and  C_11
REMARK    3  A    between atoms: C_13  and  C_14
REMARK    4  A    between atoms: C_14  and  O_15
REMARK    5  A    between atoms: C_17  and  O_18
REMARK                            x       y       z     vdW  Elec       q    Type
REMARK                         _______ _______ _______ _____ _____    ______ ____
ROOT
ATOM      1  C   UNL     1       1.306   3.634  19.457  0.00  0.00    +0.000 A 
ATOM      2  N   UNL     1       1.160   4.520  20.461  0.00  0.00    +0.000 NA
ATOM      3  C   UNL     1       2.025   5.553  20.533  0.00  0.00    +0.000 A 
ATOM      4  N   UNL     1       3.056   5.837  19.716  0.00  0.00    +0.000 NA
ATOM      5  C   UNL     1       3.146   4.940  18.717  0.00  0.00    +0.000 A 
ATOM      6  C   UNL     1       2.327   3.844  18.529  0.00  0.00    +0.000 A 
ATOM      7  C   UNL     1       2.826   3.225  17.364  0.00  0.00    +0.000 A 
ATOM      8  N   UNL     1       3.869   3.874  16.837  0.00  0.00    +0.000 NA
ATOM      9  N   UNL     1       4.070   4.904  17.702  0.00  0.00    +0.000 N 
ENDROOT
BRANCH   9  10
ATOM     10  C   UNL     1       5.224   5.784  17.552  0.00  0.00    +0.000 C 
ATOM     11  O   UNL     1       5.555   5.903  16.141  0.00  0.00    +0.000 OA
ATOM     12  C   UNL     1       6.878   5.360  15.937  0.00  0.00    +0.000 C 
ATOM     13  C   UNL     1       7.185   4.491  17.147  0.00  0.00    +0.000 C 
ATOM     14  C   UNL     1       6.476   5.241  18.254  0.00  0.00    +0.000 C 
BRANCH  14  15
ATOM     15  O   UNL     1       7.326   6.300  18.725  0.00  0.00    +0.000 OA
ATOM     16  H   UNL     1       7.330   6.297  19.698  0.00  0.00    +0.000 HD
ENDBRANCH  14  15
BRANCH  12  17
ATOM     17  C   UNL     1       6.950   4.644  14.591  0.00  0.00    +0.000 C 
BRANCH  17  18
ATOM     18  O   UNL     1       6.186   3.443  14.588  0.00  0.00    +0.000 OA
ATOM     19  H   UNL     1       5.640   3.453  15.400  0.00  0.00    +0.000 HD
ENDBRANCH  17  18
ENDBRANCH  12  17
ENDBRANCH   9  10
BRANCH   1  20
ATOM     20  N   UNL     1       0.426   2.564  19.410  0.00  0.00    +0.000 N 
ATOM     21  H   UNL     1       0.774   1.772  19.938  0.00  0.00    +0.000 HD
ATOM     22  H   UNL     1      -0.556   2.776  19.504  0.00  0.00    +0.000 HD
ENDBRANCH   1  20
TORSDOF 5
ENDMDL
MODEL 6
REMARK VINA RESULT:      -6.4      3.041      5.815
REMARK  Name = 
REMARK  5 active torsions:
REMARK  status: ('A' for Active; 'I' for Inactive)
REMARK    1  A    between atoms: N_1  and  C_2
REMARK    2  A    between atoms: N_10  and  C_11
REMARK    3  A    between atoms: C_13  and  C_14
REMARK    4  A    between atoms: C_14  and  O_15
REMARK    5  A    between atoms: C_17  and  O_18
REMARK                            x       y       z     vdW  Elec       q    Type
REMARK                         _______ _______ _______ _____ _____    ______ ____
ROOT
ATOM      1  C   UNL     1       1.864   3.869  20.694  0.00  0.00    +0.000 A 
ATOM      2  N   UNL     1       1.197   5.037  20.722  0.00  0.00    +0.000 NA
ATOM      3  C   UNL     1       1.796   6.129  20.201  0.00  0.00    +0.000 A 
ATOM      4  N   UNL     1       3.015   6.224  19.638  0.00  0.00    +0.000 NA
ATOM      5  C   UNL     1       3.632   5.028  19.612  0.00  0.00    +0.000 A 
ATOM      6  C   UNL     1       3.130   3.840  20.106  0.00  0.00    +0.000 A 
ATOM      7  C   UNL     1       4.142   2.893  19.846  0.00  0.00    +0.000 A 
ATOM      8  N   UNL     1       5.201   3.422  19.223  0.00  0.00    +0.000 NA
ATOM      9  N   UNL     1       4.881   4.740  19.120  0.00  0.00    +0.000 N 
ENDROOT
BRANCH   9  10
ATOM     10  C   UNL     1       5.854   5.701  18.612  0.00  0.00    +0.000 C 
ATOM     11  O   UNL     1       5.750   5.767  17.163  0.00  0.00    +0.000 OA
ATOM     12  C   UNL     1       7.002   5.324  16.597  0.00  0.00    +0.000 C 
ATOM     13  C   UNL     1       7.727   4.552  17.689  0.00  0.00    +0.000 C 
ATOM     14  C   UNL     1       7.301   5.303  18.932  0.00  0.00    +0.000 C 
BRANCH  14  15
ATOM     15  O   UNL     1       8.147   6.452  19.102  0.00  0.00    +0.000 OA
ATOM     16  H   UNL     1       8.257   6.631  20.051  0.00  0.00    +0.000 HD
ENDBRANCH  14  15
BRANCH  12  17
ATOM     17  C   UNL     1       6.750   4.541  15.310  0.00  0.00    +0.000 C 
BRANCH  17  18
ATOM     18  O   UNL     1       6.214   3.249  15.573  0.00  0.00    +0.000 OA
ATOM     19  H   UNL     1       5.304   3.240  15.212  0.00  0.00    +0.000 HD
ENDBRANCH  17  18
ENDBRANCH  12  17
ENDBRANCH   9  10
BRANCH   1  20
ATOM     20  N   UNL     1       1.248   2.761  21.255  0.00  0.00    +0.000 N 
ATOM     21  H   UNL     1       1.855   2.291  21.916  0.00  0.00    +0.000 HD
ATOM     22  H   UNL     1       0.279   2.864  21.521  0.00  0.00    +0.000 HD
ENDBRANCH   1  20
TORSDOF 5
ENDMDL
MODEL 7
REMARK VINA RESULT:      -6.4      3.080      5.480
REMARK  Name = 
REMARK  5 active torsions:
REMARK  status: ('A' for Active; 'I' for Inactive)
REMARK    1  A    between atoms: N_1  and  C_2
REMARK    2  A    between atoms: N_10  and  C_11
REMARK    3  A    between atoms: C_13  and  C_14
REMARK    4  A    between atoms: C_14  and  O_15
REMARK    5  A    between atoms: C_17  and  O_18
REMARK                            x       y       z     vdW  Elec       q    Type
REMARK                         _______ _______ _______ _____ _____    ______ ____
ROOT
ATOM      1  C   UNL     1       1.659   3.353  19.622  0.00  0.00    +0.000 A 
ATOM      2  N   UNL     1       1.472   2.179  18.991  0.00  0.00    +0.000 NA
ATOM      3  C   UNL     1       2.440   1.737  18.161  0.00  0.00    +0.000 A 
ATOM      4  N   UNL     1       3.611   2.326  17.856  0.00  0.00    +0.000 NA
ATOM      5  C   UNL     1       3.763   3.483  18.528  0.00  0.00    +0.000 A 
ATOM      6  C   UNL     1       2.854   4.042  19.405  0.00  0.00    +0.000 A 
ATOM      7  C   UNL     1       3.466   5.237  19.836  0.00  0.00    +0.000 A 
ATOM      8  N   UNL     1       4.674   5.426  19.295  0.00  0.00    +0.000 NA
ATOM      9  N   UNL     1       4.822   4.355  18.469  0.00  0.00    +0.000 N 
ENDROOT
BRANCH   9  10
ATOM     10  C   UNL     1       5.972   4.260  17.577  0.00  0.00    +0.000 C 
ATOM     11  O   UNL     1       7.015   5.160  18.042  0.00  0.00    +0.000 OA
ATOM     12  C   UNL     1       7.243   6.156  17.020  0.00  0.00    +0.000 C 
ATOM     13  C   UNL     1       6.023   6.140  16.113  0.00  0.00    +0.000 C 
ATOM     14  C   UNL     1       5.639   4.676  16.138  0.00  0.00    +0.000 C 
BRANCH  14  15
ATOM     15  O   UNL     1       6.436   3.963  15.177  0.00  0.00    +0.000 OA
ATOM     16  H   UNL     1       6.262   4.320  14.290  0.00  0.00    +0.000 HD
ENDBRANCH  14  15
BRANCH  12  17
ATOM     17  C   UNL     1       7.554   7.506  17.662  0.00  0.00    +0.000 C 
BRANCH  17  18
ATOM     18  O   UNL     1       8.412   7.371  18.789  0.00  0.00    +0.000 OA
ATOM     19  H   UNL     1       9.256   7.809  18.557  0.00  0.00    +0.000 HD
ENDBRANCH  17  18
ENDBRANCH  12  17
ENDBRANCH   9  10
BRANCH   1  20
ATOM     20  N   UNL     1       0.646   3.806  20.453  0.00  0.00    +0.000 N 
ATOM     21  H   UNL     1      -0.265   3.500  20.131  0.00  0.00    +0.000 HD
ATOM     22  H   UNL     1       0.816   3.760  21.447  0.00  0.00    +0.000 HD
ENDBRANCH   1  20
TORSDOF 5
ENDMDL
MODEL 8
REMARK VINA RESULT:      -6.4      1.775      2.907
REMARK  Name = 
REMARK  5 active torsions:
REMARK  status: ('A' for Active; 'I' for Inactive)
REMARK    1  A    between atoms: N_1  and  C_2
REMARK    2  A    between atoms: N_10  and  C_11
REMARK    3  A    between atoms: C_13  and  C_14
REMARK    4  A    between atoms: C_14  and  O_15
REMARK    5  A    between atoms: C_17  and  O_18
REMARK                            x       y       z     vdW  Elec       q    Type
REMARK                         _______ _______ _______ _____ _____    ______ ____
ROOT
ATOM      1  C   UNL     1       7.246   7.003  17.820  0.00  0.00    +0.000 A 
ATOM      2  N   UNL     1       8.132   6.491  18.695  0.00  0.00    +0.000 NA
ATOM      3  C   UNL     1       7.691   5.593  19.601  0.00  0.00    +0.000 A 
ATOM      4  N   UNL     1       6.443   5.120  19.768  0.00  0.00    +0.000 NA
ATOM      5  C   UNL     1       5.599   5.642  18.858  0.00  0.00    +0.000 A 
ATOM      6  C   UNL     1       5.923   6.562  17.879  0.00  0.00    +0.000 A 
ATOM      7  C   UNL     1       4.712   6.792  17.195  0.00  0.00    +0.000 A 
ATOM      8  N   UNL     1       3.696   6.071  17.681  0.00  0.00    +0.000 NA
ATOM      9  N   UNL     1       4.255   5.398  18.722  0.00  0.00    +0.000 N 
ENDROOT
BRANCH   9  10
ATOM     10  C   UNL     1       3.429   4.590  19.612  0.00  0.00    +0.000 C 
ATOM     11  O   UNL     1       3.879   3.208  19.562  0.00  0.00    +0.000 OA
ATOM     12  C   UNL     1       2.802   2.399  19.040  0.00  0.00    +0.000 C 
ATOM     13  C   UNL     1       1.840   3.347  18.342  0.00  0.00    +0.000 C 
ATOM     14  C   UNL     1       1.950   4.587  19.204  0.00  0.00    +0.000 C 
BRANCH  14  15
ATOM     15  O   UNL     1       1.081   4.449  20.341  0.00  0.00    +0.000 OA
ATOM     16  H   UNL     1       1.604   4.162  21.109  0.00  0.00    +0.000 HD
ENDBRANCH  14  15
BRANCH  12  17
ATOM     17  C   UNL     1       3.362   1.282  18.161  0.00  0.00    +0.000 C 
BRANCH  17  18
ATOM     18  O   UNL     1       4.474   0.636  18.771  0.00  0.00    +0.000 OA
ATOM     19  H   UNL     1       4.768   1.211  19.507  0.00  0.00    +0.000 HD
ENDBRANCH  17  18
ENDBRANCH  12  17
ENDBRANCH   9  10
BRANCH   1  20
ATOM     20  N   UNL     1       7.708   7.942  16.911  0.00  0.00    +0.000 N 
ATOM     21  H   UNL     1       6.962   8.547  16.588  0.00  0.00    +0.000 HD
ATOM     22  H   UNL     1       8.592   8.383  17.120  0.00  0.00    +0.000 HD
ENDBRANCH   1  20
TORSDOF 5
ENDMDL
MODEL 9
REMARK VINA RESULT:      -6.3      2.781      4.768
REMARK  Name = 
REMARK  5 active torsions:
REMARK  status: ('A' for Active; 'I' for Inactive)
REMARK    1  A    between atoms: N_1  and  C_2
REMARK    2  A    between atoms: N_10  and  C_11
REMARK    3  A    between atoms: C_13  and  C_14
REMARK    4  A    between atoms: C_14  and  O_15
REMARK    5  A    between atoms: C_17  and  O_18
REMARK                            x       y       z     vdW  Elec       q    Type
REMARK                         _______ _______ _______ _____ _____    ______ ____
ROOT
ATOM      1  C   UNL     1       1.787   8.956  18.765  0.00  0.00    +0.000 A 
ATOM      2  N   UNL     1       1.111   9.339  19.864  0.00  0.00    +0.000 NA
ATOM      3  C   UNL     1       0.969   8.451  20.870  0.00  0.00    +0.000 A 
ATOM      4  N   UNL     1       1.419   7.185  20.936  0.00  0.00    +0.000 NA
ATOM      5  C   UNL     1       2.107   6.856  19.827  0.00  0.00    +0.000 A 
ATOM      6  C   UNL     1       2.328   7.669  18.733  0.00  0.00    +0.000 A 
ATOM      7  C   UNL     1       3.086   6.875  17.848  0.00  0.00    +0.000 A 
ATOM      8  N   UNL     1       3.347   5.657  18.337  0.00  0.00    +0.000 NA
ATOM      9  N   UNL     1       2.708   5.655  19.537  0.00  0.00    +0.000 N 
ENDROOT
BRANCH   9  10
ATOM     10  C   UNL     1       2.635   4.437  20.336  0.00  0.00    +0.000 C 
ATOM     11  O   UNL     1       3.610   3.480  19.839  0.00  0.00    +0.000 OA
ATOM     12  C   UNL     1       2.900   2.319  19.355  0.00  0.00    +0.000 C 
ATOM     13  C   UNL     1       1.458   2.747  19.137  0.00  0.00    +0.000 C 
ATOM     14  C   UNL     1       1.264   3.755  20.250  0.00  0.00    +0.000 C 
BRANCH  14  15
ATOM     15  O   UNL     1       0.935   3.059  21.463  0.00  0.00    +0.000 OA
ATOM     16  H   UNL     1       0.097   3.406  21.814  0.00  0.00    +0.000 HD
ENDBRANCH  14  15
BRANCH  12  17
ATOM     17  C   UNL     1       3.600   1.751  18.122  0.00  0.00    +0.000 C 
BRANCH  17  18
ATOM     18  O   UNL     1       4.333   2.750  17.423  0.00  0.00    +0.000 OA
ATOM     19  H   UNL     1       4.468   3.492  18.047  0.00  0.00    +0.000 HD
ENDBRANCH  17  18
ENDBRANCH  12  17
ENDBRANCH   9  10
BRANCH   1  20
ATOM     20  N   UNL     1       1.904   9.870  17.730  0.00  0.00    +0.000 N 
ATOM     21  H   UNL     1       2.874  10.055  17.504  0.00  0.00    +0.000 HD
ATOM     22  H   UNL     1       1.269   9.762  16.952  0.00  0.00    +0.000 HD
ENDBRANCH   1  20
TORSDOF 5
ENDMDL
