MODEL 1
REMARK VINA RESULT:      -6.2      0.000      0.000
REMARK  Name = 
REMARK  14 active torsions:
REMARK  status: ('A' for Active; 'I' for Inactive)
REMARK    1  A    between atoms: C_1  and  C_2
REMARK    2  A    between atoms: C_2  and  C_3
REMARK    3  A    between atoms: C_3  and  C_4
REMARK    4  A    between atoms: C_4  and  C_5
REMARK    5  A    between atoms: C_5  and  C_6
REMARK    6  A    between atoms: C_6  and  C_7
REMARK    7  A    between atoms: C_7  and  N_8
REMARK    8  A    between atoms: N_8  and  C_9
REMARK    9  A    between atoms: N_8  and  C_11
REMARK   10  A    between atoms: C_9  and  C_10
REMARK   11  A    between atoms: C_11  and  C_12
REMARK   12  A    between atoms: C_13  and  C_14
REMARK   13  A    between atoms: C_14  and  C_15
REMARK   14  A    between atoms: C_18  and  C_19
REMARK                            x       y       z     vdW  Elec       q    Type
REMARK                         _______ _______ _______ _____ _____    ______ ____
ROOT
ATOM      1  C   UNL     1       4.878   5.394  18.477  0.00  0.00    +0.000 C 
ENDROOT
BRANCH   1   2
ATOM      2  C   UNL     1       3.894   6.473  18.263  0.00  0.00    +0.000 C 
ATOM      3  C   UNL     1       3.072   7.342  18.103  0.00  0.00    +0.000 C 
BRANCH   3   4
ATOM      4  C   UNL     1       2.048   8.384  17.902  0.00  0.00    +0.000 C 
BRANCH   4   5
ATOM      5  C   UNL     1       1.428   8.841  19.197  0.00  0.00    +0.000 A 
ATOM      6  C   UNL     1       1.634   8.117  20.378  0.00  0.00    +0.000 A 
ATOM      7  C   UNL     1       1.017   8.506  21.570  0.00  0.00    +0.000 A 
ATOM      8  C   UNL     1       0.177   9.623  21.600  0.00  0.00    +0.000 A 
ATOM      9  C   UNL     1      -0.522  10.034  22.864  0.00  0.00    +0.000 C 
ATOM     10  C   UNL     1      -0.022  10.354  20.424  0.00  0.00    +0.000 A 
ATOM     11  C   UNL     1       0.596   9.969  19.233  0.00  0.00    +0.000 A 
ENDBRANCH   4   5
ENDBRANCH   3   4
ENDBRANCH   1   2
BRANCH   1  12
ATOM     12  N   UNL     1       5.108   4.566  17.275  0.00  0.00    +0.000 NA
BRANCH  12  13
ATOM     13  C   UNL     1       5.745   5.309  16.175  0.00  0.00    +0.000 C 
ATOM     14  C   UNL     1       7.202   5.712  16.381  0.00  0.00    +0.000 C 
ENDBRANCH  12  13
BRANCH  12  15
ATOM     15  C   UNL     1       3.865   3.866  16.881  0.00  0.00    +0.000 C 
BRANCH  15  16
ATOM     16  C   UNL     1       3.528   2.689  17.809  0.00  0.00    +0.000 C 
BRANCH  16  17
ATOM     17  C   UNL     1       2.031   2.467  18.013  0.00  0.00    +0.000 C 
BRANCH  17  18
ATOM     18  C   UNL     1       1.359   3.817  18.285  0.00  0.00    +0.000 C 
BRANCH  18  19
ATOM     19  C   UNL     1       1.489   4.226  19.745  0.00  0.00    +0.000 C 
BRANCH  19  21
ATOM     20  C   UNL     1       2.120   2.824  21.718  0.00  0.00    +0.000 C 
ATOM     21  C   UNL     1       1.051   3.099  20.677  0.00  0.00    +0.000 C 
ENDBRANCH  19  21
ENDBRANCH  18  19
ENDBRANCH  17  18
ENDBRANCH  16  17
ENDBRANCH  15  16
ENDBRANCH  12  15
ENDBRANCH   1  12
TORSDOF 11
ENDMDL
MODEL 2
REMARK VINA RESULT:      -6.1      1.095      1.770
REMARK  Name = 
REMARK  14 active torsions:
REMARK  status: ('A' for Active; 'I' for Inactive)
REMARK    1  A    between atoms: C_1  and  C_2
REMARK    2  A    between atoms: C_2  and  C_3
REMARK    3  A    between atoms: C_3  and  C_4
REMARK    4  A    between atoms: C_4  and  C_5
REMARK    5  A    between atoms: C_5  and  C_6
REMARK    6  A    between atoms: C_6  and  C_7
REMARK    7  A    between atoms: C_7  and  N_8
REMARK    8  A    between atoms: N_8  and  C_9
REMARK    9  A    between atoms: N_8  and  C_11
REMARK   10  A    between atoms: C_9  and  C_10
REMARK   11  A    between atoms: C_11  and  C_12
REMARK   12  A    between atoms: C_13  and  C_14
REMARK   13  A    between atoms: C_14  and  C_15
REMARK   14  A    between atoms: C_18  and  C_19
REMARK                            x       y       z     vdW  Elec       q    Type
REMARK                         _______ _______ _______ _____ _____    ______ ____
ROOT
ATOM      1  C   UNL     1       5.849   5.979  17.780  0.00  0.00    +0.000 C 
ENDROOT
BRANCH   1   2
ATOM      2  C   UNL     1       4.618   6.793  17.743  0.00  0.00    +0.000 C 
ATOM      3  C   UNL     1       3.602   7.443  17.694  0.00  0.00    +0.000 C 
BRANCH   3   4
ATOM      4  C   UNL     1       2.363   8.239  17.606  0.00  0.00    +0.000 C 
BRANCH   4   5
ATOM      5  C   UNL     1       1.810   8.597  18.961  0.00  0.00    +0.000 A 
ATOM      6  C   UNL     1       1.868   7.680  20.018  0.00  0.00    +0.000 A 
ATOM      7  C   UNL     1       1.309   7.987  21.260  0.00  0.00    +0.000 A 
ATOM      8  C   UNL     1       0.675   9.217  21.466  0.00  0.00    +0.000 A 
ATOM      9  C   UNL     1       0.038   9.550  22.785  0.00  0.00    +0.000 C 
ATOM     10  C   UNL     1       0.625  10.139  20.416  0.00  0.00    +0.000 A 
ATOM     11  C   UNL     1       1.186   9.834  19.174  0.00  0.00    +0.000 A 
ENDBRANCH   4   5
ENDBRANCH   3   4
ENDBRANCH   1   2
BRANCH   1  12
ATOM     12  N   UNL     1       5.591   4.541  18.001  0.00  0.00    +0.000 NA
BRANCH  12  13
ATOM     13  C   UNL     1       4.969   3.881  16.841  0.00  0.00    +0.000 C 
ATOM     14  C   UNL     1       5.753   3.923  15.533  0.00  0.00    +0.000 C 
ENDBRANCH  12  13
BRANCH  12  15
ATOM     15  C   UNL     1       4.859   4.334  19.270  0.00  0.00    +0.000 C 
BRANCH  15  16
ATOM     16  C   UNL     1       4.479   2.864  19.502  0.00  0.00    +0.000 C 
BRANCH  16  17
ATOM     17  C   UNL     1       3.265   2.671  20.409  0.00  0.00    +0.000 C 
BRANCH  17  18
ATOM     18  C   UNL     1       2.634   4.038  20.694  0.00  0.00    +0.000 C 
BRANCH  18  19
ATOM     19  C   UNL     1       1.267   4.174  20.040  0.00  0.00    +0.000 C 
BRANCH  19  21
ATOM     20  C   UNL     1       1.499   4.358  17.556  0.00  0.00    +0.000 C 
ATOM     21  C   UNL     1       1.209   3.420  18.714  0.00  0.00    +0.000 C 
ENDBRANCH  19  21
ENDBRANCH  18  19
ENDBRANCH  17  18
ENDBRANCH  16  17
ENDBRANCH  15  16
ENDBRANCH  12  15
ENDBRANCH   1  12
TORSDOF 11
ENDMDL
MODEL 3
REMARK VINA RESULT:      -6.1      0.895      1.407
REMARK  Name = 
REMARK  14 active torsions:
REMARK  status: ('A' for Active; 'I' for Inactive)
REMARK    1  A    between atoms: C_1  and  C_2
REMARK    2  A    between atoms: C_2  and  C_3
REMARK    3  A    between atoms: C_3  and  C_4
REMARK    4  A    between atoms: C_4  and  C_5
REMARK    5  A    between atoms: C_5  and  C_6
REMARK    6  A    between atoms: C_6  and  C_7
REMARK    7  A    between atoms: C_7  and  N_8
REMARK    8  A    between atoms: N_8  and  C_9
REMARK    9  A    between atoms: N_8  and  C_11
REMARK   10  A    between atoms: C_9  and  C_10
REMARK   11  A    between atoms: C_11  and  C_12
REMARK   12  A    between atoms: C_13  and  C_14
REMARK   13  A    between atoms: C_14  and  C_15
REMARK   14  A    between atoms: C_18  and  C_19
REMARK                            x       y       z     vdW  Elec       q    Type
REMARK                         _______ _______ _______ _____ _____    ______ ____
ROOT
ATOM      1  C   UNL     1       5.862   5.885  17.739  0.00  0.00    +0.000 C 
ENDROOT
BRANCH   1   2
ATOM      2  C   UNL     1       4.659   6.735  17.632  0.00  0.00    +0.000 C 
ATOM      3  C   UNL     1       3.666   7.416  17.566  0.00  0.00    +0.000 C 
BRANCH   3   4
ATOM      4  C   UNL     1       2.435   8.226  17.485  0.00  0.00    +0.000 C 
BRANCH   4   5
ATOM      5  C   UNL     1       1.820   8.477  18.837  0.00  0.00    +0.000 A 
ATOM      6  C   UNL     1       1.099   9.652  19.083  0.00  0.00    +0.000 A 
ATOM      7  C   UNL     1       0.573   9.914  20.351  0.00  0.00    +0.000 A 
ATOM      8  C   UNL     1       0.765   9.007  21.398  0.00  0.00    +0.000 A 
ATOM      9  C   UNL     1       0.237   9.290  22.775  0.00  0.00    +0.000 C 
ATOM     10  C   UNL     1       1.476   7.828  21.152  0.00  0.00    +0.000 A 
ATOM     11  C   UNL     1       2.000   7.563  19.886  0.00  0.00    +0.000 A 
ENDBRANCH   4   5
ENDBRANCH   3   4
ENDBRANCH   1   2
BRANCH   1  12
ATOM     12  N   UNL     1       5.620   4.481  17.347  0.00  0.00    +0.000 NA
BRANCH  12  13
ATOM     13  C   UNL     1       5.332   4.324  15.911  0.00  0.00    +0.000 C 
ATOM     14  C   UNL     1       6.439   4.736  14.946  0.00  0.00    +0.000 C 
ENDBRANCH  12  13
BRANCH  12  15
ATOM     15  C   UNL     1       4.608   3.862  18.231  0.00  0.00    +0.000 C 
BRANCH  15  16
ATOM     16  C   UNL     1       3.496   3.148  17.449  0.00  0.00    +0.000 C 
BRANCH  16  17
ATOM     17  C   UNL     1       2.378   2.590  18.328  0.00  0.00    +0.000 C 
BRANCH  17  18
ATOM     18  C   UNL     1       1.273   3.643  18.458  0.00  0.00    +0.000 C 
BRANCH  18  19
ATOM     19  C   UNL     1       1.031   4.029  19.910  0.00  0.00    +0.000 C 
BRANCH  19  21
ATOM     20  C   UNL     1       1.490   2.526  21.856  0.00  0.00    +0.000 C 
ATOM     21  C   UNL     1       2.108   3.450  20.824  0.00  0.00    +0.000 C 
ENDBRANCH  19  21
ENDBRANCH  18  19
ENDBRANCH  17  18
ENDBRANCH  16  17
ENDBRANCH  15  16
ENDBRANCH  12  15
ENDBRANCH   1  12
TORSDOF 11
ENDMDL
MODEL 4
REMARK VINA RESULT:      -6.0      0.957      1.126
REMARK  Name = 
REMARK  14 active torsions:
REMARK  status: ('A' for Active; 'I' for Inactive)
REMARK    1  A    between atoms: C_1  and  C_2
REMARK    2  A    between atoms: C_2  and  C_3
REMARK    3  A    between atoms: C_3  and  C_4
REMARK    4  A    between atoms: C_4  and  C_5
REMARK    5  A    between atoms: C_5  and  C_6
REMARK    6  A    between atoms: C_6  and  C_7
REMARK    7  A    between atoms: C_7  and  N_8
REMARK    8  A    between atoms: N_8  and  C_9
REMARK    9  A    between atoms: N_8  and  C_11
REMARK   10  A    between atoms: C_9  and  C_10
REMARK   11  A    between atoms: C_11  and  C_12
REMARK   12  A    between atoms: C_13  and  C_14
REMARK   13  A    between atoms: C_14  and  C_15
REMARK   14  A    between atoms: C_18  and  C_19
REMARK                            x       y       z     vdW  Elec       q    Type
REMARK                         _______ _______ _______ _____ _____    ______ ____
ROOT
ATOM      1  C   UNL     1       5.603   6.407  17.422  0.00  0.00    +0.000 C 
ENDROOT
BRANCH   1   2
ATOM      2  C   UNL     1       4.334   7.161  17.444  0.00  0.00    +0.000 C 
ATOM      3  C   UNL     1       3.300   7.783  17.487  0.00  0.00    +0.000 C 
BRANCH   3   4
ATOM      4  C   UNL     1       2.030   8.529  17.564  0.00  0.00    +0.000 C 
BRANCH   4   5
ATOM      5  C   UNL     1       1.602   8.794  18.984  0.00  0.00    +0.000 A 
ATOM      6  C   UNL     1       1.794   7.825  19.977  0.00  0.00    +0.000 A 
ATOM      7  C   UNL     1       1.350   8.044  21.283  0.00  0.00    +0.000 A 
ATOM      8  C   UNL     1       0.698   9.235  21.618  0.00  0.00    +0.000 A 
ATOM      9  C   UNL     1       0.183   9.473  23.009  0.00  0.00    +0.000 C 
ATOM     10  C   UNL     1       0.514  10.209  20.631  0.00  0.00    +0.000 A 
ATOM     11  C   UNL     1       0.960   9.992  19.326  0.00  0.00    +0.000 A 
ENDBRANCH   4   5
ENDBRANCH   3   4
ENDBRANCH   1   2
BRANCH   1  12
ATOM     12  N   UNL     1       5.413   4.943  17.482  0.00  0.00    +0.000 NA
BRANCH  12  13
ATOM     13  C   UNL     1       5.191   4.335  16.159  0.00  0.00    +0.000 C 
ATOM     14  C   UNL     1       6.324   4.478  15.147  0.00  0.00    +0.000 C 
ENDBRANCH  12  13
BRANCH  12  15
ATOM     15  C   UNL     1       4.378   4.594  18.481  0.00  0.00    +0.000 C 
BRANCH  15  16
ATOM     16  C   UNL     1       3.285   3.679  17.907  0.00  0.00    +0.000 C 
BRANCH  16  17
ATOM     17  C   UNL     1       1.896   4.314  17.877  0.00  0.00    +0.000 C 
BRANCH  17  18
ATOM     18  C   UNL     1       1.033   3.676  18.971  0.00  0.00    +0.000 C 
BRANCH  18  19
ATOM     19  C   UNL     1       1.656   2.393  19.503  0.00  0.00    +0.000 C 
BRANCH  19  21
ATOM     20  C   UNL     1       2.137   3.817  21.503  0.00  0.00    +0.000 C 
ATOM     21  C   UNL     1       1.774   2.424  21.025  0.00  0.00    +0.000 C 
ENDBRANCH  19  21
ENDBRANCH  18  19
ENDBRANCH  17  18
ENDBRANCH  16  17
ENDBRANCH  15  16
ENDBRANCH  12  15
ENDBRANCH   1  12
TORSDOF 11
ENDMDL
MODEL 5
REMARK VINA RESULT:      -6.0      0.892      1.123
REMARK  Name = 
REMARK  14 active torsions:
REMARK  status: ('A' for Active; 'I' for Inactive)
REMARK    1  A    between atoms: C_1  and  C_2
REMARK    2  A    between atoms: C_2  and  C_3
REMARK    3  A    between atoms: C_3  and  C_4
REMARK    4  A    between atoms: C_4  and  C_5
REMARK    5  A    between atoms: C_5  and  C_6
REMARK    6  A    between atoms: C_6  and  C_7
REMARK    7  A    between atoms: C_7  and  N_8
REMARK    8  A    between atoms: N_8  and  C_9
REMARK    9  A    between atoms: N_8  and  C_11
REMARK   10  A    between atoms: C_9  and  C_10
REMARK   11  A    between atoms: C_11  and  C_12
REMARK   12  A    between atoms: C_13  and  C_14
REMARK   13  A    between atoms: C_14  and  C_15
REMARK   14  A    between atoms: C_18  and  C_19
REMARK                            x       y       z     vdW  Elec       q    Type
REMARK                         _______ _______ _______ _____ _____    ______ ____
ROOT
ATOM      1  C   UNL     1       5.387   6.078  17.777  0.00  0.00    +0.000 C 
ENDROOT
BRANCH   1   2
ATOM      2  C   UNL     1       4.199   6.953  17.711  0.00  0.00    +0.000 C 
ATOM      3  C   UNL     1       3.227   7.667  17.683  0.00  0.00    +0.000 C 
BRANCH   3   4
ATOM      4  C   UNL     1       2.026   8.522  17.667  0.00  0.00    +0.000 C 
BRANCH   4   5
ATOM      5  C   UNL     1       1.498   8.802  19.050  0.00  0.00    +0.000 A 
ATOM      6  C   UNL     1       1.813   7.950  20.117  0.00  0.00    +0.000 A 
ATOM      7  C   UNL     1       1.282   8.175  21.389  0.00  0.00    +0.000 A 
ATOM      8  C   UNL     1       0.421   9.253  21.616  0.00  0.00    +0.000 A 
ATOM      9  C   UNL     1      -0.187   9.489  22.970  0.00  0.00    +0.000 C 
ATOM     10  C   UNL     1       0.112  10.111  20.555  0.00  0.00    +0.000 A 
ATOM     11  C   UNL     1       0.644   9.889  19.284  0.00  0.00    +0.000 A 
ENDBRANCH   4   5
ENDBRANCH   3   4
ENDBRANCH   1   2
BRANCH   1  12
ATOM     12  N   UNL     1       5.286   4.890  16.903  0.00  0.00    +0.000 NA
BRANCH  12  13
ATOM     13  C   UNL     1       5.304   5.226  15.469  0.00  0.00    +0.000 C 
ATOM     14  C   UNL     1       6.331   4.491  14.612  0.00  0.00    +0.000 C 
ENDBRANCH  12  13
BRANCH  12  15
ATOM     15  C   UNL     1       4.138   4.046  17.304  0.00  0.00    +0.000 C 
BRANCH  15  16
ATOM     16  C   UNL     1       4.370   3.328  18.642  0.00  0.00    +0.000 C 
BRANCH  16  17
ATOM     17  C   UNL     1       3.430   2.149  18.885  0.00  0.00    +0.000 C 
BRANCH  17  18
ATOM     18  C   UNL     1       2.245   2.249  17.918  0.00  0.00    +0.000 C 
BRANCH  18  19
ATOM     19  C   UNL     1       0.991   2.758  18.615  0.00  0.00    +0.000 C 
BRANCH  19  21
ATOM     20  C   UNL     1       1.187   4.321  20.558  0.00  0.00    +0.000 C 
ATOM     21  C   UNL     1       1.201   2.867  20.123  0.00  0.00    +0.000 C 
ENDBRANCH  19  21
ENDBRANCH  18  19
ENDBRANCH  17  18
ENDBRANCH  16  17
ENDBRANCH  15  16
ENDBRANCH  12  15
ENDBRANCH   1  12
TORSDOF 11
ENDMDL
MODEL 6
REMARK VINA RESULT:      -5.9      1.292      1.873
REMARK  Name = 
REMARK  14 active torsions:
REMARK  status: ('A' for Active; 'I' for Inactive)
REMARK    1  A    between atoms: C_1  and  C_2
REMARK    2  A    between atoms: C_2  and  C_3
REMARK    3  A    between atoms: C_3  and  C_4
REMARK    4  A    between atoms: C_4  and  C_5
REMARK    5  A    between atoms: C_5  and  C_6
REMARK    6  A    between atoms: C_6  and  C_7
REMARK    7  A    between atoms: C_7  and  N_8
REMARK    8  A    between atoms: N_8  and  C_9
REMARK    9  A    between atoms: N_8  and  C_11
REMARK   10  A    between atoms: C_9  and  C_10
REMARK   11  A    between atoms: C_11  and  C_12
REMARK   12  A    between atoms: C_13  and  C_14
REMARK   13  A    between atoms: C_14  and  C_15
REMARK   14  A    between atoms: C_18  and  C_19
REMARK                            x       y       z     vdW  Elec       q    Type
REMARK                         _______ _______ _______ _____ _____    ______ ____
ROOT
ATOM      1  C   UNL     1       4.548   6.306  17.536  0.00  0.00    +0.000 C 
ENDROOT
BRANCH   1   2
ATOM      2  C   UNL     1       3.530   7.371  17.637  0.00  0.00    +0.000 C 
ATOM      3  C   UNL     1       2.684   8.225  17.733  0.00  0.00    +0.000 C 
BRANCH   3   4
ATOM      4  C   UNL     1       1.629   9.251  17.842  0.00  0.00    +0.000 C 
BRANCH   4   5
ATOM      5  C   UNL     1       1.118   9.404  19.252  0.00  0.00    +0.000 A 
ATOM      6  C   UNL     1       1.515   8.509  20.253  0.00  0.00    +0.000 A 
ATOM      7  C   UNL     1       1.002   8.616  21.548  0.00  0.00    +0.000 A 
ATOM      8  C   UNL     1       0.078   9.616  21.863  0.00  0.00    +0.000 A 
ATOM      9  C   UNL     1      -0.510   9.723  23.242  0.00  0.00    +0.000 C 
ATOM     10  C   UNL     1      -0.313  10.518  20.868  0.00  0.00    +0.000 A 
ATOM     11  C   UNL     1       0.201  10.415  19.574  0.00  0.00    +0.000 A 
ENDBRANCH   4   5
ENDBRANCH   3   4
ENDBRANCH   1   2
BRANCH   1  12
ATOM     12  N   UNL     1       4.997   5.802  18.851  0.00  0.00    +0.000 NA
BRANCH  12  13
ATOM     13  C   UNL     1       6.418   5.417  18.867  0.00  0.00    +0.000 C 
ATOM     14  C   UNL     1       7.072   5.172  17.511  0.00  0.00    +0.000 C 
ENDBRANCH  12  13
BRANCH  12  15
ATOM     15  C   UNL     1       4.085   4.744  19.340  0.00  0.00    +0.000 C 
BRANCH  15  16
ATOM     16  C   UNL     1       3.014   5.282  20.301  0.00  0.00    +0.000 C 
BRANCH  16  17
ATOM     17  C   UNL     1       1.608   4.754  20.021  0.00  0.00    +0.000 C 
BRANCH  17  18
ATOM     18  C   UNL     1       1.568   4.166  18.607  0.00  0.00    +0.000 C 
BRANCH  18  19
ATOM     19  C   UNL     1       0.969   2.766  18.597  0.00  0.00    +0.000 C 
BRANCH  19  21
ATOM     20  C   UNL     1       3.207   1.721  18.202  0.00  0.00    +0.000 C 
ATOM     21  C   UNL     1       1.975   1.729  19.088  0.00  0.00    +0.000 C 
ENDBRANCH  19  21
ENDBRANCH  18  19
ENDBRANCH  17  18
ENDBRANCH  16  17
ENDBRANCH  15  16
ENDBRANCH  12  15
ENDBRANCH   1  12
TORSDOF 11
ENDMDL
MODEL 7
REMARK VINA RESULT:      -5.9      1.129      1.797
REMARK  Name = 
REMARK  14 active torsions:
REMARK  status: ('A' for Active; 'I' for Inactive)
REMARK    1  A    between atoms: C_1  and  C_2
REMARK    2  A    between atoms: C_2  and  C_3
REMARK    3  A    between atoms: C_3  and  C_4
REMARK    4  A    between atoms: C_4  and  C_5
REMARK    5  A    between atoms: C_5  and  C_6
REMARK    6  A    between atoms: C_6  and  C_7
REMARK    7  A    between atoms: C_7  and  N_8
REMARK    8  A    between atoms: N_8  and  C_9
REMARK    9  A    between atoms: N_8  and  C_11
REMARK   10  A    between atoms: C_9  and  C_10
REMARK   11  A    between atoms: C_11  and  C_12
REMARK   12  A    between atoms: C_13  and  C_14
REMARK   13  A    between atoms: C_14  and  C_15
REMARK   14  A    between atoms: C_18  and  C_19
REMARK                            x       y       z     vdW  Elec       q    Type
REMARK                         _______ _______ _______ _____ _____    ______ ____
ROOT
ATOM      1  C   UNL     1       5.061   6.105  17.181  0.00  0.00    +0.000 C 
ENDROOT
BRANCH   1   2
ATOM      2  C   UNL     1       3.969   7.081  17.372  0.00  0.00    +0.000 C 
ATOM      3  C   UNL     1       3.077   7.882  17.502  0.00  0.00    +0.000 C 
BRANCH   3   4
ATOM      4  C   UNL     1       2.001   8.881  17.645  0.00  0.00    +0.000 C 
BRANCH   4   5
ATOM      5  C   UNL     1       1.484   8.973  19.057  0.00  0.00    +0.000 A 
ATOM      6  C   UNL     1       0.703  10.065  19.459  0.00  0.00    +0.000 A 
ATOM      7  C   UNL     1       0.267  10.181  20.781  0.00  0.00    +0.000 A 
ATOM      8  C   UNL     1       0.609   9.210  21.727  0.00  0.00    +0.000 A 
ATOM      9  C   UNL     1       0.178   9.339  23.161  0.00  0.00    +0.000 C 
ATOM     10  C   UNL     1       1.380   8.114  21.327  0.00  0.00    +0.000 A 
ATOM     11  C   UNL     1       1.814   7.994  20.006  0.00  0.00    +0.000 A 
ENDBRANCH   4   5
ENDBRANCH   3   4
ENDBRANCH   1   2
BRANCH   1  12
ATOM     12  N   UNL     1       5.759   5.758  18.436  0.00  0.00    +0.000 NA
BRANCH  12  13
ATOM     13  C   UNL     1       7.181   6.142  18.430  0.00  0.00    +0.000 C 
ATOM     14  C   UNL     1       7.540   7.412  17.665  0.00  0.00    +0.000 C 
ENDBRANCH  12  13
BRANCH  12  15
ATOM     15  C   UNL     1       5.525   4.340  18.786  0.00  0.00    +0.000 C 
BRANCH  15  16
ATOM     16  C   UNL     1       4.045   4.036  19.065  0.00  0.00    +0.000 C 
BRANCH  16  17
ATOM     17  C   UNL     1       3.323   3.348  17.908  0.00  0.00    +0.000 C 
BRANCH  17  18
ATOM     18  C   UNL     1       1.834   3.703  17.967  0.00  0.00    +0.000 C 
BRANCH  18  19
ATOM     19  C   UNL     1       1.026   2.623  18.672  0.00  0.00    +0.000 C 
BRANCH  19  21
ATOM     20  C   UNL     1       0.876   4.403  20.422  0.00  0.00    +0.000 C 
ATOM     21  C   UNL     1       0.904   2.908  20.166  0.00  0.00    +0.000 C 
ENDBRANCH  19  21
ENDBRANCH  18  19
ENDBRANCH  17  18
ENDBRANCH  16  17
ENDBRANCH  15  16
ENDBRANCH  12  15
ENDBRANCH   1  12
TORSDOF 11
ENDMDL
MODEL 8
REMARK VINA RESULT:      -5.9      1.330      4.142
REMARK  Name = 
REMARK  14 active torsions:
REMARK  status: ('A' for Active; 'I' for Inactive)
REMARK    1  A    between atoms: C_1  and  C_2
REMARK    2  A    between atoms: C_2  and  C_3
REMARK    3  A    between atoms: C_3  and  C_4
REMARK    4  A    between atoms: C_4  and  C_5
REMARK    5  A    between atoms: C_5  and  C_6
REMARK    6  A    between atoms: C_6  and  C_7
REMARK    7  A    between atoms: C_7  and  N_8
REMARK    8  A    between atoms: N_8  and  C_9
REMARK    9  A    between atoms: N_8  and  C_11
REMARK   10  A    between atoms: C_9  and  C_10
REMARK   11  A    between atoms: C_11  and  C_12
REMARK   12  A    between atoms: C_13  and  C_14
REMARK   13  A    between atoms: C_14  and  C_15
REMARK   14  A    between atoms: C_18  and  C_19
REMARK                            x       y       z     vdW  Elec       q    Type
REMARK                         _______ _______ _______ _____ _____    ______ ____
ROOT
ATOM      1  C   UNL     1       2.869   4.746  17.927  0.00  0.00    +0.000 C 
ENDROOT
BRANCH   1   2
ATOM      2  C   UNL     1       2.573   6.191  17.990  0.00  0.00    +0.000 C 
ATOM      3  C   UNL     1       2.307   7.367  18.050  0.00  0.00    +0.000 C 
BRANCH   3   4
ATOM      4  C   UNL     1       1.958   8.798  18.110  0.00  0.00    +0.000 C 
BRANCH   4   5
ATOM      5  C   UNL     1       1.296   9.176  19.410  0.00  0.00    +0.000 A 
ATOM      6  C   UNL     1       1.474   8.387  20.554  0.00  0.00    +0.000 A 
ATOM      7  C   UNL     1       0.820   8.704  21.747  0.00  0.00    +0.000 A 
ATOM      8  C   UNL     1      -0.029   9.813  21.816  0.00  0.00    +0.000 A 
ATOM      9  C   UNL     1      -0.768  10.147  23.081  0.00  0.00    +0.000 C 
ATOM     10  C   UNL     1      -0.200  10.609  20.678  0.00  0.00    +0.000 A 
ATOM     11  C   UNL     1       0.455  10.295  19.486  0.00  0.00    +0.000 A 
ENDBRANCH   4   5
ENDBRANCH   3   4
ENDBRANCH   1   2
BRANCH   1  12
ATOM     12  N   UNL     1       3.339   4.191  19.214  0.00  0.00    +0.000 NA
BRANCH  12  13
ATOM     13  C   UNL     1       2.611   4.729  20.375  0.00  0.00    +0.000 C 
ATOM     14  C   UNL     1       1.244   4.117  20.665  0.00  0.00    +0.000 C 
ENDBRANCH  12  13
BRANCH  12  15
ATOM     15  C   UNL     1       4.810   4.308  19.323  0.00  0.00    +0.000 C 
BRANCH  15  16
ATOM     16  C   UNL     1       5.515   4.218  17.962  0.00  0.00    +0.000 C 
BRANCH  16  17
ATOM     17  C   UNL     1       6.595   5.277  17.750  0.00  0.00    +0.000 C 
BRANCH  17  18
ATOM     18  C   UNL     1       6.103   6.291  16.712  0.00  0.00    +0.000 C 
BRANCH  18  19
ATOM     19  C   UNL     1       5.508   5.603  15.492  0.00  0.00    +0.000 C 
BRANCH  19  21
ATOM     20  C   UNL     1       6.054   3.870  13.772  0.00  0.00    +0.000 C 
ATOM     21  C   UNL     1       6.599   5.021  14.596  0.00  0.00    +0.000 C 
ENDBRANCH  19  21
ENDBRANCH  18  19
ENDBRANCH  17  18
ENDBRANCH  16  17
ENDBRANCH  15  16
ENDBRANCH  12  15
ENDBRANCH   1  12
TORSDOF 11
ENDMDL
MODEL 9
REMARK VINA RESULT:      -5.8      4.603      5.992
REMARK  Name = 
REMARK  14 active torsions:
REMARK  status: ('A' for Active; 'I' for Inactive)
REMARK    1  A    between atoms: C_1  and  C_2
REMARK    2  A    between atoms: C_2  and  C_3
REMARK    3  A    between atoms: C_3  and  C_4
REMARK    4  A    between atoms: C_4  and  C_5
REMARK    5  A    between atoms: C_5  and  C_6
REMARK    6  A    between atoms: C_6  and  C_7
REMARK    7  A    between atoms: C_7  and  N_8
REMARK    8  A    between atoms: N_8  and  C_9
REMARK    9  A    between atoms: N_8  and  C_11
REMARK   10  A    between atoms: C_9  and  C_10
REMARK   11  A    between atoms: C_11  and  C_12
REMARK   12  A    between atoms: C_13  and  C_14
REMARK   13  A    between atoms: C_14  and  C_15
REMARK   14  A    between atoms: C_18  and  C_19
REMARK                            x       y       z     vdW  Elec       q    Type
REMARK                         _______ _______ _______ _____ _____    ______ ____
ROOT
ATOM      1  C   UNL     1       7.841   5.790  19.149  0.00  0.00    +0.000 C 
ENDROOT
BRANCH   1   2
ATOM      2  C   UNL     1       7.978   7.115  18.514  0.00  0.00    +0.000 C 
ATOM      3  C   UNL     1       8.116   8.196  17.995  0.00  0.00    +0.000 C 
BRANCH   3   4
ATOM      4  C   UNL     1       8.304   9.523  17.380  0.00  0.00    +0.000 C 
BRANCH   4   5
ATOM      5  C   UNL     1       8.844  10.538  18.354  0.00  0.00    +0.000 A 
ATOM      6  C   UNL     1       9.165  10.164  19.665  0.00  0.00    +0.000 A 
ATOM      7  C   UNL     1       9.616  11.113  20.587  0.00  0.00    +0.000 A 
ATOM      8  C   UNL     1       9.748  12.454  20.215  0.00  0.00    +0.000 A 
ATOM      9  C   UNL     1      10.197  13.492  21.203  0.00  0.00    +0.000 C 
ATOM     10  C   UNL     1       9.438  12.828  18.903  0.00  0.00    +0.000 A 
ATOM     11  C   UNL     1       8.990  11.882  17.981  0.00  0.00    +0.000 A 
ENDBRANCH   4   5
ENDBRANCH   3   4
ENDBRANCH   1   2
BRANCH   1  12
ATOM     12  N   UNL     1       6.910   4.893  18.433  0.00  0.00    +0.000 NA
BRANCH  12  13
ATOM     13  C   UNL     1       7.419   4.460  17.121  0.00  0.00    +0.000 C 
ATOM     14  C   UNL     1       6.488   4.662  15.929  0.00  0.00    +0.000 C 
ENDBRANCH  12  13
BRANCH  12  15
ATOM     15  C   UNL     1       5.555   5.485  18.382  0.00  0.00    +0.000 C 
BRANCH  15  16
ATOM     16  C   UNL     1       4.566   4.786  19.327  0.00  0.00    +0.000 C 
BRANCH  16  17
ATOM     17  C   UNL     1       4.726   3.268  19.381  0.00  0.00    +0.000 C 
BRANCH  17  18
ATOM     18  C   UNL     1       3.384   2.639  19.770  0.00  0.00    +0.000 C 
BRANCH  18  19
ATOM     19  C   UNL     1       2.326   2.862  18.699  0.00  0.00    +0.000 C 
BRANCH  19  21
ATOM     20  C   UNL     1       0.920   4.019  20.414  0.00  0.00    +0.000 C 
ATOM     21  C   UNL     1       0.932   2.976  19.312  0.00  0.00    +0.000 C 
ENDBRANCH  19  21
ENDBRANCH  18  19
ENDBRANCH  17  18
ENDBRANCH  16  17
ENDBRANCH  15  16
ENDBRANCH  12  15
ENDBRANCH   1  12
TORSDOF 11
ENDMDL
