MODEL 1
REMARK VINA RESULT:      -5.6      0.000      0.000
REMARK  Name = 
REMARK  6 active torsions:
REMARK  status: ('A' for Active; 'I' for Inactive)
REMARK    1  A    between atoms: C_1  and  N_2
REMARK    2  A    between atoms: N_2  and  C_3
REMARK    3  A    between atoms: C_3  and  C_4
REMARK    4  A    between atoms: C_3  and  C_5
REMARK    5  A    between atoms: C_5  and  O_6
REMARK    6  A    between atoms: C_5  and  C_7
REMARK                            x       y       z     vdW  Elec       q    Type
REMARK                         _______ _______ _______ _____ _____    ______ ____
ROOT
ATOM      1  C   UNL     1       6.014   4.434  17.140  0.00  0.00    +0.000 C 
ENDROOT
BRANCH   1   2
ATOM      2  C   UNL     1       4.512   4.411  17.393  0.00  0.00    +0.000 A 
ATOM      3  C   UNL     1       3.813   3.189  17.338  0.00  0.00    +0.000 A 
ATOM      4  C   UNL     1       2.435   3.146  17.562  0.00  0.00    +0.000 A 
ATOM      5  C   UNL     1       1.733   4.322  17.843  0.00  0.00    +0.000 A 
ATOM      6  C   UNL     1       2.413   5.537  17.918  0.00  0.00    +0.000 A 
ATOM      7  C   UNL     1       3.792   5.584  17.703  0.00  0.00    +0.000 A 
ENDBRANCH   1   2
BRANCH   1   8
ATOM      8  C   UNL     1       6.563   5.801  16.596  0.00  0.00    +0.000 C 
ATOM      9  C   UNL     1       7.525   6.565  17.523  0.00  0.00    +0.000 C 
BRANCH   8  11
ATOM     10  C   UNL     1       6.894   4.431  14.526  0.00  0.00    +0.000 C 
ATOM     11  N   UNL     1       7.149   5.685  15.241  0.00  0.00    +0.000 NA
ATOM     12  H   UNL     1       6.832   6.483  14.643  0.00  0.00    +0.000 HD
ENDBRANCH   8  11
ENDBRANCH   1   8
BRANCH   1  13
ATOM     13  O   UNL     1       6.701   3.973  18.276  0.00  0.00    +0.000 OA
ATOM     14  H   UNL     1       6.673   2.984  18.274  0.00  0.00    +0.000 HD
ENDBRANCH   1  13
TORSDOF 4
ENDMDL
MODEL 2
REMARK VINA RESULT:      -5.6      1.585      2.168
REMARK  Name = 
REMARK  6 active torsions:
REMARK  status: ('A' for Active; 'I' for Inactive)
REMARK    1  A    between atoms: C_1  and  N_2
REMARK    2  A    between atoms: N_2  and  C_3
REMARK    3  A    between atoms: C_3  and  C_4
REMARK    4  A    between atoms: C_3  and  C_5
REMARK    5  A    between atoms: C_5  and  O_6
REMARK    6  A    between atoms: C_5  and  C_7
REMARK                            x       y       z     vdW  Elec       q    Type
REMARK                         _______ _______ _______ _____ _____    ______ ____
ROOT
ATOM      1  C   UNL     1       5.642   5.626  16.414  0.00  0.00    +0.000 C 
ENDROOT
BRANCH   1   2
ATOM      2  C   UNL     1       4.304   5.236  17.030  0.00  0.00    +0.000 A 
ATOM      3  C   UNL     1       3.826   3.919  16.886  0.00  0.00    +0.000 A 
ATOM      4  C   UNL     1       2.600   3.541  17.438  0.00  0.00    +0.000 A 
ATOM      5  C   UNL     1       1.832   4.472  18.142  0.00  0.00    +0.000 A 
ATOM      6  C   UNL     1       2.299   5.775  18.310  0.00  0.00    +0.000 A 
ATOM      7  C   UNL     1       3.527   6.156  17.767  0.00  0.00    +0.000 A 
ENDBRANCH   1   2
BRANCH   1   8
ATOM      8  C   UNL     1       6.495   4.417  15.890  0.00  0.00    +0.000 C 
ATOM      9  C   UNL     1       6.803   4.406  14.381  0.00  0.00    +0.000 C 
BRANCH   8  11
ATOM     10  C   UNL     1       7.740   4.718  18.041  0.00  0.00    +0.000 C 
ATOM     11  N   UNL     1       7.741   4.216  16.663  0.00  0.00    +0.000 NA
ATOM     12  H   UNL     1       7.995   3.201  16.677  0.00  0.00    +0.000 HD
ENDBRANCH   8  11
ENDBRANCH   1   8
BRANCH   1  13
ATOM     13  O   UNL     1       5.453   6.632  15.451  0.00  0.00    +0.000 OA
ATOM     14  H   UNL     1       4.583   6.475  15.006  0.00  0.00    +0.000 HD
ENDBRANCH   1  13
TORSDOF 4
ENDMDL
MODEL 3
REMARK VINA RESULT:      -5.6      2.498      3.291
REMARK  Name = 
REMARK  6 active torsions:
REMARK  status: ('A' for Active; 'I' for Inactive)
REMARK    1  A    between atoms: C_1  and  N_2
REMARK    2  A    between atoms: N_2  and  C_3
REMARK    3  A    between atoms: C_3  and  C_4
REMARK    4  A    between atoms: C_3  and  C_5
REMARK    5  A    between atoms: C_5  and  O_6
REMARK    6  A    between atoms: C_5  and  C_7
REMARK                            x       y       z     vdW  Elec       q    Type
REMARK                         _______ _______ _______ _____ _____    ______ ____
ROOT
ATOM      1  C   UNL     1       3.820   3.283  17.793  0.00  0.00    +0.000 C 
ENDROOT
BRANCH   1   2
ATOM      2  C   UNL     1       2.963   3.246  19.052  0.00  0.00    +0.000 A 
ATOM      3  C   UNL     1       1.649   3.751  19.018  0.00  0.00    +0.000 A 
ATOM      4  C   UNL     1       0.848   3.731  20.162  0.00  0.00    +0.000 A 
ATOM      5  C   UNL     1       1.347   3.208  21.358  0.00  0.00    +0.000 A 
ATOM      6  C   UNL     1       2.640   2.689  21.405  0.00  0.00    +0.000 A 
ATOM      7  C   UNL     1       3.442   2.698  20.262  0.00  0.00    +0.000 A 
ENDBRANCH   1   2
BRANCH   1   8
ATOM      8  C   UNL     1       4.898   4.424  17.771  0.00  0.00    +0.000 C 
ATOM      9  C   UNL     1       4.487   5.760  18.417  0.00  0.00    +0.000 C 
BRANCH   8  11
ATOM     10  C   UNL     1       7.392   4.643  17.741  0.00  0.00    +0.000 C 
ATOM     11  N   UNL     1       6.208   3.986  18.303  0.00  0.00    +0.000 NA
ATOM     12  H   UNL     1       6.227   4.094  19.343  0.00  0.00    +0.000 HD
ENDBRANCH   8  11
ENDBRANCH   1   8
BRANCH   1  13
ATOM     13  O   UNL     1       4.355   2.009  17.537  0.00  0.00    +0.000 OA
ATOM     14  H   UNL     1       5.201   2.124  17.036  0.00  0.00    +0.000 HD
ENDBRANCH   1  13
TORSDOF 4
ENDMDL
MODEL 4
REMARK VINA RESULT:      -5.6      1.526      2.498
REMARK  Name = 
REMARK  6 active torsions:
REMARK  status: ('A' for Active; 'I' for Inactive)
REMARK    1  A    between atoms: C_1  and  N_2
REMARK    2  A    between atoms: N_2  and  C_3
REMARK    3  A    between atoms: C_3  and  C_4
REMARK    4  A    between atoms: C_3  and  C_5
REMARK    5  A    between atoms: C_5  and  O_6
REMARK    6  A    between atoms: C_5  and  C_7
REMARK                            x       y       z     vdW  Elec       q    Type
REMARK                         _______ _______ _______ _____ _____    ______ ____
ROOT
ATOM      1  C   UNL     1       5.686   5.607  16.680  0.00  0.00    +0.000 C 
ENDROOT
BRANCH   1   2
ATOM      2  C   UNL     1       4.313   5.109  17.116  0.00  0.00    +0.000 A 
ATOM      3  C   UNL     1       3.419   5.993  17.752  0.00  0.00    +0.000 A 
ATOM      4  C   UNL     1       2.158   5.556  18.164  0.00  0.00    +0.000 A 
ATOM      5  C   UNL     1       1.770   4.231  17.948  0.00  0.00    +0.000 A 
ATOM      6  C   UNL     1       2.636   3.348  17.304  0.00  0.00    +0.000 A 
ATOM      7  C   UNL     1       3.895   3.782  16.883  0.00  0.00    +0.000 A 
ENDBRANCH   1   2
BRANCH   1   8
ATOM      8  C   UNL     1       6.608   4.505  16.048  0.00  0.00    +0.000 C 
ATOM      9  C   UNL     1       7.006   4.714  14.575  0.00  0.00    +0.000 C 
BRANCH   8  11
ATOM     10  C   UNL     1       7.825   4.790  18.218  0.00  0.00    +0.000 C 
ATOM     11  N   UNL     1       7.812   4.228  16.864  0.00  0.00    +0.000 NA
ATOM     12  H   UNL     1       7.973   3.196  16.928  0.00  0.00    +0.000 HD
ENDBRANCH   8  11
ENDBRANCH   1   8
BRANCH   1  13
ATOM     13  O   UNL     1       5.550   6.748  15.872  0.00  0.00    +0.000 OA
ATOM     14  H   UNL     1       4.623   7.084  15.964  0.00  0.00    +0.000 HD
ENDBRANCH   1  13
TORSDOF 4
ENDMDL
MODEL 5
REMARK VINA RESULT:      -5.5      1.897      2.388
REMARK  Name = 
REMARK  6 active torsions:
REMARK  status: ('A' for Active; 'I' for Inactive)
REMARK    1  A    between atoms: C_1  and  N_2
REMARK    2  A    between atoms: N_2  and  C_3
REMARK    3  A    between atoms: C_3  and  C_4
REMARK    4  A    between atoms: C_3  and  C_5
REMARK    5  A    between atoms: C_5  and  O_6
REMARK    6  A    between atoms: C_5  and  C_7
REMARK                            x       y       z     vdW  Elec       q    Type
REMARK                         _______ _______ _______ _____ _____    ______ ____
ROOT
ATOM      1  C   UNL     1       4.603   3.315  18.257  0.00  0.00    +0.000 C 
ENDROOT
BRANCH   1   2
ATOM      2  C   UNL     1       3.276   3.528  18.974  0.00  0.00    +0.000 A 
ATOM      3  C   UNL     1       2.154   2.757  18.610  0.00  0.00    +0.000 A 
ATOM      4  C   UNL     1       0.926   2.938  19.250  0.00  0.00    +0.000 A 
ATOM      5  C   UNL     1       0.799   3.892  20.264  0.00  0.00    +0.000 A 
ATOM      6  C   UNL     1       1.904   4.651  20.648  0.00  0.00    +0.000 A 
ATOM      7  C   UNL     1       3.135   4.467  20.017  0.00  0.00    +0.000 A 
ENDBRANCH   1   2
BRANCH   1   8
ATOM      8  C   UNL     1       4.693   3.984  16.839  0.00  0.00    +0.000 C 
ATOM      9  C   UNL     1       4.610   5.521  16.806  0.00  0.00    +0.000 C 
BRANCH   8  11
ATOM     10  C   UNL     1       6.772   4.565  15.570  0.00  0.00    +0.000 C 
ATOM     11  N   UNL     1       5.864   3.523  16.061  0.00  0.00    +0.000 NA
ATOM     12  H   UNL     1       6.418   2.833  16.619  0.00  0.00    +0.000 HD
ENDBRANCH   8  11
ENDBRANCH   1   8
BRANCH   1  13
ATOM     13  O   UNL     1       5.669   3.664  19.104  0.00  0.00    +0.000 OA
ATOM     14  H   UNL     1       5.955   2.852  19.592  0.00  0.00    +0.000 HD
ENDBRANCH   1  13
TORSDOF 4
ENDMDL
MODEL 6
REMARK VINA RESULT:      -5.4      1.892      2.710
REMARK  Name = 
REMARK  6 active torsions:
REMARK  status: ('A' for Active; 'I' for Inactive)
REMARK    1  A    between atoms: C_1  and  N_2
REMARK    2  A    between atoms: N_2  and  C_3
REMARK    3  A    between atoms: C_3  and  C_4
REMARK    4  A    between atoms: C_3  and  C_5
REMARK    5  A    between atoms: C_5  and  O_6
REMARK    6  A    between atoms: C_5  and  C_7
REMARK                            x       y       z     vdW  Elec       q    Type
REMARK                         _______ _______ _______ _____ _____    ______ ____
ROOT
ATOM      1  C   UNL     1       4.531   3.187  18.167  0.00  0.00    +0.000 C 
ENDROOT
BRANCH   1   2
ATOM      2  C   UNL     1       3.185   3.319  18.868  0.00  0.00    +0.000 A 
ATOM      3  C   UNL     1       3.075   4.114  20.026  0.00  0.00    +0.000 A 
ATOM      4  C   UNL     1       1.852   4.245  20.687  0.00  0.00    +0.000 A 
ATOM      5  C   UNL     1       0.720   3.584  20.204  0.00  0.00    +0.000 A 
ATOM      6  C   UNL     1       0.807   2.807  19.049  0.00  0.00    +0.000 A 
ATOM      7  C   UNL     1       2.026   2.680  18.380  0.00  0.00    +0.000 A 
ENDBRANCH   1   2
BRANCH   1   8
ATOM      8  C   UNL     1       4.647   3.989  16.822  0.00  0.00    +0.000 C 
ATOM      9  C   UNL     1       4.519   5.520  16.931  0.00  0.00    +0.000 C 
BRANCH   8  11
ATOM     10  C   UNL     1       6.786   4.732  15.753  0.00  0.00    +0.000 C 
ATOM     11  N   UNL     1       5.857   3.636  16.046  0.00  0.00    +0.000 NA
ATOM     12  H   UNL     1       6.383   2.872  16.529  0.00  0.00    +0.000 HD
ENDBRANCH   8  11
ENDBRANCH   1   8
BRANCH   1  13
ATOM     13  O   UNL     1       5.573   3.462  19.069  0.00  0.00    +0.000 OA
ATOM     14  H   UNL     1       5.981   2.602  19.342  0.00  0.00    +0.000 HD
ENDBRANCH   1  13
TORSDOF 4
ENDMDL
MODEL 7
REMARK VINA RESULT:      -5.4      1.516      2.181
REMARK  Name = 
REMARK  6 active torsions:
REMARK  status: ('A' for Active; 'I' for Inactive)
REMARK    1  A    between atoms: C_1  and  N_2
REMARK    2  A    between atoms: N_2  and  C_3
REMARK    3  A    between atoms: C_3  and  C_4
REMARK    4  A    between atoms: C_3  and  C_5
REMARK    5  A    between atoms: C_5  and  O_6
REMARK    6  A    between atoms: C_5  and  C_7
REMARK                            x       y       z     vdW  Elec       q    Type
REMARK                         _______ _______ _______ _____ _____    ______ ____
ROOT
ATOM      1  C   UNL     1       5.101   5.133  17.106  0.00  0.00    +0.000 C 
ENDROOT
BRANCH   1   2
ATOM      2  C   UNL     1       3.873   4.322  17.500  0.00  0.00    +0.000 A 
ATOM      3  C   UNL     1       3.962   2.919  17.589  0.00  0.00    +0.000 A 
ATOM      4  C   UNL     1       2.848   2.155  17.944  0.00  0.00    +0.000 A 
ATOM      5  C   UNL     1       1.627   2.780  18.215  0.00  0.00    +0.000 A 
ATOM      6  C   UNL     1       1.527   4.169  18.149  0.00  0.00    +0.000 A 
ATOM      7  C   UNL     1       2.640   4.937  17.803  0.00  0.00    +0.000 A 
ENDBRANCH   1   2
BRANCH   1   8
ATOM      8  C   UNL     1       6.191   4.323  16.318  0.00  0.00    +0.000 C 
ATOM      9  C   UNL     1       6.332   4.652  14.820  0.00  0.00    +0.000 C 
BRANCH   8  11
ATOM     10  C   UNL     1       7.627   5.191  18.177  0.00  0.00    +0.000 C 
ATOM     11  N   UNL     1       7.518   4.362  16.972  0.00  0.00    +0.000 NA
ATOM     12  H   UNL     1       7.833   3.392  17.204  0.00  0.00    +0.000 HD
ENDBRANCH   8  11
ENDBRANCH   1   8
BRANCH   1  13
ATOM     13  O   UNL     1       4.708   6.315  16.454  0.00  0.00    +0.000 OA
ATOM     14  H   UNL     1       4.179   6.066  15.655  0.00  0.00    +0.000 HD
ENDBRANCH   1  13
TORSDOF 4
ENDMDL
MODEL 8
REMARK VINA RESULT:      -5.4      1.608      2.580
REMARK  Name = 
REMARK  6 active torsions:
REMARK  status: ('A' for Active; 'I' for Inactive)
REMARK    1  A    between atoms: C_1  and  N_2
REMARK    2  A    between atoms: N_2  and  C_3
REMARK    3  A    between atoms: C_3  and  C_4
REMARK    4  A    between atoms: C_3  and  C_5
REMARK    5  A    between atoms: C_5  and  O_6
REMARK    6  A    between atoms: C_5  and  C_7
REMARK                            x       y       z     vdW  Elec       q    Type
REMARK                         _______ _______ _______ _____ _____    ______ ____
ROOT
ATOM      1  C   UNL     1       5.098   5.211  17.304  0.00  0.00    +0.000 C 
ENDROOT
BRANCH   1   2
ATOM      2  C   UNL     1       3.879   4.354  17.621  0.00  0.00    +0.000 A 
ATOM      3  C   UNL     1       2.635   4.970  17.864  0.00  0.00    +0.000 A 
ATOM      4  C   UNL     1       1.506   4.205  18.161  0.00  0.00    +0.000 A 
ATOM      5  C   UNL     1       1.600   2.812  18.221  0.00  0.00    +0.000 A 
ATOM      6  C   UNL     1       2.819   2.184  17.966  0.00  0.00    +0.000 A 
ATOM      7  C   UNL     1       3.949   2.945  17.660  0.00  0.00    +0.000 A 
ENDBRANCH   1   2
BRANCH   1   8
ATOM      8  C   UNL     1       6.375   4.398  16.888  0.00  0.00    +0.000 C 
ATOM      9  C   UNL     1       7.014   4.779  15.540  0.00  0.00    +0.000 C 
BRANCH   8  11
ATOM     10  C   UNL     1       7.673   5.639  18.632  0.00  0.00    +0.000 C 
ATOM     11  N   UNL     1       7.408   4.370  17.948  0.00  0.00    +0.000 NA
ATOM     12  H   UNL     1       7.167   3.647  18.665  0.00  0.00    +0.000 HD
ENDBRANCH   8  11
ENDBRANCH   1   8
BRANCH   1  13
ATOM     13  O   UNL     1       4.754   6.215  16.383  0.00  0.00    +0.000 OA
ATOM     14  H   UNL     1       4.165   6.866  16.841  0.00  0.00    +0.000 HD
ENDBRANCH   1  13
TORSDOF 4
ENDMDL
MODEL 9
REMARK VINA RESULT:      -5.4      0.639      1.524
REMARK  Name = 
REMARK  6 active torsions:
REMARK  status: ('A' for Active; 'I' for Inactive)
REMARK    1  A    between atoms: C_1  and  N_2
REMARK    2  A    between atoms: N_2  and  C_3
REMARK    3  A    between atoms: C_3  and  C_4
REMARK    4  A    between atoms: C_3  and  C_5
REMARK    5  A    between atoms: C_5  and  O_6
REMARK    6  A    between atoms: C_5  and  C_7
REMARK                            x       y       z     vdW  Elec       q    Type
REMARK                         _______ _______ _______ _____ _____    ______ ____
ROOT
ATOM      1  C   UNL     1       5.844   4.749  17.843  0.00  0.00    +0.000 C 
ENDROOT
BRANCH   1   2
ATOM      2  C   UNL     1       4.351   4.449  17.817  0.00  0.00    +0.000 A 
ATOM      3  C   UNL     1       3.427   5.477  18.094  0.00  0.00    +0.000 A 
ATOM      4  C   UNL     1       2.054   5.223  18.080  0.00  0.00    +0.000 A 
ATOM      5  C   UNL     1       1.581   3.941  17.792  0.00  0.00    +0.000 A 
ATOM      6  C   UNL     1       2.481   2.916  17.499  0.00  0.00    +0.000 A 
ATOM      7  C   UNL     1       3.854   3.167  17.502  0.00  0.00    +0.000 A 
ENDBRANCH   1   2
BRANCH   1   8
ATOM      8  C   UNL     1       6.254   6.085  17.126  0.00  0.00    +0.000 C 
ATOM      9  C   UNL     1       7.494   6.805  17.687  0.00  0.00    +0.000 C 
BRANCH   8  11
ATOM     10  C   UNL     1       7.003   4.697  15.181  0.00  0.00    +0.000 C 
ATOM     11  N   UNL     1       6.376   5.934  15.659  0.00  0.00    +0.000 NA
ATOM     12  H   UNL     1       5.436   6.028  15.209  0.00  0.00    +0.000 HD
ENDBRANCH   8  11
ENDBRANCH   1   8
BRANCH   1  13
ATOM     13  O   UNL     1       6.332   4.652  19.157  0.00  0.00    +0.000 OA
ATOM     14  H   UNL     1       5.739   5.182  19.748  0.00  0.00    +0.000 HD
ENDBRANCH   1  13
TORSDOF 4
ENDMDL
