MODEL 1
REMARK VINA RESULT:      -7.4      0.000      0.000
REMARK  Name = 
REMARK  3 active torsions:
REMARK  status: ('A' for Active; 'I' for Inactive)
REMARK    1  A    between atoms: C_7  and  C_8
REMARK    2  A    between atoms: C_8  and  S_9
REMARK    3  A    between atoms: S_9  and  C_10
REMARK                            x       y       z     vdW  Elec       q    Type
REMARK                         _______ _______ _______ _____ _____    ______ ____
ROOT
ATOM      1  C   UNL     1       4.813   5.770  18.252  0.00  0.00    +0.000 A 
ATOM      2  C   UNL     1       5.461   5.562  19.458  0.00  0.00    +0.000 A 
ATOM      3  N   UNL     1       6.692   5.022  19.549  0.00  0.00    +0.000 NA
ATOM      4  N   UNL     1       7.350   4.657  18.410  0.00  0.00    +0.000 NA
ATOM      5  C   UNL     1       6.792   4.827  17.203  0.00  0.00    +0.000 A 
ATOM      6  C   UNL     1       7.498   4.443  16.064  0.00  0.00    +0.000 A 
ATOM      7  C   UNL     1       6.968   4.595  14.780  0.00  0.00    +0.000 A 
ATOM      8  C   UNL     1       5.705   5.139  14.624  0.00  0.00    +0.000 A 
ATOM      9  C   UNL     1       4.987   5.529  15.751  0.00  0.00    +0.000 A 
ATOM     10  C   UNL     1       5.504   5.386  17.067  0.00  0.00    +0.000 A 
ENDROOT
BRANCH   1  11
ATOM     11  S   UNL     1       3.160   6.481  18.112  0.00  0.00    +0.000 S 
BRANCH  11  12
ATOM     12  C   UNL     1       1.997   5.082  17.938  0.00  0.00    +0.000 C 
BRANCH  12  19
ATOM     13 CL   UNL     1       3.633   2.392  17.677  0.00  0.00    +0.000 Cl
ATOM     14  C   UNL     1       2.848   2.955  19.109  0.00  0.00    +0.000 A 
ATOM     15  C   UNL     1       2.965   2.165  20.260  0.00  0.00    +0.000 A 
ATOM     16  C   UNL     1       2.371   2.567  21.455  0.00  0.00    +0.000 A 
ATOM     17  C   UNL     1       1.660   3.762  21.505  0.00  0.00    +0.000 A 
ATOM     18  C   UNL     1       1.540   4.552  20.358  0.00  0.00    +0.000 A 
ATOM     19  C   UNL     1       2.123   4.160  19.137  0.00  0.00    +0.000 A 
ENDBRANCH  12  19
ENDBRANCH  11  12
ENDBRANCH   1  11
TORSDOF 3
ENDMDL
MODEL 2
REMARK VINA RESULT:      -7.3      1.954      2.577
REMARK  Name = 
REMARK  3 active torsions:
REMARK  status: ('A' for Active; 'I' for Inactive)
REMARK    1  A    between atoms: C_7  and  C_8
REMARK    2  A    between atoms: C_8  and  S_9
REMARK    3  A    between atoms: S_9  and  C_10
REMARK                            x       y       z     vdW  Elec       q    Type
REMARK                         _______ _______ _______ _____ _____    ______ ____
ROOT
ATOM      1  C   UNL     1       4.771   3.711  18.229  0.00  0.00    +0.000 A 
ATOM      2  C   UNL     1       5.210   4.217  19.442  0.00  0.00    +0.000 A 
ATOM      3  N   UNL     1       6.255   5.059  19.554  0.00  0.00    +0.000 NA
ATOM      4  N   UNL     1       6.927   5.448  18.431  0.00  0.00    +0.000 NA
ATOM      5  C   UNL     1       6.564   5.005  17.220  0.00  0.00    +0.000 A 
ATOM      6  C   UNL     1       7.274   5.427  16.096  0.00  0.00    +0.000 A 
ATOM      7  C   UNL     1       6.942   4.999  14.808  0.00  0.00    +0.000 A 
ATOM      8  C   UNL     1       5.882   4.129  14.631  0.00  0.00    +0.000 A 
ATOM      9  C   UNL     1       5.160   3.698  15.741  0.00  0.00    +0.000 A 
ATOM     10  C   UNL     1       5.476   4.120  17.061  0.00  0.00    +0.000 A 
ENDROOT
BRANCH   1  11
ATOM     11  S   UNL     1       3.380   2.574  18.062  0.00  0.00    +0.000 S 
BRANCH  11  12
ATOM     12  C   UNL     1       1.905   3.594  17.712  0.00  0.00    +0.000 C 
BRANCH  12  19
ATOM     13 CL   UNL     1       1.091   3.468  20.762  0.00  0.00    +0.000 Cl
ATOM     14  C   UNL     1       1.616   4.882  19.919  0.00  0.00    +0.000 A 
ATOM     15  C   UNL     1       1.712   6.070  20.656  0.00  0.00    +0.000 A 
ATOM     16  C   UNL     1       2.144   7.246  20.045  0.00  0.00    +0.000 A 
ATOM     17  C   UNL     1       2.485   7.237  18.696  0.00  0.00    +0.000 A 
ATOM     18  C   UNL     1       2.388   6.054  17.958  0.00  0.00    +0.000 A 
ATOM     19  C   UNL     1       1.944   4.857  18.552  0.00  0.00    +0.000 A 
ENDBRANCH  12  19
ENDBRANCH  11  12
ENDBRANCH   1  11
TORSDOF 3
ENDMDL
MODEL 3
REMARK VINA RESULT:      -7.3      2.144      3.312
REMARK  Name = 
REMARK  3 active torsions:
REMARK  status: ('A' for Active; 'I' for Inactive)
REMARK    1  A    between atoms: C_7  and  C_8
REMARK    2  A    between atoms: C_8  and  S_9
REMARK    3  A    between atoms: S_9  and  C_10
REMARK                            x       y       z     vdW  Elec       q    Type
REMARK                         _______ _______ _______ _____ _____    ______ ____
ROOT
ATOM      1  C   UNL     1       5.243   4.030  16.507  0.00  0.00    +0.000 A 
ATOM      2  C   UNL     1       5.381   4.200  15.139  0.00  0.00    +0.000 A 
ATOM      3  N   UNL     1       6.253   5.067  14.589  0.00  0.00    +0.000 NA
ATOM      4  N   UNL     1       7.051   5.821  15.400  0.00  0.00    +0.000 NA
ATOM      5  C   UNL     1       6.980   5.714  16.734  0.00  0.00    +0.000 A 
ATOM      6  C   UNL     1       7.812   6.501  17.528  0.00  0.00    +0.000 A 
ATOM      7  C   UNL     1       7.783   6.434  18.924  0.00  0.00    +0.000 A 
ATOM      8  C   UNL     1       6.903   5.566  19.546  0.00  0.00    +0.000 A 
ATOM      9  C   UNL     1       6.065   4.772  18.768  0.00  0.00    +0.000 A 
ATOM     10  C   UNL     1       6.077   4.820  17.348  0.00  0.00    +0.000 A 
ENDROOT
BRANCH   1  11
ATOM     11  S   UNL     1       4.072   2.882  17.260  0.00  0.00    +0.000 S 
BRANCH  11  12
ATOM     12  C   UNL     1       2.422   3.658  17.139  0.00  0.00    +0.000 C 
BRANCH  12  19
ATOM     13 CL   UNL     1       1.140   2.514  19.790  0.00  0.00    +0.000 Cl
ATOM     14  C   UNL     1       1.654   4.144  19.546  0.00  0.00    +0.000 A 
ATOM     15  C   UNL     1       1.513   5.031  20.621  0.00  0.00    +0.000 A 
ATOM     16  C   UNL     1       1.923   6.358  20.501  0.00  0.00    +0.000 A 
ATOM     17  C   UNL     1       2.477   6.802  19.304  0.00  0.00    +0.000 A 
ATOM     18  C   UNL     1       2.617   5.921  18.228  0.00  0.00    +0.000 A 
ATOM     19  C   UNL     1       2.201   4.578  18.325  0.00  0.00    +0.000 A 
ENDBRANCH  12  19
ENDBRANCH  11  12
ENDBRANCH   1  11
TORSDOF 3
ENDMDL
MODEL 4
REMARK VINA RESULT:      -7.2      2.266      2.997
REMARK  Name = 
REMARK  3 active torsions:
REMARK  status: ('A' for Active; 'I' for Inactive)
REMARK    1  A    between atoms: C_7  and  C_8
REMARK    2  A    between atoms: C_8  and  S_9
REMARK    3  A    between atoms: S_9  and  C_10
REMARK                            x       y       z     vdW  Elec       q    Type
REMARK                         _______ _______ _______ _____ _____    ______ ____
ROOT
ATOM      1  C   UNL     1       5.598   4.593  15.812  0.00  0.00    +0.000 A 
ATOM      2  C   UNL     1       6.431   5.415  16.553  0.00  0.00    +0.000 A 
ATOM      3  N   UNL     1       7.561   5.958  16.058  0.00  0.00    +0.000 NA
ATOM      4  N   UNL     1       7.919   5.700  14.766  0.00  0.00    +0.000 NA
ATOM      5  C   UNL     1       7.166   4.917  13.982  0.00  0.00    +0.000 A 
ATOM      6  C   UNL     1       7.565   4.679  12.668  0.00  0.00    +0.000 A 
ATOM      7  C   UNL     1       6.821   3.871  11.804  0.00  0.00    +0.000 A 
ATOM      8  C   UNL     1       5.655   3.281  12.258  0.00  0.00    +0.000 A 
ATOM      9  C   UNL     1       5.240   3.508  13.567  0.00  0.00    +0.000 A 
ATOM     10  C   UNL     1       5.977   4.327  14.465  0.00  0.00    +0.000 A 
ENDROOT
BRANCH   1  11
ATOM     11  S   UNL     1       4.088   3.849  16.461  0.00  0.00    +0.000 S 
BRANCH  11  12
ATOM     12  C   UNL     1       3.342   5.075  17.592  0.00  0.00    +0.000 C 
BRANCH  12  19
ATOM     13 CL   UNL     1       2.169   6.735  20.011  0.00  0.00    +0.000 Cl
ATOM     14  C   UNL     1       2.020   5.027  19.798  0.00  0.00    +0.000 A 
ATOM     15  C   UNL     1       1.297   4.319  20.767  0.00  0.00    +0.000 A 
ATOM     16  C   UNL     1       1.122   2.941  20.651  0.00  0.00    +0.000 A 
ATOM     17  C   UNL     1       1.668   2.266  19.563  0.00  0.00    +0.000 A 
ATOM     18  C   UNL     1       2.391   2.969  18.595  0.00  0.00    +0.000 A 
ATOM     19  C   UNL     1       2.588   4.361  18.698  0.00  0.00    +0.000 A 
ENDBRANCH  12  19
ENDBRANCH  11  12
ENDBRANCH   1  11
TORSDOF 3
ENDMDL
MODEL 5
REMARK VINA RESULT:      -7.1      2.148      3.199
REMARK  Name = 
REMARK  3 active torsions:
REMARK  status: ('A' for Active; 'I' for Inactive)
REMARK    1  A    between atoms: C_7  and  C_8
REMARK    2  A    between atoms: C_8  and  S_9
REMARK    3  A    between atoms: S_9  and  C_10
REMARK                            x       y       z     vdW  Elec       q    Type
REMARK                         _______ _______ _______ _____ _____    ______ ____
ROOT
ATOM      1  C   UNL     1       5.343   3.954  16.262  0.00  0.00    +0.000 A 
ATOM      2  C   UNL     1       5.612   4.177  14.921  0.00  0.00    +0.000 A 
ATOM      3  N   UNL     1       6.523   5.072  14.492  0.00  0.00    +0.000 NA
ATOM      4  N   UNL     1       7.229   5.802  15.404  0.00  0.00    +0.000 NA
ATOM      5  C   UNL     1       7.030   5.644  16.720  0.00  0.00    +0.000 A 
ATOM      6  C   UNL     1       7.771   6.407  17.621  0.00  0.00    +0.000 A 
ATOM      7  C   UNL     1       7.607   6.286  19.003  0.00  0.00    +0.000 A 
ATOM      8  C   UNL     1       6.682   5.388  19.503  0.00  0.00    +0.000 A 
ATOM      9  C   UNL     1       5.933   4.617  18.619  0.00  0.00    +0.000 A 
ATOM     10  C   UNL     1       6.082   4.719  17.210  0.00  0.00    +0.000 A 
ENDROOT
BRANCH   1  11
ATOM     11  S   UNL     1       4.119   2.769  16.854  0.00  0.00    +0.000 S 
BRANCH  11  12
ATOM     12  C   UNL     1       2.530   3.665  16.968  0.00  0.00    +0.000 C 
BRANCH  12  19
ATOM     13 CL   UNL     1       2.935   6.549  18.193  0.00  0.00    +0.000 Cl
ATOM     14  C   UNL     1       2.320   5.174  19.039  0.00  0.00    +0.000 A 
ATOM     15  C   UNL     1       1.946   5.358  20.377  0.00  0.00    +0.000 A 
ATOM     16  C   UNL     1       1.426   4.297  21.117  0.00  0.00    +0.000 A 
ATOM     17  C   UNL     1       1.276   3.049  20.521  0.00  0.00    +0.000 A 
ATOM     18  C   UNL     1       1.650   2.862  19.187  0.00  0.00    +0.000 A 
ATOM     19  C   UNL     1       2.187   3.917  18.424  0.00  0.00    +0.000 A 
ENDBRANCH  12  19
ENDBRANCH  11  12
ENDBRANCH   1  11
TORSDOF 3
ENDMDL
MODEL 6
REMARK VINA RESULT:      -7.0      1.064      1.202
REMARK  Name = 
REMARK  3 active torsions:
REMARK  status: ('A' for Active; 'I' for Inactive)
REMARK    1  A    between atoms: C_7  and  C_8
REMARK    2  A    between atoms: C_8  and  S_9
REMARK    3  A    between atoms: S_9  and  C_10
REMARK                            x       y       z     vdW  Elec       q    Type
REMARK                         _______ _______ _______ _____ _____    ______ ____
ROOT
ATOM      1  C   UNL     1       4.763   5.800  18.254  0.00  0.00    +0.000 A 
ATOM      2  C   UNL     1       5.375   5.554  19.472  0.00  0.00    +0.000 A 
ATOM      3  N   UNL     1       6.577   4.957  19.586  0.00  0.00    +0.000 NA
ATOM      4  N   UNL     1       7.244   4.572  18.458  0.00  0.00    +0.000 NA
ATOM      5  C   UNL     1       6.721   4.776  17.241  0.00  0.00    +0.000 A 
ATOM      6  C   UNL     1       7.433   4.369  16.114  0.00  0.00    +0.000 A 
ATOM      7  C   UNL     1       6.939   4.555  14.820  0.00  0.00    +0.000 A 
ATOM      8  C   UNL     1       5.706   5.157  14.641  0.00  0.00    +0.000 A 
ATOM      9  C   UNL     1       4.982   5.571  15.755  0.00  0.00    +0.000 A 
ATOM     10  C   UNL     1       5.462   5.395  17.081  0.00  0.00    +0.000 A 
ENDROOT
BRANCH   1  11
ATOM     11  S   UNL     1       3.148   6.587  18.085  0.00  0.00    +0.000 S 
BRANCH  11  12
ATOM     12  C   UNL     1       2.329   6.463  19.713  0.00  0.00    +0.000 C 
BRANCH  12  19
ATOM     13 CL   UNL     1       1.232   4.576  17.429  0.00  0.00    +0.000 Cl
ATOM     14  C   UNL     1       1.549   4.101  19.059  0.00  0.00    +0.000 A 
ATOM     15  C   UNL     1       1.323   2.758  19.393  0.00  0.00    +0.000 A 
ATOM     16  C   UNL     1       1.573   2.301  20.685  0.00  0.00    +0.000 A 
ATOM     17  C   UNL     1       2.052   3.184  21.649  0.00  0.00    +0.000 A 
ATOM     18  C   UNL     1       2.276   4.523  21.320  0.00  0.00    +0.000 A 
ATOM     19  C   UNL     1       2.021   5.010  20.022  0.00  0.00    +0.000 A 
ENDBRANCH  12  19
ENDBRANCH  11  12
ENDBRANCH   1  11
TORSDOF 3
ENDMDL
MODEL 7
REMARK VINA RESULT:      -7.0      1.812      2.489
REMARK  Name = 
REMARK  3 active torsions:
REMARK  status: ('A' for Active; 'I' for Inactive)
REMARK    1  A    between atoms: C_7  and  C_8
REMARK    2  A    between atoms: C_8  and  S_9
REMARK    3  A    between atoms: S_9  and  C_10
REMARK                            x       y       z     vdW  Elec       q    Type
REMARK                         _______ _______ _______ _____ _____    ______ ____
ROOT
ATOM      1  C   UNL     1       5.260   4.927  16.111  0.00  0.00    +0.000 A 
ATOM      2  C   UNL     1       6.134   5.696  16.861  0.00  0.00    +0.000 A 
ATOM      3  N   UNL     1       7.349   6.074  16.418  0.00  0.00    +0.000 NA
ATOM      4  N   UNL     1       7.756   5.695  15.171  0.00  0.00    +0.000 NA
ATOM      5  C   UNL     1       6.967   4.953  14.382  0.00  0.00    +0.000 A 
ATOM      6  C   UNL     1       7.417   4.587  13.114  0.00  0.00    +0.000 A 
ATOM      7  C   UNL     1       6.640   3.814  12.247  0.00  0.00    +0.000 A 
ATOM      8  C   UNL     1       5.386   3.391  12.651  0.00  0.00    +0.000 A 
ATOM      9  C   UNL     1       4.920   3.747  13.912  0.00  0.00    +0.000 A 
ATOM     10  C   UNL     1       5.689   4.534  14.812  0.00  0.00    +0.000 A 
ENDROOT
BRANCH   1  11
ATOM     11  S   UNL     1       3.634   4.403  16.695  0.00  0.00    +0.000 S 
BRANCH  11  12
ATOM     12  C   UNL     1       3.900   2.917  17.725  0.00  0.00    +0.000 C 
BRANCH  12  19
ATOM     13 CL   UNL     1       4.974   1.855  20.499  0.00  0.00    +0.000 Cl
ATOM     14  C   UNL     1       3.414   2.542  20.223  0.00  0.00    +0.000 A 
ATOM     15  C   UNL     1       2.559   2.662  21.327  0.00  0.00    +0.000 A 
ATOM     16  C   UNL     1       1.292   3.223  21.181  0.00  0.00    +0.000 A 
ATOM     17  C   UNL     1       0.875   3.668  19.930  0.00  0.00    +0.000 A 
ATOM     18  C   UNL     1       1.724   3.549  18.826  0.00  0.00    +0.000 A 
ATOM     19  C   UNL     1       3.006   2.976  18.949  0.00  0.00    +0.000 A 
ENDBRANCH  12  19
ENDBRANCH  11  12
ENDBRANCH   1  11
TORSDOF 3
ENDMDL
MODEL 8
REMARK VINA RESULT:      -7.0      1.341      1.709
REMARK  Name = 
REMARK  3 active torsions:
REMARK  status: ('A' for Active; 'I' for Inactive)
REMARK    1  A    between atoms: C_7  and  C_8
REMARK    2  A    between atoms: C_8  and  S_9
REMARK    3  A    between atoms: S_9  and  C_10
REMARK                            x       y       z     vdW  Elec       q    Type
REMARK                         _______ _______ _______ _____ _____    ______ ____
ROOT
ATOM      1  C   UNL     1       4.853   5.865  18.194  0.00  0.00    +0.000 A 
ATOM      2  C   UNL     1       5.464   5.532  19.392  0.00  0.00    +0.000 A 
ATOM      3  N   UNL     1       6.616   4.838  19.463  0.00  0.00    +0.000 NA
ATOM      4  N   UNL     1       7.230   4.437  18.311  0.00  0.00    +0.000 NA
ATOM      5  C   UNL     1       6.704   4.721  17.112  0.00  0.00    +0.000 A 
ATOM      6  C   UNL     1       7.362   4.295  15.959  0.00  0.00    +0.000 A 
ATOM      7  C   UNL     1       6.862   4.561  14.681  0.00  0.00    +0.000 A 
ATOM      8  C   UNL     1       5.679   5.265  14.545  0.00  0.00    +0.000 A 
ATOM      9  C   UNL     1       5.009   5.699  15.686  0.00  0.00    +0.000 A 
ATOM     10  C   UNL     1       5.497   5.443  16.996  0.00  0.00    +0.000 A 
ENDROOT
BRANCH   1  11
ATOM     11  S   UNL     1       3.304   6.784  18.081  0.00  0.00    +0.000 S 
BRANCH  11  12
ATOM     12  C   UNL     1       1.975   5.550  17.856  0.00  0.00    +0.000 C 
BRANCH  12  19
ATOM     13 CL   UNL     1       1.491   6.479  20.836  0.00  0.00    +0.000 Cl
ATOM     14  C   UNL     1       1.805   4.859  20.327  0.00  0.00    +0.000 A 
ATOM     15  C   UNL     1       1.822   3.866  21.317  0.00  0.00    +0.000 A 
ATOM     16  C   UNL     1       2.052   2.534  20.976  0.00  0.00    +0.000 A 
ATOM     17  C   UNL     1       2.263   2.189  19.645  0.00  0.00    +0.000 A 
ATOM     18  C   UNL     1       2.247   3.177  18.656  0.00  0.00    +0.000 A 
ATOM     19  C   UNL     1       2.027   4.530  18.978  0.00  0.00    +0.000 A 
ENDBRANCH  12  19
ENDBRANCH  11  12
ENDBRANCH   1  11
TORSDOF 3
ENDMDL
MODEL 9
REMARK VINA RESULT:      -7.0      1.421      1.888
REMARK  Name = 
REMARK  3 active torsions:
REMARK  status: ('A' for Active; 'I' for Inactive)
REMARK    1  A    between atoms: C_7  and  C_8
REMARK    2  A    between atoms: C_8  and  S_9
REMARK    3  A    between atoms: S_9  and  C_10
REMARK                            x       y       z     vdW  Elec       q    Type
REMARK                         _______ _______ _______ _____ _____    ______ ____
ROOT
ATOM      1  C   UNL     1       5.509   5.705  18.483  0.00  0.00    +0.000 A 
ATOM      2  C   UNL     1       6.549   5.561  19.387  0.00  0.00    +0.000 A 
ATOM      3  N   UNL     1       7.729   4.994  19.069  0.00  0.00    +0.000 NA
ATOM      4  N   UNL     1       7.932   4.536  17.799  0.00  0.00    +0.000 NA
ATOM      5  C   UNL     1       6.977   4.641  16.864  0.00  0.00    +0.000 A 
ATOM      6  C   UNL     1       7.224   4.163  15.578  0.00  0.00    +0.000 A 
ATOM      7  C   UNL     1       6.267   4.244  14.563  0.00  0.00    +0.000 A 
ATOM      8  C   UNL     1       5.034   4.810  14.832  0.00  0.00    +0.000 A 
ATOM      9  C   UNL     1       4.770   5.294  16.110  0.00  0.00    +0.000 A 
ATOM     10  C   UNL     1       5.726   5.225  17.159  0.00  0.00    +0.000 A 
ENDROOT
BRANCH   1  11
ATOM     11  S   UNL     1       3.918   6.451  18.895  0.00  0.00    +0.000 S 
BRANCH  11  12
ATOM     12  C   UNL     1       3.046   5.265  19.977  0.00  0.00    +0.000 C 
BRANCH  12  19
ATOM     13 CL   UNL     1       1.323   4.469  17.452  0.00  0.00    +0.000 Cl
ATOM     14  C   UNL     1       2.443   3.438  18.269  0.00  0.00    +0.000 A 
ATOM     15  C   UNL     1       2.621   2.147  17.756  0.00  0.00    +0.000 A 
ATOM     16  C   UNL     1       3.522   1.267  18.355  0.00  0.00    +0.000 A 
ATOM     17  C   UNL     1       4.248   1.677  19.468  0.00  0.00    +0.000 A 
ATOM     18  C   UNL     1       4.071   2.964  19.984  0.00  0.00    +0.000 A 
ATOM     19  C   UNL     1       3.160   3.866  19.401  0.00  0.00    +0.000 A 
ENDBRANCH  12  19
ENDBRANCH  11  12
ENDBRANCH   1  11
TORSDOF 3
ENDMDL
