MODEL 1
REMARK VINA RESULT:      -7.2      0.000      0.000
REMARK  Name = 
REMARK  4 active torsions:
REMARK  status: ('A' for Active; 'I' for Inactive)
REMARK    1  A    between atoms: C_1  and  C_2
REMARK    2  A    between atoms: C_3  and  C_4
REMARK    3  A    between atoms: N_5  and  C_6
REMARK    4  A    between atoms: C_6  and  C_7
REMARK                            x       y       z     vdW  Elec       q    Type
REMARK                         _______ _______ _______ _____ _____    ______ ____
ROOT
ATOM      1  C   UNL     1       4.685   3.509  15.406  0.00  0.00    +0.000 C 
ATOM      2  C   UNL     1       4.643   4.142  16.752  0.00  0.00    +0.000 A 
ATOM      3  C   UNL     1       3.525   4.336  17.555  0.00  0.00    +0.000 A 
ATOM      4  C   UNL     1       2.095   3.990  17.309  0.00  0.00    +0.000 C 
ATOM      5  N   UNL     1       3.940   4.981  18.711  0.00  0.00    +0.000 N 
ATOM      6  C   UNL     1       5.315   5.115  18.695  0.00  0.00    +0.000 A 
ATOM      7  N   UNL     1       6.081   5.626  19.679  0.00  0.00    +0.000 NA
ATOM      8  C   UNL     1       7.377   5.706  19.318  0.00  0.00    +0.000 A 
ATOM      9  N   UNL     1       7.942   5.347  18.150  0.00  0.00    +0.000 NA
ATOM     10  C   UNL     1       7.154   4.831  17.199  0.00  0.00    +0.000 A 
ATOM     11  N   UNL     1       7.762   4.493  16.000  0.00  0.00    +0.000 N 
ATOM     12  C   UNL     1       5.772   4.674  17.462  0.00  0.00    +0.000 A 
ATOM     13  H   UNL     1       8.767   4.437  16.111  0.00  0.00    +0.000 HD
ATOM     14  H   UNL     1       7.323   3.759  15.467  0.00  0.00    +0.000 HD
ENDROOT
BRANCH   5  15
ATOM     15  C   UNL     1       3.056   5.370  19.812  0.00  0.00    +0.000 C 
BRANCH  15  16
ATOM     16  C   UNL     1       2.489   6.772  19.701  0.00  0.00    +0.000 A 
ATOM     17  C   UNL     1       2.564   7.485  18.489  0.00  0.00    +0.000 A 
ATOM     18  C   UNL     1       1.910   8.712  18.335  0.00  0.00    +0.000 A 
ATOM     19  C   UNL     1       1.162   9.231  19.388  0.00  0.00    +0.000 A 
ATOM     20 BR   UNL     1       0.192  10.837  19.152  0.00  0.00    +0.000 Br
ATOM     21  C   UNL     1       1.098   8.556  20.604  0.00  0.00    +0.000 A 
ATOM     22  C   UNL     1       1.767   7.338  20.762  0.00  0.00    +0.000 A 
ENDBRANCH  15  16
ENDBRANCH   5  15
TORSDOF 2
ENDMDL
MODEL 2
REMARK VINA RESULT:      -7.0      0.203      1.098
REMARK  Name = 
REMARK  4 active torsions:
REMARK  status: ('A' for Active; 'I' for Inactive)
REMARK    1  A    between atoms: C_1  and  C_2
REMARK    2  A    between atoms: C_3  and  C_4
REMARK    3  A    between atoms: N_5  and  C_6
REMARK    4  A    between atoms: C_6  and  C_7
REMARK                            x       y       z     vdW  Elec       q    Type
REMARK                         _______ _______ _______ _____ _____    ______ ____
ROOT
ATOM      1  C   UNL     1       4.739   3.309  15.517  0.00  0.00    +0.000 C 
ATOM      2  C   UNL     1       4.691   3.988  16.841  0.00  0.00    +0.000 A 
ATOM      3  C   UNL     1       3.580   4.157  17.659  0.00  0.00    +0.000 A 
ATOM      4  C   UNL     1       2.165   3.733  17.454  0.00  0.00    +0.000 C 
ATOM      5  N   UNL     1       3.985   4.862  18.783  0.00  0.00    +0.000 N 
ATOM      6  C   UNL     1       5.350   5.061  18.735  0.00  0.00    +0.000 A 
ATOM      7  N   UNL     1       6.109   5.644  19.684  0.00  0.00    +0.000 NA
ATOM      8  C   UNL     1       7.392   5.772  19.295  0.00  0.00    +0.000 A 
ATOM      9  N   UNL     1       7.953   5.399  18.130  0.00  0.00    +0.000 NA
ATOM     10  C   UNL     1       7.174   4.812  17.213  0.00  0.00    +0.000 A 
ATOM     11  N   UNL     1       7.775   4.461  16.014  0.00  0.00    +0.000 N 
ATOM     12  C   UNL     1       5.806   4.599  17.509  0.00  0.00    +0.000 A 
ATOM     13  H   UNL     1       8.784   4.458  16.107  0.00  0.00    +0.000 HD
ATOM     14  H   UNL     1       7.363   3.688  15.516  0.00  0.00    +0.000 HD
ENDROOT
BRANCH   5  15
ATOM     15  C   UNL     1       3.103   5.247  19.887  0.00  0.00    +0.000 C 
BRANCH  15  16
ATOM     16  C   UNL     1       2.390   6.571  19.694  0.00  0.00    +0.000 A 
ATOM     17  C   UNL     1       1.711   7.185  20.763  0.00  0.00    +0.000 A 
ATOM     18  C   UNL     1       1.184   8.476  20.633  0.00  0.00    +0.000 A 
ATOM     19  C   UNL     1       1.343   9.169  19.437  0.00  0.00    +0.000 A 
ATOM     20 BR   UNL     1       0.725  10.949  19.289  0.00  0.00    +0.000 Br
ATOM     21  C   UNL     1       1.986   8.567  18.358  0.00  0.00    +0.000 A 
ATOM     22  C   UNL     1       2.498   7.272  18.483  0.00  0.00    +0.000 A 
ENDBRANCH  15  16
ENDBRANCH   5  15
TORSDOF 2
ENDMDL
MODEL 3
REMARK VINA RESULT:      -6.8      2.184      3.381
REMARK  Name = 
REMARK  4 active torsions:
REMARK  status: ('A' for Active; 'I' for Inactive)
REMARK    1  A    between atoms: C_1  and  C_2
REMARK    2  A    between atoms: C_3  and  C_4
REMARK    3  A    between atoms: N_5  and  C_6
REMARK    4  A    between atoms: C_6  and  C_7
REMARK                            x       y       z     vdW  Elec       q    Type
REMARK                         _______ _______ _______ _____ _____    ______ ____
ROOT
ATOM      1  C   UNL     1       6.813   4.565  18.337  0.00  0.00    +0.000 C 
ATOM      2  C   UNL     1       5.390   4.990  18.239  0.00  0.00    +0.000 A 
ATOM      3  C   UNL     1       4.905   6.195  17.744  0.00  0.00    +0.000 A 
ATOM      4  C   UNL     1       5.640   7.373  17.199  0.00  0.00    +0.000 C 
ATOM      5  N   UNL     1       3.523   6.176  17.861  0.00  0.00    +0.000 N 
ATOM      6  C   UNL     1       3.118   4.943  18.334  0.00  0.00    +0.000 A 
ATOM      7  N   UNL     1       1.847   4.531  18.507  0.00  0.00    +0.000 NA
ATOM      8  C   UNL     1       1.787   3.309  19.074  0.00  0.00    +0.000 A 
ATOM      9  N   UNL     1       2.804   2.515  19.456  0.00  0.00    +0.000 NA
ATOM     10  C   UNL     1       4.055   2.951  19.257  0.00  0.00    +0.000 A 
ATOM     11  N   UNL     1       5.080   2.121  19.684  0.00  0.00    +0.000 N 
ATOM     12  C   UNL     1       4.255   4.213  18.649  0.00  0.00    +0.000 A 
ATOM     13  H   UNL     1       4.737   1.180  19.842  0.00  0.00    +0.000 HD
ATOM     14  H   UNL     1       5.958   2.207  19.196  0.00  0.00    +0.000 HD
ENDROOT
BRANCH   5  15
ATOM     15  C   UNL     1       2.638   7.269  17.453  0.00  0.00    +0.000 C 
BRANCH  15  16
ATOM     16  C   UNL     1       2.090   8.098  18.599  0.00  0.00    +0.000 A 
ATOM     17  C   UNL     1       1.487   9.347  18.358  0.00  0.00    +0.000 A 
ATOM     18  C   UNL     1       0.843  10.045  19.387  0.00  0.00    +0.000 A 
ATOM     19  C   UNL     1       0.786   9.493  20.664  0.00  0.00    +0.000 A 
ATOM     20 BR   UNL     1      -0.169  10.381  22.032  0.00  0.00    +0.000 Br
ATOM     21  C   UNL     1       1.402   8.272  20.929  0.00  0.00    +0.000 A 
ATOM     22  C   UNL     1       2.058   7.584  19.904  0.00  0.00    +0.000 A 
ENDBRANCH  15  16
ENDBRANCH   5  15
TORSDOF 2
ENDMDL
MODEL 4
REMARK VINA RESULT:      -6.7      1.007      1.475
REMARK  Name = 
REMARK  4 active torsions:
REMARK  status: ('A' for Active; 'I' for Inactive)
REMARK    1  A    between atoms: C_1  and  C_2
REMARK    2  A    between atoms: C_3  and  C_4
REMARK    3  A    between atoms: N_5  and  C_6
REMARK    4  A    between atoms: C_6  and  C_7
REMARK                            x       y       z     vdW  Elec       q    Type
REMARK                         _______ _______ _______ _____ _____    ______ ____
ROOT
ATOM      1  C   UNL     1       4.873   3.576  14.741  0.00  0.00    +0.000 C 
ATOM      2  C   UNL     1       4.880   4.296  16.043  0.00  0.00    +0.000 A 
ATOM      3  C   UNL     1       3.918   4.234  17.044  0.00  0.00    +0.000 A 
ATOM      4  C   UNL     1       2.641   3.465  17.100  0.00  0.00    +0.000 C 
ATOM      5  N   UNL     1       4.316   5.081  18.068  0.00  0.00    +0.000 N 
ATOM      6  C   UNL     1       5.559   5.606  17.774  0.00  0.00    +0.000 A 
ATOM      7  N   UNL     1       6.296   6.410  18.565  0.00  0.00    +0.000 NA
ATOM      8  C   UNL     1       7.421   6.827  17.952  0.00  0.00    +0.000 A 
ATOM      9  N   UNL     1       7.852   6.537  16.710  0.00  0.00    +0.000 NA
ATOM     10  C   UNL     1       7.102   5.724  15.956  0.00  0.00    +0.000 A 
ATOM     11  N   UNL     1       7.560   5.464  14.673  0.00  0.00    +0.000 N 
ATOM     12  C   UNL     1       5.902   5.200  16.493  0.00  0.00    +0.000 A 
ATOM     13  H   UNL     1       8.538   5.713  14.585  0.00  0.00    +0.000 HD
ATOM     14  H   UNL     1       7.278   4.586  14.267  0.00  0.00    +0.000 HD
ENDROOT
BRANCH   5  15
ATOM     15  C   UNL     1       3.566   5.300  19.306  0.00  0.00    +0.000 C 
BRANCH  15  16
ATOM     16  C   UNL     1       2.695   6.541  19.305  0.00  0.00    +0.000 A 
ATOM     17  C   UNL     1       2.022   6.950  20.473  0.00  0.00    +0.000 A 
ATOM     18  C   UNL     1       1.344   8.173  20.520  0.00  0.00    +0.000 A 
ATOM     19  C   UNL     1       1.342   9.005  19.404  0.00  0.00    +0.000 A 
ATOM     20 BR   UNL     1       0.515  10.702  19.496  0.00  0.00    +0.000 Br
ATOM     21  C   UNL     1       1.975   8.606  18.231  0.00  0.00    +0.000 A 
ATOM     22  C   UNL     1       2.639   7.376  18.179  0.00  0.00    +0.000 A 
ENDBRANCH  15  16
ENDBRANCH   5  15
TORSDOF 2
ENDMDL
MODEL 5
REMARK VINA RESULT:      -6.7      1.234      1.469
REMARK  Name = 
REMARK  4 active torsions:
REMARK  status: ('A' for Active; 'I' for Inactive)
REMARK    1  A    between atoms: C_1  and  C_2
REMARK    2  A    between atoms: C_3  and  C_4
REMARK    3  A    between atoms: N_5  and  C_6
REMARK    4  A    between atoms: C_6  and  C_7
REMARK                            x       y       z     vdW  Elec       q    Type
REMARK                         _______ _______ _______ _____ _____    ______ ____
ROOT
ATOM      1  C   UNL     1       2.783   2.286  17.038  0.00  0.00    +0.000 C 
ATOM      2  C   UNL     1       3.133   3.381  17.983  0.00  0.00    +0.000 A 
ATOM      3  C   UNL     1       2.320   3.937  18.964  0.00  0.00    +0.000 A 
ATOM      4  C   UNL     1       0.911   3.619  19.335  0.00  0.00    +0.000 C 
ATOM      5  N   UNL     1       3.041   4.941  19.594  0.00  0.00    +0.000 N 
ATOM      6  C   UNL     1       4.328   4.967  19.092  0.00  0.00    +0.000 A 
ATOM      7  N   UNL     1       5.334   5.760  19.511  0.00  0.00    +0.000 NA
ATOM      8  C   UNL     1       6.440   5.611  18.755  0.00  0.00    +0.000 A 
ATOM      9  N   UNL     1       6.625   4.803  17.695  0.00  0.00    +0.000 NA
ATOM     10  C   UNL     1       5.608   4.019  17.314  0.00  0.00    +0.000 A 
ATOM     11  N   UNL     1       5.822   3.216  16.205  0.00  0.00    +0.000 N 
ATOM     12  C   UNL     1       4.394   4.065  18.041  0.00  0.00    +0.000 A 
ATOM     13  H   UNL     1       6.812   3.139  16.003  0.00  0.00    +0.000 HD
ATOM     14  H   UNL     1       5.283   2.365  16.158  0.00  0.00    +0.000 HD
ENDROOT
BRANCH   5  15
ATOM     15  C   UNL     1       2.532   5.773  20.686  0.00  0.00    +0.000 C 
BRANCH  15  16
ATOM     16  C   UNL     1       2.059   7.150  20.262  0.00  0.00    +0.000 A 
ATOM     17  C   UNL     1       2.289   7.619  18.954  0.00  0.00    +0.000 A 
ATOM     18  C   UNL     1       1.723   8.820  18.511  0.00  0.00    +0.000 A 
ATOM     19  C   UNL     1       0.911   9.557  19.368  0.00  0.00    +0.000 A 
ATOM     20 BR   UNL     1       0.061  11.126  18.743  0.00  0.00    +0.000 Br
ATOM     21  C   UNL     1       0.695   9.126  20.674  0.00  0.00    +0.000 A 
ATOM     22  C   UNL     1       1.274   7.934  21.120  0.00  0.00    +0.000 A 
ENDBRANCH  15  16
ENDBRANCH   5  15
TORSDOF 2
ENDMDL
MODEL 6
REMARK VINA RESULT:      -6.7      3.091      5.355
REMARK  Name = 
REMARK  4 active torsions:
REMARK  status: ('A' for Active; 'I' for Inactive)
REMARK    1  A    between atoms: C_1  and  C_2
REMARK    2  A    between atoms: C_3  and  C_4
REMARK    3  A    between atoms: N_5  and  C_6
REMARK    4  A    between atoms: C_6  and  C_7
REMARK                            x       y       z     vdW  Elec       q    Type
REMARK                         _______ _______ _______ _____ _____    ______ ____
ROOT
ATOM      1  C   UNL     1       1.239   5.609  20.517  0.00  0.00    +0.000 C 
ATOM      2  C   UNL     1       2.429   4.983  19.879  0.00  0.00    +0.000 A 
ATOM      3  C   UNL     1       3.119   5.435  18.761  0.00  0.00    +0.000 A 
ATOM      4  C   UNL     1       2.872   6.628  17.900  0.00  0.00    +0.000 C 
ATOM      5  N   UNL     1       4.144   4.537  18.503  0.00  0.00    +0.000 N 
ATOM      6  C   UNL     1       4.172   3.575  19.493  0.00  0.00    +0.000 A 
ATOM      7  N   UNL     1       5.073   2.581  19.617  0.00  0.00    +0.000 NA
ATOM      8  C   UNL     1       4.772   1.752  20.636  0.00  0.00    +0.000 A 
ATOM      9  N   UNL     1       3.730   1.817  21.485  0.00  0.00    +0.000 NA
ATOM     10  C   UNL     1       2.860   2.825  21.341  0.00  0.00    +0.000 A 
ATOM     11  N   UNL     1       1.784   2.851  22.215  0.00  0.00    +0.000 N 
ATOM     12  C   UNL     1       3.076   3.779  20.318  0.00  0.00    +0.000 A 
ATOM     13  H   UNL     1       1.957   2.251  23.013  0.00  0.00    +0.000 HD
ATOM     14  H   UNL     1       1.385   3.756  22.407  0.00  0.00    +0.000 HD
ENDROOT
BRANCH   5  15
ATOM     15  C   UNL     1       5.098   4.657  17.399  0.00  0.00    +0.000 C 
BRANCH  15  16
ATOM     16  C   UNL     1       6.145   5.739  17.584  0.00  0.00    +0.000 A 
ATOM     17  C   UNL     1       6.054   6.955  16.880  0.00  0.00    +0.000 A 
ATOM     18  C   UNL     1       6.926   8.014  17.160  0.00  0.00    +0.000 A 
ATOM     19  C   UNL     1       7.888   7.870  18.155  0.00  0.00    +0.000 A 
ATOM     20 BR   UNL     1       9.000   9.330  18.608  0.00  0.00    +0.000 Br
ATOM     21  C   UNL     1       8.013   6.665  18.842  0.00  0.00    +0.000 A 
ATOM     22  C   UNL     1       7.152   5.603  18.550  0.00  0.00    +0.000 A 
ENDBRANCH  15  16
ENDBRANCH   5  15
TORSDOF 2
ENDMDL
MODEL 7
REMARK VINA RESULT:      -6.7      3.415      6.273
REMARK  Name = 
REMARK  4 active torsions:
REMARK  status: ('A' for Active; 'I' for Inactive)
REMARK    1  A    between atoms: C_1  and  C_2
REMARK    2  A    between atoms: C_3  and  C_4
REMARK    3  A    between atoms: N_5  and  C_6
REMARK    4  A    between atoms: C_6  and  C_7
REMARK                            x       y       z     vdW  Elec       q    Type
REMARK                         _______ _______ _______ _____ _____    ______ ____
ROOT
ATOM      1  C   UNL     1       2.217   7.088  19.057  0.00  0.00    +0.000 C 
ATOM      2  C   UNL     1       3.292   6.066  18.935  0.00  0.00    +0.000 A 
ATOM      3  C   UNL     1       4.474   6.171  18.211  0.00  0.00    +0.000 A 
ATOM      4  C   UNL     1       4.986   7.291  17.370  0.00  0.00    +0.000 C 
ATOM      5  N   UNL     1       5.169   4.980  18.359  0.00  0.00    +0.000 N 
ATOM      6  C   UNL     1       4.492   4.159  19.239  0.00  0.00    +0.000 A 
ATOM      7  N   UNL     1       4.899   2.953  19.682  0.00  0.00    +0.000 NA
ATOM      8  C   UNL     1       3.969   2.362  20.459  0.00  0.00    +0.000 A 
ATOM      9  N   UNL     1       2.757   2.828  20.813  0.00  0.00    +0.000 NA
ATOM     10  C   UNL     1       2.390   4.036  20.365  0.00  0.00    +0.000 A 
ATOM     11  N   UNL     1       1.127   4.478  20.727  0.00  0.00    +0.000 N 
ATOM     12  C   UNL     1       3.288   4.771  19.555  0.00  0.00    +0.000 A 
ATOM     13  H   UNL     1       0.766   3.935  21.503  0.00  0.00    +0.000 HD
ATOM     14  H   UNL     1       0.999   5.476  20.774  0.00  0.00    +0.000 HD
ENDROOT
BRANCH   5  15
ATOM     15  C   UNL     1       6.466   4.691  17.744  0.00  0.00    +0.000 C 
BRANCH  15  16
ATOM     16  C   UNL     1       6.431   4.547  16.235  0.00  0.00    +0.000 A 
ATOM     17  C   UNL     1       7.403   5.172  15.430  0.00  0.00    +0.000 A 
ATOM     18  C   UNL     1       7.468   4.919  14.055  0.00  0.00    +0.000 A 
ATOM     19  C   UNL     1       6.568   4.030  13.474  0.00  0.00    +0.000 A 
ATOM     20 BR   UNL     1       6.716   3.606  11.638  0.00  0.00    +0.000 Br
ATOM     21  C   UNL     1       5.581   3.425  14.247  0.00  0.00    +0.000 A 
ATOM     22  C   UNL     1       5.507   3.691  15.618  0.00  0.00    +0.000 A 
ENDBRANCH  15  16
ENDBRANCH   5  15
TORSDOF 2
ENDMDL
MODEL 8
REMARK VINA RESULT:      -6.6      2.070      3.503
REMARK  Name = 
REMARK  4 active torsions:
REMARK  status: ('A' for Active; 'I' for Inactive)
REMARK    1  A    between atoms: C_1  and  C_2
REMARK    2  A    between atoms: C_3  and  C_4
REMARK    3  A    between atoms: N_5  and  C_6
REMARK    4  A    between atoms: C_6  and  C_7
REMARK                            x       y       z     vdW  Elec       q    Type
REMARK                         _______ _______ _______ _____ _____    ______ ____
ROOT
ATOM      1  C   UNL     1       6.946   4.494  18.644  0.00  0.00    +0.000 C 
ATOM      2  C   UNL     1       5.575   4.973  18.319  0.00  0.00    +0.000 A 
ATOM      3  C   UNL     1       5.217   6.216  17.808  0.00  0.00    +0.000 A 
ATOM      4  C   UNL     1       6.068   7.390  17.460  0.00  0.00    +0.000 C 
ATOM      5  N   UNL     1       3.837   6.240  17.680  0.00  0.00    +0.000 N 
ATOM      6  C   UNL     1       3.322   5.002  18.012  0.00  0.00    +0.000 A 
ATOM      7  N   UNL     1       2.030   4.626  17.938  0.00  0.00    +0.000 NA
ATOM      8  C   UNL     1       1.838   3.384  18.424  0.00  0.00    +0.000 A 
ATOM      9  N   UNL     1       2.750   2.538  18.938  0.00  0.00    +0.000 NA
ATOM     10  C   UNL     1       4.027   2.938  18.984  0.00  0.00    +0.000 A 
ATOM     11  N   UNL     1       4.938   2.055  19.542  0.00  0.00    +0.000 N 
ATOM     12  C   UNL     1       4.364   4.219  18.485  0.00  0.00    +0.000 A 
ATOM     13  H   UNL     1       4.548   1.121  19.590  0.00  0.00    +0.000 HD
ATOM     14  H   UNL     1       5.890   2.132  19.221  0.00  0.00    +0.000 HD
ENDROOT
BRANCH   5  15
ATOM     15  C   UNL     1       3.066   7.379  17.178  0.00  0.00    +0.000 C 
BRANCH  15  16
ATOM     16  C   UNL     1       2.195   8.059  18.218  0.00  0.00    +0.000 A 
ATOM     17  C   UNL     1       2.203   7.625  19.557  0.00  0.00    +0.000 A 
ATOM     18  C   UNL     1       1.522   8.341  20.548  0.00  0.00    +0.000 A 
ATOM     19  C   UNL     1       0.838   9.506  20.211  0.00  0.00    +0.000 A 
ATOM     20 BR   UNL     1       0.004  10.533  21.561  0.00  0.00    +0.000 Br
ATOM     21  C   UNL     1       0.795   9.936  18.887  0.00  0.00    +0.000 A 
ATOM     22  C   UNL     1       1.461   9.210  17.895  0.00  0.00    +0.000 A 
ENDBRANCH  15  16
ENDBRANCH   5  15
TORSDOF 2
ENDMDL
MODEL 9
REMARK VINA RESULT:      -6.6      2.382      3.824
REMARK  Name = 
REMARK  4 active torsions:
REMARK  status: ('A' for Active; 'I' for Inactive)
REMARK    1  A    between atoms: C_1  and  C_2
REMARK    2  A    between atoms: C_3  and  C_4
REMARK    3  A    between atoms: N_5  and  C_6
REMARK    4  A    between atoms: C_6  and  C_7
REMARK                            x       y       z     vdW  Elec       q    Type
REMARK                         _______ _______ _______ _____ _____    ______ ____
ROOT
ATOM      1  C   UNL     1       4.299   3.820  16.457  0.00  0.00    +0.000 C 
ATOM      2  C   UNL     1       3.650   4.522  17.598  0.00  0.00    +0.000 A 
ATOM      3  C   UNL     1       3.869   5.831  18.014  0.00  0.00    +0.000 A 
ATOM      4  C   UNL     1       4.788   6.870  17.467  0.00  0.00    +0.000 C 
ATOM      5  N   UNL     1       3.071   6.061  19.125  0.00  0.00    +0.000 N 
ATOM      6  C   UNL     1       2.283   4.953  19.363  0.00  0.00    +0.000 A 
ATOM      7  N   UNL     1       1.334   4.834  20.313  0.00  0.00    +0.000 NA
ATOM      8  C   UNL     1       0.808   3.594  20.348  0.00  0.00    +0.000 A 
ATOM      9  N   UNL     1       1.117   2.534  19.578  0.00  0.00    +0.000 NA
ATOM     10  C   UNL     1       2.055   2.690  18.636  0.00  0.00    +0.000 A 
ATOM     11  N   UNL     1       2.368   1.573  17.876  0.00  0.00    +0.000 N 
ATOM     12  C   UNL     1       2.672   3.955  18.482  0.00  0.00    +0.000 A 
ATOM     13  H   UNL     1       1.647   0.867  17.964  0.00  0.00    +0.000 HD
ATOM     14  H   UNL     1       2.720   1.748  16.948  0.00  0.00    +0.000 HD
ENDROOT
BRANCH   5  15
ATOM     15  C   UNL     1       3.017   7.324  19.864  0.00  0.00    +0.000 C 
BRANCH  15  16
ATOM     16  C   UNL     1       1.861   8.229  19.483  0.00  0.00    +0.000 A 
ATOM     17  C   UNL     1       0.992   8.739  20.467  0.00  0.00    +0.000 A 
ATOM     18  C   UNL     1       0.021   9.693  20.144  0.00  0.00    +0.000 A 
ATOM     19  C   UNL     1      -0.082  10.156  18.835  0.00  0.00    +0.000 A 
ATOM     20 BR   UNL     1      -1.321  11.520  18.413  0.00  0.00    +0.000 Br
ATOM     21  C   UNL     1       0.748   9.643  17.842  0.00  0.00    +0.000 A 
ATOM     22  C   UNL     1       1.707   8.677  18.163  0.00  0.00    +0.000 A 
ENDBRANCH  15  16
ENDBRANCH   5  15
TORSDOF 2
ENDMDL
