MODEL 1
REMARK VINA RESULT:      -6.0      0.000      0.000
REMARK  Name = 
REMARK  3 active torsions:
REMARK  status: ('A' for Active; 'I' for Inactive)
REMARK    1  A    between atoms: C_1  and  C_2
REMARK    2  A    between atoms: C_5  and  S_6
REMARK    3  A    between atoms: S_6  and  N_7
REMARK                            x       y       z     vdW  Elec       q    Type
REMARK                         _______ _______ _______ _____ _____    ______ ____
ROOT
ATOM      1  C   UNL     1       1.490   4.106  18.416  0.00  0.00    +0.000 C 
ATOM      2  C   UNL     1       2.874   4.401  17.925  0.00  0.00    +0.000 A 
ATOM      3  C   UNL     1       3.413   5.693  17.990  0.00  0.00    +0.000 A 
ATOM      4  C   UNL     1       4.710   5.937  17.532  0.00  0.00    +0.000 A 
ATOM      5  C   UNL     1       5.466   4.884  17.002  0.00  0.00    +0.000 A 
ATOM      6  C   UNL     1       4.943   3.593  16.935  0.00  0.00    +0.000 A 
ATOM      7  C   UNL     1       3.654   3.367  17.396  0.00  0.00    +0.000 A 
ATOM      8  F   UNL     1       3.156   2.125  17.332  0.00  0.00    +0.000 F 
ENDROOT
BRANCH   5   9
ATOM      9  S   UNL     1       7.119   5.172  16.457  0.00  0.00    +0.000 S 
ATOM     10  O   UNL     1       7.297   4.595  15.147  0.00  0.00    +0.000 OA
ATOM     11  O   UNL     1       7.490   6.535  16.762  0.00  0.00    +0.000 OA
BRANCH   9  12
ATOM     12  N   UNL     1       7.993   4.208  17.516  0.00  0.00    +0.000 NA
ATOM     13  H   UNL     1       7.546   4.205  18.434  0.00  0.00    +0.000 HD
ATOM     14  H   UNL     1       8.122   3.278  17.116  0.00  0.00    +0.000 HD
ENDBRANCH   9  12
ENDBRANCH   5   9
TORSDOF 2
ENDMDL
MODEL 2
REMARK VINA RESULT:      -6.0      1.670      2.067
REMARK  Name = 
REMARK  3 active torsions:
REMARK  status: ('A' for Active; 'I' for Inactive)
REMARK    1  A    between atoms: C_1  and  C_2
REMARK    2  A    between atoms: C_5  and  S_6
REMARK    3  A    between atoms: S_6  and  N_7
REMARK                            x       y       z     vdW  Elec       q    Type
REMARK                         _______ _______ _______ _____ _____    ______ ____
ROOT
ATOM      1  C   UNL     1       1.544   3.846  18.450  0.00  0.00    +0.000 C 
ATOM      2  C   UNL     1       2.972   4.252  18.250  0.00  0.00    +0.000 A 
ATOM      3  C   UNL     1       3.638   4.012  17.041  0.00  0.00    +0.000 A 
ATOM      4  C   UNL     1       4.968   4.410  16.880  0.00  0.00    +0.000 A 
ATOM      5  C   UNL     1       5.633   5.042  17.937  0.00  0.00    +0.000 A 
ATOM      6  C   UNL     1       4.981   5.290  19.144  0.00  0.00    +0.000 A 
ATOM      7  C   UNL     1       3.659   4.892  19.287  0.00  0.00    +0.000 A 
ATOM      8  F   UNL     1       3.035   5.134  20.448  0.00  0.00    +0.000 F 
ENDROOT
BRANCH   5   9
ATOM      9  S   UNL     1       7.299   5.585  17.733  0.00  0.00    +0.000 S 
ATOM     10  O   UNL     1       7.444   6.201  16.436  0.00  0.00    +0.000 OA
ATOM     11  O   UNL     1       7.744   6.224  18.950  0.00  0.00    +0.000 OA
BRANCH   9  12
ATOM     12  N   UNL     1       8.120   4.124  17.652  0.00  0.00    +0.000 NA
ATOM     13  H   UNL     1       7.487   3.356  17.880  0.00  0.00    +0.000 HD
ATOM     14  H   UNL     1       8.574   4.028  16.743  0.00  0.00    +0.000 HD
ENDBRANCH   9  12
ENDBRANCH   5   9
TORSDOF 2
ENDMDL
MODEL 3
REMARK VINA RESULT:      -6.0      1.595      2.175
REMARK  Name = 
REMARK  3 active torsions:
REMARK  status: ('A' for Active; 'I' for Inactive)
REMARK    1  A    between atoms: C_1  and  C_2
REMARK    2  A    between atoms: C_5  and  S_6
REMARK    3  A    between atoms: S_6  and  N_7
REMARK                            x       y       z     vdW  Elec       q    Type
REMARK                         _______ _______ _______ _____ _____    ______ ____
ROOT
ATOM      1  C   UNL     1       1.355   4.189  17.816  0.00  0.00    +0.000 C 
ATOM      2  C   UNL     1       2.810   4.535  17.724  0.00  0.00    +0.000 A 
ATOM      3  C   UNL     1       3.782   3.551  17.503  0.00  0.00    +0.000 A 
ATOM      4  C   UNL     1       5.131   3.904  17.413  0.00  0.00    +0.000 A 
ATOM      5  C   UNL     1       5.506   5.246  17.553  0.00  0.00    +0.000 A 
ATOM      6  C   UNL     1       4.548   6.235  17.770  0.00  0.00    +0.000 A 
ATOM      7  C   UNL     1       3.212   5.869  17.854  0.00  0.00    +0.000 A 
ATOM      8  F   UNL     1       2.294   6.822  18.060  0.00  0.00    +0.000 F 
ENDROOT
BRANCH   5   9
ATOM      9  S   UNL     1       7.202   5.709  17.402  0.00  0.00    +0.000 S 
ATOM     10  O   UNL     1       7.414   6.327  16.116  0.00  0.00    +0.000 OA
ATOM     11  O   UNL     1       7.640   6.317  18.638  0.00  0.00    +0.000 OA
BRANCH   9  12
ATOM     12  N   UNL     1       7.953   4.211  17.333  0.00  0.00    +0.000 NA
ATOM     13  H   UNL     1       7.371   3.508  17.789  0.00  0.00    +0.000 HD
ATOM     14  H   UNL     1       8.194   3.985  16.367  0.00  0.00    +0.000 HD
ENDBRANCH   9  12
ENDBRANCH   5   9
TORSDOF 2
ENDMDL
MODEL 4
REMARK VINA RESULT:      -5.9      1.626      1.883
REMARK  Name = 
REMARK  3 active torsions:
REMARK  status: ('A' for Active; 'I' for Inactive)
REMARK    1  A    between atoms: C_1  and  C_2
REMARK    2  A    between atoms: C_5  and  S_6
REMARK    3  A    between atoms: S_6  and  N_7
REMARK                            x       y       z     vdW  Elec       q    Type
REMARK                         _______ _______ _______ _____ _____    ______ ____
ROOT
ATOM      1  C   UNL     1       1.475   4.141  17.882  0.00  0.00    +0.000 C 
ATOM      2  C   UNL     1       2.925   4.483  18.044  0.00  0.00    +0.000 A 
ATOM      3  C   UNL     1       3.468   5.648  17.485  0.00  0.00    +0.000 A 
ATOM      4  C   UNL     1       4.822   5.945  17.660  0.00  0.00    +0.000 A 
ATOM      5  C   UNL     1       5.634   5.068  18.388  0.00  0.00    +0.000 A 
ATOM      6  C   UNL     1       5.106   3.908  18.952  0.00  0.00    +0.000 A 
ATOM      7  C   UNL     1       3.759   3.628  18.773  0.00  0.00    +0.000 A 
ATOM      8  F   UNL     1       3.254   2.513  19.317  0.00  0.00    +0.000 F 
ENDROOT
BRANCH   5   9
ATOM      9  S   UNL     1       7.337   5.453  18.648  0.00  0.00    +0.000 S 
ATOM     10  O   UNL     1       7.664   6.667  17.942  0.00  0.00    +0.000 OA
ATOM     11  O   UNL     1       7.661   5.254  20.042  0.00  0.00    +0.000 OA
BRANCH   9  12
ATOM     12  N   UNL     1       8.093   4.208  17.816  0.00  0.00    +0.000 NA
ATOM     13  H   UNL     1       7.627   4.055  16.920  0.00  0.00    +0.000 HD
ATOM     14  H   UNL     1       9.092   4.399  17.735  0.00  0.00    +0.000 HD
ENDBRANCH   9  12
ENDBRANCH   5   9
TORSDOF 2
ENDMDL
MODEL 5
REMARK VINA RESULT:      -5.9      1.036      1.254
REMARK  Name = 
REMARK  3 active torsions:
REMARK  status: ('A' for Active; 'I' for Inactive)
REMARK    1  A    between atoms: C_1  and  C_2
REMARK    2  A    between atoms: C_5  and  S_6
REMARK    3  A    between atoms: S_6  and  N_7
REMARK                            x       y       z     vdW  Elec       q    Type
REMARK                         _______ _______ _______ _____ _____    ______ ____
ROOT
ATOM      1  C   UNL     1       1.477   4.311  18.251  0.00  0.00    +0.000 C 
ATOM      2  C   UNL     1       2.886   4.518  17.785  0.00  0.00    +0.000 A 
ATOM      3  C   UNL     1       3.484   5.785  17.805  0.00  0.00    +0.000 A 
ATOM      4  C   UNL     1       4.803   5.946  17.373  0.00  0.00    +0.000 A 
ATOM      5  C   UNL     1       5.520   4.836  16.911  0.00  0.00    +0.000 A 
ATOM      6  C   UNL     1       4.939   3.569  16.890  0.00  0.00    +0.000 A 
ATOM      7  C   UNL     1       3.629   3.425  17.326  0.00  0.00    +0.000 A 
ATOM      8  F   UNL     1       3.074   2.206  17.305  0.00  0.00    +0.000 F 
ENDROOT
BRANCH   5   9
ATOM      9  S   UNL     1       7.199   5.021  16.400  0.00  0.00    +0.000 S 
ATOM     10  O   UNL     1       8.059   4.328  17.328  0.00  0.00    +0.000 OA
ATOM     11  O   UNL     1       7.284   4.827  14.970  0.00  0.00    +0.000 OA
BRANCH   9  12
ATOM     12  N   UNL     1       7.450   6.659  16.660  0.00  0.00    +0.000 NA
ATOM     13  H   UNL     1       6.698   7.039  17.235  0.00  0.00    +0.000 HD
ATOM     14  H   UNL     1       8.383   6.812  17.045  0.00  0.00    +0.000 HD
ENDBRANCH   9  12
ENDBRANCH   5   9
TORSDOF 2
ENDMDL
MODEL 6
REMARK VINA RESULT:      -5.9      2.032      2.516
REMARK  Name = 
REMARK  3 active torsions:
REMARK  status: ('A' for Active; 'I' for Inactive)
REMARK    1  A    between atoms: C_1  and  C_2
REMARK    2  A    between atoms: C_5  and  S_6
REMARK    3  A    between atoms: S_6  and  N_7
REMARK                            x       y       z     vdW  Elec       q    Type
REMARK                         _______ _______ _______ _____ _____    ______ ____
ROOT
ATOM      1  C   UNL     1       1.470   4.028  18.142  0.00  0.00    +0.000 C 
ATOM      2  C   UNL     1       2.946   4.284  18.114  0.00  0.00    +0.000 A 
ATOM      3  C   UNL     1       3.739   3.875  17.033  0.00  0.00    +0.000 A 
ATOM      4  C   UNL     1       5.112   4.135  17.030  0.00  0.00    +0.000 A 
ATOM      5  C   UNL     1       5.692   4.799  18.118  0.00  0.00    +0.000 A 
ATOM      6  C   UNL     1       4.914   5.214  19.198  0.00  0.00    +0.000 A 
ATOM      7  C   UNL     1       3.552   4.951  19.184  0.00  0.00    +0.000 A 
ATOM      8  F   UNL     1       2.807   5.353  20.223  0.00  0.00    +0.000 F 
ENDROOT
BRANCH   5   9
ATOM      9  S   UNL     1       7.417   5.168  18.108  0.00  0.00    +0.000 S 
ATOM     10  O   UNL     1       7.895   5.247  19.467  0.00  0.00    +0.000 OA
ATOM     11  O   UNL     1       8.070   4.362  17.102  0.00  0.00    +0.000 OA
BRANCH   9  12
ATOM     12  N   UNL     1       7.421   6.737  17.517  0.00  0.00    +0.000 NA
ATOM     13  H   UNL     1       6.463   7.073  17.414  0.00  0.00    +0.000 HD
ATOM     14  H   UNL     1       8.006   7.331  18.107  0.00  0.00    +0.000 HD
ENDBRANCH   9  12
ENDBRANCH   5   9
TORSDOF 2
ENDMDL
MODEL 7
REMARK VINA RESULT:      -5.9      1.103      1.392
REMARK  Name = 
REMARK  3 active torsions:
REMARK  status: ('A' for Active; 'I' for Inactive)
REMARK    1  A    between atoms: C_1  and  C_2
REMARK    2  A    between atoms: C_5  and  S_6
REMARK    3  A    between atoms: S_6  and  N_7
REMARK                            x       y       z     vdW  Elec       q    Type
REMARK                         _______ _______ _______ _____ _____    ______ ____
ROOT
ATOM      1  C   UNL     1       1.504   4.069  18.540  0.00  0.00    +0.000 C 
ATOM      2  C   UNL     1       2.838   4.456  17.977  0.00  0.00    +0.000 A 
ATOM      3  C   UNL     1       3.287   5.783  18.007  0.00  0.00    +0.000 A 
ATOM      4  C   UNL     1       4.540   6.113  17.482  0.00  0.00    +0.000 A 
ATOM      5  C   UNL     1       5.339   5.111  16.919  0.00  0.00    +0.000 A 
ATOM      6  C   UNL     1       4.905   3.786  16.885  0.00  0.00    +0.000 A 
ATOM      7  C   UNL     1       3.661   3.474  17.414  0.00  0.00    +0.000 A 
ATOM      8  F   UNL     1       3.248   2.200  17.382  0.00  0.00    +0.000 F 
ENDROOT
BRANCH   5   9
ATOM      9  S   UNL     1       6.938   5.508  16.288  0.00  0.00    +0.000 S 
ATOM     10  O   UNL     1       7.201   6.910  16.505  0.00  0.00    +0.000 OA
ATOM     11  O   UNL     1       7.871   4.474  16.674  0.00  0.00    +0.000 OA
BRANCH   9  12
ATOM     12  N   UNL     1       6.703   5.325  14.638  0.00  0.00    +0.000 NA
ATOM     13  H   UNL     1       5.736   5.054  14.452  0.00  0.00    +0.000 HD
ATOM     14  H   UNL     1       6.997   6.171  14.147  0.00  0.00    +0.000 HD
ENDBRANCH   9  12
ENDBRANCH   5   9
TORSDOF 2
ENDMDL
MODEL 8
REMARK VINA RESULT:      -5.9      1.795      2.088
REMARK  Name = 
REMARK  3 active torsions:
REMARK  status: ('A' for Active; 'I' for Inactive)
REMARK    1  A    between atoms: C_1  and  C_2
REMARK    2  A    between atoms: C_5  and  S_6
REMARK    3  A    between atoms: S_6  and  N_7
REMARK                            x       y       z     vdW  Elec       q    Type
REMARK                         _______ _______ _______ _____ _____    ______ ____
ROOT
ATOM      1  C   UNL     1       1.616   3.459  18.417  0.00  0.00    +0.000 C 
ATOM      2  C   UNL     1       3.046   3.878  18.259  0.00  0.00    +0.000 A 
ATOM      3  C   UNL     1       3.737   3.682  17.056  0.00  0.00    +0.000 A 
ATOM      4  C   UNL     1       5.067   4.091  16.935  0.00  0.00    +0.000 A 
ATOM      5  C   UNL     1       5.708   4.690  18.026  0.00  0.00    +0.000 A 
ATOM      6  C   UNL     1       5.032   4.894  19.227  0.00  0.00    +0.000 A 
ATOM      7  C   UNL     1       3.709   4.486  19.331  0.00  0.00    +0.000 A 
ATOM      8  F   UNL     1       3.061   4.685  20.486  0.00  0.00    +0.000 F 
ENDROOT
BRANCH   5   9
ATOM      9  S   UNL     1       7.376   5.246  17.873  0.00  0.00    +0.000 S 
ATOM     10  O   UNL     1       8.169   4.212  17.254  0.00  0.00    +0.000 OA
ATOM     11  O   UNL     1       7.380   6.613  17.403  0.00  0.00    +0.000 OA
BRANCH   9  12
ATOM     12  N   UNL     1       7.857   5.308  19.478  0.00  0.00    +0.000 NA
ATOM     13  H   UNL     1       7.058   5.529  20.073  0.00  0.00    +0.000 HD
ATOM     14  H   UNL     1       8.335   4.443  19.733  0.00  0.00    +0.000 HD
ENDBRANCH   9  12
ENDBRANCH   5   9
TORSDOF 2
ENDMDL
MODEL 9
REMARK VINA RESULT:      -5.8      1.737      2.281
REMARK  Name = 
REMARK  3 active torsions:
REMARK  status: ('A' for Active; 'I' for Inactive)
REMARK    1  A    between atoms: C_1  and  C_2
REMARK    2  A    between atoms: C_5  and  S_6
REMARK    3  A    between atoms: S_6  and  N_7
REMARK                            x       y       z     vdW  Elec       q    Type
REMARK                         _______ _______ _______ _____ _____    ______ ____
ROOT
ATOM      1  C   UNL     1       1.406   4.023  18.384  0.00  0.00    +0.000 C 
ATOM      2  C   UNL     1       2.769   4.319  17.837  0.00  0.00    +0.000 A 
ATOM      3  C   UNL     1       3.609   3.297  17.374  0.00  0.00    +0.000 A 
ATOM      4  C   UNL     1       4.872   3.603  16.861  0.00  0.00    +0.000 A 
ATOM      5  C   UNL     1       5.297   4.936  16.821  0.00  0.00    +0.000 A 
ATOM      6  C   UNL     1       4.471   5.963  17.275  0.00  0.00    +0.000 A 
ATOM      7  C   UNL     1       3.218   5.643  17.778  0.00  0.00    +0.000 A 
ATOM      8  F   UNL     1       2.426   6.632  18.213  0.00  0.00    +0.000 F 
ENDROOT
BRANCH   5   9
ATOM      9  S   UNL     1       6.874   5.339  16.140  0.00  0.00    +0.000 S 
ATOM     10  O   UNL     1       7.878   4.482  16.722  0.00  0.00    +0.000 OA
ATOM     11  O   UNL     1       6.742   5.521  14.712  0.00  0.00    +0.000 OA
BRANCH   9  12
ATOM     12  N   UNL     1       7.135   6.868  16.779  0.00  0.00    +0.000 NA
ATOM     13  H   UNL     1       7.638   6.794  17.663  0.00  0.00    +0.000 HD
ATOM     14  H   UNL     1       7.597   7.461  16.088  0.00  0.00    +0.000 HD
ENDBRANCH   9  12
ENDBRANCH   5   9
TORSDOF 2
ENDMDL
