MODEL 1
REMARK VINA RESULT:      -8.9      0.000      0.000
REMARK  Name = 
REMARK  5 active torsions:
REMARK  status: ('A' for Active; 'I' for Inactive)
REMARK    1  A    between atoms: C_2  and  C_19
REMARK    2  A    between atoms: N_3  and  C_4
REMARK    3  A    between atoms: C_10  and  O_11
REMARK    4  A    between atoms: O_11  and  C_12
REMARK    5  A    between atoms: C_16  and  O_17
REMARK                            x       y       z     vdW  Elec       q    Type
REMARK                         _______ _______ _______ _____ _____    ______ ____
ROOT
ATOM      1  C   UNL     1       2.646   5.129  19.252  0.00  0.00    +0.000 A 
ATOM      2  C   UNL     1       1.921   4.466  20.255  0.00  0.00    +0.000 A 
ATOM      3  C   UNL     1       2.212   3.148  20.602  0.00  0.00    +0.000 A 
ATOM      4 CL   UNL     1       1.347   2.390  21.882  0.00  0.00    +0.000 Cl
ATOM      5  C   UNL     1       3.192   2.439  19.921  0.00  0.00    +0.000 A 
ATOM      6  C   UNL     1       3.887   3.058  18.886  0.00  0.00    +0.000 A 
ATOM      7  C   UNL     1       3.659   4.413  18.580  0.00  0.00    +0.000 A 
ENDROOT
BRANCH   1  10
ATOM      8  O   UNL     1       1.644   7.312  20.945  0.00  0.00    +0.000 OA
ATOM      9  C   UNL     1       1.884   7.463  19.751  0.00  0.00    +0.000 C 
ATOM     10  N   UNL     1       2.383   6.482  18.905  0.00  0.00    +0.000 N 
ATOM     11  H   UNL     1       2.637   6.774  17.962  0.00  0.00    +0.000 HD
BRANCH   9  12
ATOM     12  C   UNL     1       1.677   8.769  19.161  0.00  0.00    +0.000 A 
ATOM     13  C   UNL     1       2.278   9.245  17.974  0.00  0.00    +0.000 A 
ATOM     14  N   UNL     1       1.900  10.478  17.642  0.00  0.00    +0.000 NA
ATOM     15  N   UNL     1       1.040  10.831  18.622  0.00  0.00    +0.000 N 
ATOM     16  C   UNL     1       0.342  12.028  18.734  0.00  0.00    +0.000 A 
ATOM     17  C   UNL     1      -0.470  12.241  19.778  0.00  0.00    +0.000 A 
ATOM     18  C   UNL     1      -0.541  11.126  20.762  0.00  0.00    +0.000 A 
ATOM     19  N   UNL     1       0.077   9.983  20.681  0.00  0.00    +0.000 NA
ATOM     20  C   UNL     1       0.888   9.822  19.585  0.00  0.00    +0.000 A 
ENDBRANCH   9  12
ENDBRANCH   1  10
BRANCH   7  21
ATOM     21  O   UNL     1       4.407   5.065  17.614  0.00  0.00    +0.000 OA
BRANCH  21  22
ATOM     22  C   UNL     1       5.627   5.606  17.983  0.00  0.00    +0.000 A 
ATOM     23  C   UNL     1       6.151   6.608  17.158  0.00  0.00    +0.000 A 
ATOM     24  C   UNL     1       7.384   7.201  17.467  0.00  0.00    +0.000 A 
ATOM     25  C   UNL     1       8.089   6.803  18.604  0.00  0.00    +0.000 A 
ATOM     26  C   UNL     1       7.547   5.825  19.433  0.00  0.00    +0.000 A 
ATOM     27  C   UNL     1       6.320   5.237  19.141  0.00  0.00    +0.000 A 
BRANCH  26  28
ATOM     28  O   UNL     1       8.194   5.408  20.558  0.00  0.00    +0.000 OA
ATOM     29  H   UNL     1       7.868   4.527  20.800  0.00  0.00    +0.000 HD
ENDBRANCH  26  28
ENDBRANCH  21  22
ENDBRANCH   7  21
TORSDOF 5
ENDMDL
MODEL 2
REMARK VINA RESULT:      -8.8      1.079      1.159
REMARK  Name = 
REMARK  5 active torsions:
REMARK  status: ('A' for Active; 'I' for Inactive)
REMARK    1  A    between atoms: C_2  and  C_19
REMARK    2  A    between atoms: N_3  and  C_4
REMARK    3  A    between atoms: C_10  and  O_11
REMARK    4  A    between atoms: O_11  and  C_12
REMARK    5  A    between atoms: C_16  and  O_17
REMARK                            x       y       z     vdW  Elec       q    Type
REMARK                         _______ _______ _______ _____ _____    ______ ____
ROOT
ATOM      1  C   UNL     1       2.747   5.213  17.981  0.00  0.00    +0.000 A 
ATOM      2  C   UNL     1       1.945   4.215  18.557  0.00  0.00    +0.000 A 
ATOM      3  C   UNL     1       2.316   2.872  18.501  0.00  0.00    +0.000 A 
ATOM      4 CL   UNL     1       1.341   1.683  19.275  0.00  0.00    +0.000 Cl
ATOM      5  C   UNL     1       3.463   2.484  17.824  0.00  0.00    +0.000 A 
ATOM      6  C   UNL     1       4.246   3.451  17.199  0.00  0.00    +0.000 A 
ATOM      7  C   UNL     1       3.926   4.817  17.316  0.00  0.00    +0.000 A 
ENDROOT
BRANCH   1  10
ATOM      8  O   UNL     1       2.191   6.860  20.350  0.00  0.00    +0.000 OA
ATOM      9  C   UNL     1       2.123   7.305  19.209  0.00  0.00    +0.000 C 
ATOM     10  N   UNL     1       2.400   6.589  18.053  0.00  0.00    +0.000 N 
ATOM     11  H   UNL     1       2.409   7.113  17.179  0.00  0.00    +0.000 HD
BRANCH   9  12
ATOM     12  C   UNL     1       1.770   8.698  19.028  0.00  0.00    +0.000 A 
ATOM     13  C   UNL     1       2.186   9.524  17.959  0.00  0.00    +0.000 A 
ATOM     14  N   UNL     1       1.700  10.763  18.023  0.00  0.00    +0.000 NA
ATOM     15  N   UNL     1       0.955  10.765  19.150  0.00  0.00    +0.000 N 
ATOM     16  C   UNL     1       0.212  11.822  19.663  0.00  0.00    +0.000 A 
ATOM     17  C   UNL     1      -0.469  11.676  20.807  0.00  0.00    +0.000 A 
ATOM     18  C   UNL     1      -0.350  10.338  21.447  0.00  0.00    +0.000 A 
ATOM     19  N   UNL     1       0.314   9.317  20.988  0.00  0.00    +0.000 NA
ATOM     20  C   UNL     1       0.985   9.526  19.808  0.00  0.00    +0.000 A 
ENDBRANCH   9  12
ENDBRANCH   1  10
BRANCH   7  21
ATOM     21  O   UNL     1       4.747   5.793  16.776  0.00  0.00    +0.000 OA
BRANCH  21  22
ATOM     22  C   UNL     1       5.889   6.151  17.473  0.00  0.00    +0.000 A 
ATOM     23  C   UNL     1       6.603   7.254  16.994  0.00  0.00    +0.000 A 
ATOM     24  C   UNL     1       7.773   7.673  17.647  0.00  0.00    +0.000 A 
ATOM     25  C   UNL     1       8.222   6.999  18.783  0.00  0.00    +0.000 A 
ATOM     26  C   UNL     1       7.489   5.919  19.267  0.00  0.00    +0.000 A 
ATOM     27  C   UNL     1       6.323   5.501  18.633  0.00  0.00    +0.000 A 
BRANCH  26  28
ATOM     28  O   UNL     1       7.883   5.234  20.378  0.00  0.00    +0.000 OA
ATOM     29  H   UNL     1       7.345   4.430  20.459  0.00  0.00    +0.000 HD
ENDBRANCH  26  28
ENDBRANCH  21  22
ENDBRANCH   7  21
TORSDOF 5
ENDMDL
MODEL 3
REMARK VINA RESULT:      -8.7      2.652      4.548
REMARK  Name = 
REMARK  5 active torsions:
REMARK  status: ('A' for Active; 'I' for Inactive)
REMARK    1  A    between atoms: C_2  and  C_19
REMARK    2  A    between atoms: N_3  and  C_4
REMARK    3  A    between atoms: C_10  and  O_11
REMARK    4  A    between atoms: O_11  and  C_12
REMARK    5  A    between atoms: C_16  and  O_17
REMARK                            x       y       z     vdW  Elec       q    Type
REMARK                         _______ _______ _______ _____ _____    ______ ____
ROOT
ATOM      1  C   UNL     1       4.733   6.228  17.362  0.00  0.00    +0.000 A 
ATOM      2  C   UNL     1       5.218   6.213  16.044  0.00  0.00    +0.000 A 
ATOM      3  C   UNL     1       5.961   5.136  15.563  0.00  0.00    +0.000 A 
ATOM      4 CL   UNL     1       6.482   5.123  13.922  0.00  0.00    +0.000 Cl
ATOM      5  C   UNL     1       6.288   4.076  16.396  0.00  0.00    +0.000 A 
ATOM      6  C   UNL     1       5.865   4.094  17.722  0.00  0.00    +0.000 A 
ATOM      7  C   UNL     1       5.046   5.135  18.198  0.00  0.00    +0.000 A 
ENDROOT
BRANCH   1  10
ATOM      8  O   UNL     1       1.823   6.378  17.736  0.00  0.00    +0.000 OA
ATOM      9  C   UNL     1       2.568   7.320  17.990  0.00  0.00    +0.000 C 
ATOM     10  N   UNL     1       3.950   7.303  17.862  0.00  0.00    +0.000 N 
ATOM     11  H   UNL     1       4.453   8.118  18.211  0.00  0.00    +0.000 HD
BRANCH   9  12
ATOM     12  C   UNL     1       1.989   8.543  18.505  0.00  0.00    +0.000 A 
ATOM     13  C   UNL     1       1.841   9.753  17.790  0.00  0.00    +0.000 A 
ATOM     14  N   UNL     1       1.258  10.721  18.495  0.00  0.00    +0.000 NA
ATOM     15  N   UNL     1       1.019  10.152  19.697  0.00  0.00    +0.000 N 
ATOM     16  C   UNL     1       0.401  10.739  20.795  0.00  0.00    +0.000 A 
ATOM     17  C   UNL     1       0.246  10.048  21.932  0.00  0.00    +0.000 A 
ATOM     18  C   UNL     1       0.783   8.660  21.906  0.00  0.00    +0.000 A 
ATOM     19  N   UNL     1       1.346   8.067  20.893  0.00  0.00    +0.000 NA
ATOM     20  C   UNL     1       1.468   8.824  19.754  0.00  0.00    +0.000 A 
ENDBRANCH   9  12
ENDBRANCH   1  10
BRANCH   7  21
ATOM     21  O   UNL     1       4.544   5.119  19.488  0.00  0.00    +0.000 OA
BRANCH  21  22
ATOM     22  C   UNL     1       3.416   4.357  19.744  0.00  0.00    +0.000 A 
ATOM     23  C   UNL     1       2.590   4.781  20.791  0.00  0.00    +0.000 A 
ATOM     24  C   UNL     1       1.431   4.057  21.111  0.00  0.00    +0.000 A 
ATOM     25  C   UNL     1       1.091   2.919  20.379  0.00  0.00    +0.000 A 
ATOM     26  C   UNL     1       1.905   2.521  19.323  0.00  0.00    +0.000 A 
ATOM     27  C   UNL     1       3.051   3.237  18.991  0.00  0.00    +0.000 A 
BRANCH  26  28
ATOM     28  O   UNL     1       1.610   1.421  18.573  0.00  0.00    +0.000 OA
ATOM     29  H   UNL     1       0.724   1.104  18.815  0.00  0.00    +0.000 HD
ENDBRANCH  26  28
ENDBRANCH  21  22
ENDBRANCH   7  21
TORSDOF 5
ENDMDL
MODEL 4
REMARK VINA RESULT:      -8.6      2.840      4.676
REMARK  Name = 
REMARK  5 active torsions:
REMARK  status: ('A' for Active; 'I' for Inactive)
REMARK    1  A    between atoms: C_2  and  C_19
REMARK    2  A    between atoms: N_3  and  C_4
REMARK    3  A    between atoms: C_10  and  O_11
REMARK    4  A    between atoms: O_11  and  C_12
REMARK    5  A    between atoms: C_16  and  O_17
REMARK                            x       y       z     vdW  Elec       q    Type
REMARK                         _______ _______ _______ _____ _____    ______ ____
ROOT
ATOM      1  C   UNL     1       3.612   6.935  18.097  0.00  0.00    +0.000 A 
ATOM      2  C   UNL     1       4.921   7.409  17.917  0.00  0.00    +0.000 A 
ATOM      3  C   UNL     1       5.888   6.631  17.282  0.00  0.00    +0.000 A 
ATOM      4 CL   UNL     1       7.465   7.271  17.021  0.00  0.00    +0.000 Cl
ATOM      5  C   UNL     1       5.592   5.342  16.861  0.00  0.00    +0.000 A 
ATOM      6  C   UNL     1       4.316   4.830  17.077  0.00  0.00    +0.000 A 
ATOM      7  C   UNL     1       3.309   5.634  17.644  0.00  0.00    +0.000 A 
ENDROOT
BRANCH   1  10
ATOM      8  O   UNL     1       2.211   9.297  17.051  0.00  0.00    +0.000 OA
ATOM      9  C   UNL     1       1.999   8.850  18.174  0.00  0.00    +0.000 C 
ATOM     10  N   UNL     1       2.606   7.725  18.715  0.00  0.00    +0.000 N 
ATOM     11  H   UNL     1       2.257   7.404  19.617  0.00  0.00    +0.000 HD
BRANCH   9  12
ATOM     12  C   UNL     1       1.012   9.505  19.006  0.00  0.00    +0.000 A 
ATOM     13  C   UNL     1      -0.026  10.349  18.550  0.00  0.00    +0.000 A 
ATOM     14  N   UNL     1      -0.809  10.807  19.525  0.00  0.00    +0.000 NA
ATOM     15  N   UNL     1      -0.285  10.266  20.646  0.00  0.00    +0.000 N 
ATOM     16  C   UNL     1      -0.750  10.418  21.948  0.00  0.00    +0.000 A 
ATOM     17  C   UNL     1      -0.111   9.828  22.967  0.00  0.00    +0.000 A 
ATOM     18  C   UNL     1       1.093   9.039  22.586  0.00  0.00    +0.000 A 
ATOM     19  N   UNL     1       1.547   8.854  21.380  0.00  0.00    +0.000 NA
ATOM     20  C   UNL     1       0.845   9.478  20.378  0.00  0.00    +0.000 A 
ENDBRANCH   9  12
ENDBRANCH   1  10
BRANCH   7  21
ATOM     21  O   UNL     1       2.012   5.167  17.780  0.00  0.00    +0.000 OA
BRANCH  21  22
ATOM     22  C   UNL     1       1.759   4.200  18.738  0.00  0.00    +0.000 A 
ATOM     23  C   UNL     1       1.118   3.034  18.306  0.00  0.00    +0.000 A 
ATOM     24  C   UNL     1       0.826   2.011  19.222  0.00  0.00    +0.000 A 
ATOM     25  C   UNL     1       1.184   2.147  20.564  0.00  0.00    +0.000 A 
ATOM     26  C   UNL     1       1.845   3.300  20.978  0.00  0.00    +0.000 A 
ATOM     27  C   UNL     1       2.148   4.316  20.077  0.00  0.00    +0.000 A 
BRANCH  26  28
ATOM     28  O   UNL     1       2.222   3.475  22.276  0.00  0.00    +0.000 OA
ATOM     29  H   UNL     1       3.059   3.007  22.426  0.00  0.00    +0.000 HD
ENDBRANCH  26  28
ENDBRANCH  21  22
ENDBRANCH   7  21
TORSDOF 5
ENDMDL
MODEL 5
REMARK VINA RESULT:      -8.4      1.522      1.774
REMARK  Name = 
REMARK  5 active torsions:
REMARK  status: ('A' for Active; 'I' for Inactive)
REMARK    1  A    between atoms: C_2  and  C_19
REMARK    2  A    between atoms: N_3  and  C_4
REMARK    3  A    between atoms: C_10  and  O_11
REMARK    4  A    between atoms: O_11  and  C_12
REMARK    5  A    between atoms: C_16  and  O_17
REMARK                            x       y       z     vdW  Elec       q    Type
REMARK                         _______ _______ _______ _____ _____    ______ ____
ROOT
ATOM      1  C   UNL     1       2.519   5.855  20.051  0.00  0.00    +0.000 A 
ATOM      2  C   UNL     1       1.778   4.944  20.821  0.00  0.00    +0.000 A 
ATOM      3  C   UNL     1       2.121   3.594  20.868  0.00  0.00    +0.000 A 
ATOM      4 CL   UNL     1       1.230   2.520  21.875  0.00  0.00    +0.000 Cl
ATOM      5  C   UNL     1       3.175   3.106  20.107  0.00  0.00    +0.000 A 
ATOM      6  C   UNL     1       3.890   3.981  19.294  0.00  0.00    +0.000 A 
ATOM      7  C   UNL     1       3.605   5.359  19.299  0.00  0.00    +0.000 A 
ENDROOT
BRANCH   1  10
ATOM      8  O   UNL     1       1.627   7.488  17.777  0.00  0.00    +0.000 OA
ATOM      9  C   UNL     1       1.809   7.960  18.894  0.00  0.00    +0.000 C 
ATOM     10  N   UNL     1       2.202   7.239  20.013  0.00  0.00    +0.000 N 
ATOM     11  H   UNL     1       2.210   7.738  20.902  0.00  0.00    +0.000 HD
BRANCH   9  12
ATOM     12  C   UNL     1       1.561   9.372  19.100  0.00  0.00    +0.000 A 
ATOM     13  C   UNL     1       1.959  10.416  18.234  0.00  0.00    +0.000 A 
ATOM     14  N   UNL     1       1.586  11.625  18.651  0.00  0.00    +0.000 NA
ATOM     15  N   UNL     1       0.935  11.385  19.809  0.00  0.00    +0.000 N 
ATOM     16  C   UNL     1       0.326  12.321  20.638  0.00  0.00    +0.000 A 
ATOM     17  C   UNL     1      -0.273  11.931  21.771  0.00  0.00    +0.000 A 
ATOM     18  C   UNL     1      -0.218  10.469  22.045  0.00  0.00    +0.000 A 
ATOM     19  N   UNL     1       0.321   9.559  21.284  0.00  0.00    +0.000 NA
ATOM     20  C   UNL     1       0.912  10.021  20.134  0.00  0.00    +0.000 A 
ENDBRANCH   9  12
ENDBRANCH   1  10
BRANCH   7  21
ATOM     21  O   UNL     1       4.369   6.251  18.564  0.00  0.00    +0.000 OA
BRANCH  21  22
ATOM     22  C   UNL     1       5.271   5.743  17.645  0.00  0.00    +0.000 A 
ATOM     23  C   UNL     1       4.960   5.914  16.292  0.00  0.00    +0.000 A 
ATOM     24  C   UNL     1       5.825   5.422  15.303  0.00  0.00    +0.000 A 
ATOM     25  C   UNL     1       7.005   4.770  15.664  0.00  0.00    +0.000 A 
ATOM     26  C   UNL     1       7.318   4.629  17.013  0.00  0.00    +0.000 A 
ATOM     27  C   UNL     1       6.472   5.121  18.001  0.00  0.00    +0.000 A 
BRANCH  26  28
ATOM     28  O   UNL     1       8.463   4.007  17.415  0.00  0.00    +0.000 OA
ATOM     29  H   UNL     1       8.631   4.228  18.345  0.00  0.00    +0.000 HD
ENDBRANCH  26  28
ENDBRANCH  21  22
ENDBRANCH   7  21
TORSDOF 5
ENDMDL
MODEL 6
REMARK VINA RESULT:      -8.4      1.352      1.991
REMARK  Name = 
REMARK  5 active torsions:
REMARK  status: ('A' for Active; 'I' for Inactive)
REMARK    1  A    between atoms: C_2  and  C_19
REMARK    2  A    between atoms: N_3  and  C_4
REMARK    3  A    between atoms: C_10  and  O_11
REMARK    4  A    between atoms: O_11  and  C_12
REMARK    5  A    between atoms: C_16  and  O_17
REMARK                            x       y       z     vdW  Elec       q    Type
REMARK                         _______ _______ _______ _____ _____    ______ ____
ROOT
ATOM      1  C   UNL     1       2.489   5.231  18.481  0.00  0.00    +0.000 A 
ATOM      2  C   UNL     1       1.797   4.063  18.843  0.00  0.00    +0.000 A 
ATOM      3  C   UNL     1       2.168   2.819  18.335  0.00  0.00    +0.000 A 
ATOM      4 CL   UNL     1       1.339   1.403  18.853  0.00  0.00    +0.000 Cl
ATOM      5  C   UNL     1       3.199   2.713  17.412  0.00  0.00    +0.000 A 
ATOM      6  C   UNL     1       3.864   3.863  16.996  0.00  0.00    +0.000 A 
ATOM      7  C   UNL     1       3.553   5.114  17.562  0.00  0.00    +0.000 A 
ENDROOT
BRANCH   1  10
ATOM      8  O   UNL     1       1.895   5.978  21.260  0.00  0.00    +0.000 OA
ATOM      9  C   UNL     1       1.848   6.786  20.337  0.00  0.00    +0.000 C 
ATOM     10  N   UNL     1       2.144   6.503  19.011  0.00  0.00    +0.000 N 
ATOM     11  H   UNL     1       2.169   7.293  18.367  0.00  0.00    +0.000 HD
BRANCH   9  12
ATOM     12  C   UNL     1       1.501   8.159  20.635  0.00  0.00    +0.000 A 
ATOM     13  C   UNL     1       1.143   8.665  21.905  0.00  0.00    +0.000 A 
ATOM     14  N   UNL     1       0.889   9.973  21.906  0.00  0.00    +0.000 NA
ATOM     15  N   UNL     1       1.077  10.343  20.621  0.00  0.00    +0.000 N 
ATOM     16  C   UNL     1       0.957  11.623  20.090  0.00  0.00    +0.000 A 
ATOM     17  C   UNL     1       1.161  11.834  18.784  0.00  0.00    +0.000 A 
ATOM     18  C   UNL     1       1.504  10.621  17.993  0.00  0.00    +0.000 A 
ATOM     19  N   UNL     1       1.648   9.412  18.454  0.00  0.00    +0.000 NA
ATOM     20  C   UNL     1       1.433   9.261  19.802  0.00  0.00    +0.000 A 
ENDBRANCH   9  12
ENDBRANCH   1  10
BRANCH   7  21
ATOM     21  O   UNL     1       4.268   6.251  17.224  0.00  0.00    +0.000 OA
BRANCH  21  22
ATOM     22  C   UNL     1       5.548   6.396  17.731  0.00  0.00    +0.000 A 
ATOM     23  C   UNL     1       6.379   7.325  17.096  0.00  0.00    +0.000 A 
ATOM     24  C   UNL     1       7.691   7.525  17.553  0.00  0.00    +0.000 A 
ATOM     25  C   UNL     1       8.168   6.807  18.650  0.00  0.00    +0.000 A 
ATOM     26  C   UNL     1       7.325   5.905  19.292  0.00  0.00    +0.000 A 
ATOM     27  C   UNL     1       6.019   5.707  18.853  0.00  0.00    +0.000 A 
BRANCH  26  28
ATOM     28  O   UNL     1       7.743   5.186  20.373  0.00  0.00    +0.000 OA
ATOM     29  H   UNL     1       7.344   5.562  21.174  0.00  0.00    +0.000 HD
ENDBRANCH  26  28
ENDBRANCH  21  22
ENDBRANCH   7  21
TORSDOF 5
ENDMDL
MODEL 7
REMARK VINA RESULT:      -8.3      2.709      4.487
REMARK  Name = 
REMARK  5 active torsions:
REMARK  status: ('A' for Active; 'I' for Inactive)
REMARK    1  A    between atoms: C_2  and  C_19
REMARK    2  A    between atoms: N_3  and  C_4
REMARK    3  A    between atoms: C_10  and  O_11
REMARK    4  A    between atoms: O_11  and  C_12
REMARK    5  A    between atoms: C_16  and  O_17
REMARK                            x       y       z     vdW  Elec       q    Type
REMARK                         _______ _______ _______ _____ _____    ______ ____
ROOT
ATOM      1  C   UNL     1       4.507   6.351  17.536  0.00  0.00    +0.000 A 
ATOM      2  C   UNL     1       5.072   6.347  16.250  0.00  0.00    +0.000 A 
ATOM      3  C   UNL     1       5.754   5.232  15.766  0.00  0.00    +0.000 A 
ATOM      4 CL   UNL     1       6.377   5.240  14.162  0.00  0.00    +0.000 Cl
ATOM      5  C   UNL     1       5.938   4.114  16.569  0.00  0.00    +0.000 A 
ATOM      6  C   UNL     1       5.432   4.115  17.866  0.00  0.00    +0.000 A 
ATOM      7  C   UNL     1       4.674   5.202  18.338  0.00  0.00    +0.000 A 
ENDROOT
BRANCH   1  10
ATOM      8  O   UNL     1       1.605   6.816  17.558  0.00  0.00    +0.000 OA
ATOM      9  C   UNL     1       2.407   7.638  17.991  0.00  0.00    +0.000 C 
ATOM     10  N   UNL     1       3.784   7.467  18.035  0.00  0.00    +0.000 N 
ATOM     11  H   UNL     1       4.321   8.185  18.520  0.00  0.00    +0.000 HD
BRANCH   9  12
ATOM     12  C   UNL     1       1.899   8.876  18.546  0.00  0.00    +0.000 A 
ATOM     13  C   UNL     1       1.900  10.133  17.900  0.00  0.00    +0.000 A 
ATOM     14  N   UNL     1       1.355  11.106  18.627  0.00  0.00    +0.000 NA
ATOM     15  N   UNL     1       0.990  10.493  19.774  0.00  0.00    +0.000 N 
ATOM     16  C   UNL     1       0.352  11.068  20.867  0.00  0.00    +0.000 A 
ATOM     17  C   UNL     1       0.065  10.330  21.947  0.00  0.00    +0.000 A 
ATOM     18  C   UNL     1       0.485   8.904  21.868  0.00  0.00    +0.000 A 
ATOM     19  N   UNL     1       1.062   8.322  20.856  0.00  0.00    +0.000 NA
ATOM     20  C   UNL     1       1.322   9.130  19.776  0.00  0.00    +0.000 A 
ENDBRANCH   9  12
ENDBRANCH   1  10
BRANCH   7  21
ATOM     21  O   UNL     1       4.089   5.177  19.593  0.00  0.00    +0.000 OA
BRANCH  21  22
ATOM     22  C   UNL     1       3.014   4.329  19.800  0.00  0.00    +0.000 A 
ATOM     23  C   UNL     1       2.271   3.962  18.672  0.00  0.00    +0.000 A 
ATOM     24  C   UNL     1       1.165   3.108  18.804  0.00  0.00    +0.000 A 
ATOM     25  C   UNL     1       0.808   2.612  20.058  0.00  0.00    +0.000 A 
ATOM     26  C   UNL     1       1.569   2.961  21.170  0.00  0.00    +0.000 A 
ATOM     27  C   UNL     1       2.674   3.799  21.049  0.00  0.00    +0.000 A 
BRANCH  26  28
ATOM     28  O   UNL     1       1.265   2.495  22.415  0.00  0.00    +0.000 OA
ATOM     29  H   UNL     1       1.794   1.700  22.590  0.00  0.00    +0.000 HD
ENDBRANCH  26  28
ENDBRANCH  21  22
ENDBRANCH   7  21
TORSDOF 5
ENDMDL
MODEL 8
REMARK VINA RESULT:      -8.3      1.530      2.231
REMARK  Name = 
REMARK  5 active torsions:
REMARK  status: ('A' for Active; 'I' for Inactive)
REMARK    1  A    between atoms: C_2  and  C_19
REMARK    2  A    between atoms: N_3  and  C_4
REMARK    3  A    between atoms: C_10  and  O_11
REMARK    4  A    between atoms: O_11  and  C_12
REMARK    5  A    between atoms: C_16  and  O_17
REMARK                            x       y       z     vdW  Elec       q    Type
REMARK                         _______ _______ _______ _____ _____    ______ ____
ROOT
ATOM      1  C   UNL     1       2.713   5.510  20.133  0.00  0.00    +0.000 A 
ATOM      2  C   UNL     1       1.910   4.617  20.863  0.00  0.00    +0.000 A 
ATOM      3  C   UNL     1       2.271   3.279  21.009  0.00  0.00    +0.000 A 
ATOM      4 CL   UNL     1       1.297   2.230  21.964  0.00  0.00    +0.000 Cl
ATOM      5  C   UNL     1       3.409   2.782  20.387  0.00  0.00    +0.000 A 
ATOM      6  C   UNL     1       4.191   3.636  19.614  0.00  0.00    +0.000 A 
ATOM      7  C   UNL     1       3.882   5.006  19.525  0.00  0.00    +0.000 A 
ENDROOT
BRANCH   1  10
ATOM      8  O   UNL     1       1.881   6.983  17.731  0.00  0.00    +0.000 OA
ATOM      9  C   UNL     1       2.014   7.527  18.823  0.00  0.00    +0.000 C 
ATOM     10  N   UNL     1       2.376   6.883  19.998  0.00  0.00    +0.000 N 
ATOM     11  H   UNL     1       2.343   7.436  20.854  0.00  0.00    +0.000 HD
BRANCH   9  12
ATOM     12  C   UNL     1       1.737   8.944  18.931  0.00  0.00    +0.000 A 
ATOM     13  C   UNL     1       2.113   9.933  17.994  0.00  0.00    +0.000 A 
ATOM     14  N   UNL     1       1.715  11.160  18.326  0.00  0.00    +0.000 NA
ATOM     15  N   UNL     1       1.070  10.988  19.501  0.00  0.00    +0.000 N 
ATOM     16  C   UNL     1       0.443  11.966  20.265  0.00  0.00    +0.000 A 
ATOM     17  C   UNL     1      -0.147  11.643  21.423  0.00  0.00    +0.000 A 
ATOM     18  C   UNL     1      -0.060  10.205  21.797  0.00  0.00    +0.000 A 
ATOM     19  N   UNL     1       0.496   9.257  21.100  0.00  0.00    +0.000 NA
ATOM     20  C   UNL     1       1.076   9.649  19.919  0.00  0.00    +0.000 A 
ENDBRANCH   9  12
ENDBRANCH   1  10
BRANCH   7  21
ATOM     21  O   UNL     1       4.703   5.882  18.834  0.00  0.00    +0.000 OA
BRANCH  21  22
ATOM     22  C   UNL     1       5.451   5.388  17.780  0.00  0.00    +0.000 A 
ATOM     23  C   UNL     1       6.794   5.093  18.040  0.00  0.00    +0.000 A 
ATOM     24  C   UNL     1       7.615   4.592  17.018  0.00  0.00    +0.000 A 
ATOM     25  C   UNL     1       7.094   4.375  15.742  0.00  0.00    +0.000 A 
ATOM     26  C   UNL     1       5.750   4.646  15.501  0.00  0.00    +0.000 A 
ATOM     27  C   UNL     1       4.925   5.134  16.509  0.00  0.00    +0.000 A 
BRANCH  26  28
ATOM     28  O   UNL     1       5.193   4.442  14.273  0.00  0.00    +0.000 OA
ATOM     29  H   UNL     1       4.285   4.785  14.279  0.00  0.00    +0.000 HD
ENDBRANCH  26  28
ENDBRANCH  21  22
ENDBRANCH   7  21
TORSDOF 5
ENDMDL
MODEL 9
REMARK VINA RESULT:      -8.2      1.418      1.718
REMARK  Name = 
REMARK  5 active torsions:
REMARK  status: ('A' for Active; 'I' for Inactive)
REMARK    1  A    between atoms: C_2  and  C_19
REMARK    2  A    between atoms: N_3  and  C_4
REMARK    3  A    between atoms: C_10  and  O_11
REMARK    4  A    between atoms: O_11  and  C_12
REMARK    5  A    between atoms: C_16  and  O_17
REMARK                            x       y       z     vdW  Elec       q    Type
REMARK                         _______ _______ _______ _____ _____    ______ ____
ROOT
ATOM      1  C   UNL     1       2.313   5.833  19.831  0.00  0.00    +0.000 A 
ATOM      2  C   UNL     1       1.581   4.932  20.621  0.00  0.00    +0.000 A 
ATOM      3  C   UNL     1       2.054   3.645  20.872  0.00  0.00    +0.000 A 
ATOM      4 CL   UNL     1       1.161   2.592  21.900  0.00  0.00    +0.000 Cl
ATOM      5  C   UNL     1       3.238   3.204  20.298  0.00  0.00    +0.000 A 
ATOM      6  C   UNL     1       3.954   4.061  19.467  0.00  0.00    +0.000 A 
ATOM      7  C   UNL     1       3.529   5.388  19.270  0.00  0.00    +0.000 A 
ENDROOT
BRANCH   1  10
ATOM      8  O   UNL     1       1.591   7.925  21.764  0.00  0.00    +0.000 OA
ATOM      9  C   UNL     1       1.510   8.093  20.551  0.00  0.00    +0.000 C 
ATOM     10  N   UNL     1       1.861   7.158  19.588  0.00  0.00    +0.000 N 
ATOM     11  H   UNL     1       1.845   7.469  18.617  0.00  0.00    +0.000 HD
BRANCH   9  12
ATOM     12  C   UNL     1       1.055   9.377  20.058  0.00  0.00    +0.000 A 
ATOM     13  C   UNL     1       1.274   9.888  18.759  0.00  0.00    +0.000 A 
ATOM     14  N   UNL     1       0.730  11.088  18.560  0.00  0.00    +0.000 NA
ATOM     15  N   UNL     1       0.145  11.382  19.741  0.00  0.00    +0.000 N 
ATOM     16  C   UNL     1      -0.583  12.524  20.056  0.00  0.00    +0.000 A 
ATOM     17  C   UNL     1      -1.095  12.682  21.283  0.00  0.00    +0.000 A 
ATOM     18  C   UNL     1      -0.813  11.572  22.233  0.00  0.00    +0.000 A 
ATOM     19  N   UNL     1      -0.157  10.478  21.972  0.00  0.00    +0.000 NA
ATOM     20  C   UNL     1       0.335  10.371  20.695  0.00  0.00    +0.000 A 
ENDBRANCH   9  12
ENDBRANCH   1  10
BRANCH   7  21
ATOM     21  O   UNL     1       4.280   6.277  18.520  0.00  0.00    +0.000 OA
BRANCH  21  22
ATOM     22  C   UNL     1       5.193   5.764  17.614  0.00  0.00    +0.000 A 
ATOM     23  C   UNL     1       4.898   5.928  16.256  0.00  0.00    +0.000 A 
ATOM     24  C   UNL     1       5.775   5.431  15.280  0.00  0.00    +0.000 A 
ATOM     25  C   UNL     1       6.951   4.782  15.659  0.00  0.00    +0.000 A 
ATOM     26  C   UNL     1       7.249   4.648  17.011  0.00  0.00    +0.000 A 
ATOM     27  C   UNL     1       6.391   5.146  17.987  0.00  0.00    +0.000 A 
BRANCH  26  28
ATOM     28  O   UNL     1       8.389   4.030  17.431  0.00  0.00    +0.000 OA
ATOM     29  H   UNL     1       8.750   4.515  18.190  0.00  0.00    +0.000 HD
ENDBRANCH  26  28
ENDBRANCH  21  22
ENDBRANCH   7  21
TORSDOF 5
ENDMDL
