MODEL 1
REMARK VINA RESULT:      -6.2      0.000      0.000
REMARK  Name = 
REMARK  21 active torsions:
REMARK  status: ('A' for Active; 'I' for Inactive)
REMARK    1  A    between atoms: C_1  and  C_2
REMARK    2  A    between atoms: C_2  and  C_3
REMARK    3  A    between atoms: C_3  and  C_4
REMARK    4  A    between atoms: C_4  and  C_5
REMARK    5  A    between atoms: C_5  and  C_6
REMARK    6  A    between atoms: C_6  and  C_7
REMARK    7  A    between atoms: C_7  and  C_8
REMARK    8  A    between atoms: C_8  and  C_9
REMARK    9  A    between atoms: C_9  and  C_10
REMARK   10  A    between atoms: C_10  and  C_11
REMARK   11  A    between atoms: C_11  and  C_12
REMARK   12  A    between atoms: C_12  and  C_13
REMARK   13  A    between atoms: C_13  and  C_14
REMARK   14  A    between atoms: C_14  and  C_15
REMARK   15  A    between atoms: C_15  and  C_16
REMARK   16  A    between atoms: C_16  and  O_17
REMARK   17  A    between atoms: O_17  and  P_18
REMARK   18  A    between atoms: C_23  and  C_24
REMARK   19  A    between atoms: C_24  and  O_26
REMARK   20  A    between atoms: O_26  and  C_27
REMARK   21  A    between atoms: C_28  and  C_29
REMARK                            x       y       z     vdW  Elec       q    Type
REMARK                         _______ _______ _______ _____ _____    ______ ____
ROOT
ATOM      1  C   UNL     1       1.211   3.357  21.163  0.00  0.00    +0.000 C 
ENDROOT
BRANCH   1   2
ATOM      2  C   UNL     1       2.595   2.728  21.262  0.00  0.00    +0.000 C 
BRANCH   2   3
ATOM      3  O   UNL     1       3.530   3.472  20.502  0.00  0.00    +0.000 OA
BRANCH   3   4
ATOM      4  P   UNL     1       4.528   2.599  19.579  0.00  0.00    +0.000 P 
ATOM      5  O   UNL     1       5.008   1.352  20.269  0.00  0.00    +0.000 OA
ATOM      6  C   UNL     1       3.562   2.246  18.137  0.00  0.00    +0.000 C 
ATOM      7  C   UNL     1       3.365   3.386  17.169  0.00  0.00    +0.000 C 
ATOM      8  C   UNL     1       4.679   3.716  16.469  0.00  0.00    +0.000 C 
ATOM      9  C   UNL     1       5.506   4.784  17.146  0.00  0.00    +0.000 C 
ATOM     10  C   UNL     1       5.923   4.706  18.432  0.00  0.00    +0.000 C 
ATOM     11  C   UNL     1       6.862   5.668  19.115  0.00  0.00    +0.000 C 
ATOM     12  O   UNL     1       5.730   3.600  19.230  0.00  0.00    +0.000 OA
BRANCH   9  13
ATOM     13  C   UNL     1       5.935   5.847  16.170  0.00  0.00    +0.000 C 
ATOM     14  O   UNL     1       5.261   6.830  15.909  0.00  0.00    +0.000 OA
BRANCH  13  15
ATOM     15  O   UNL     1       7.174   5.613  15.652  0.00  0.00    +0.000 OA
ATOM     16  C   UNL     1       7.171   5.020  14.347  0.00  0.00    +0.000 C 
ENDBRANCH  13  15
ENDBRANCH   9  13
ENDBRANCH   3   4
ENDBRANCH   2   3
ENDBRANCH   1   2
BRANCH   1  17
ATOM     17  C   UNL     1       1.260   4.488  20.147  0.00  0.00    +0.000 C 
BRANCH  17  18
ATOM     18  C   UNL     1       1.613   5.836  20.761  0.00  0.00    +0.000 C 
BRANCH  18  19
ATOM     19  C   UNL     1       2.308   6.677  19.697  0.00  0.00    +0.000 C 
BRANCH  19  20
ATOM     20  C   UNL     1       1.803   8.110  19.678  0.00  0.00    +0.000 C 
BRANCH  20  21
ATOM     21  C   UNL     1       1.358   8.505  21.081  0.00  0.00    +0.000 C 
BRANCH  21  22
ATOM     22  C   UNL     1      -0.061   9.045  21.065  0.00  0.00    +0.000 C 
BRANCH  22  23
ATOM     23  C   UNL     1      -0.228  10.056  19.940  0.00  0.00    +0.000 C 
BRANCH  23  24
ATOM     24  C   UNL     1       0.482  11.353  20.293  0.00  0.00    +0.000 C 
BRANCH  24  25
ATOM     25  C   UNL     1       1.352  11.820  19.135  0.00  0.00    +0.000 C 
BRANCH  25  26
ATOM     26  C   UNL     1       1.333  13.339  19.042  0.00  0.00    +0.000 C 
BRANCH  26  27
ATOM     27  C   UNL     1      -0.060  13.840  18.687  0.00  0.00    +0.000 C 
BRANCH  27  28
ATOM     28  C   UNL     1      -0.115  15.362  18.753  0.00  0.00    +0.000 C 
BRANCH  28  30
ATOM     29  C   UNL     1       1.773  16.972  18.388  0.00  0.00    +0.000 C 
ATOM     30  C   UNL     1       1.181  15.931  19.320  0.00  0.00    +0.000 C 
ENDBRANCH  28  30
ENDBRANCH  27  28
ENDBRANCH  26  27
ENDBRANCH  25  26
ENDBRANCH  24  25
ENDBRANCH  23  24
ENDBRANCH  22  23
ENDBRANCH  21  22
ENDBRANCH  20  21
ENDBRANCH  19  20
ENDBRANCH  18  19
ENDBRANCH  17  18
ENDBRANCH   1  17
TORSDOF 18
ENDMDL
MODEL 2
REMARK VINA RESULT:      -6.1      6.063      9.704
REMARK  Name = 
REMARK  21 active torsions:
REMARK  status: ('A' for Active; 'I' for Inactive)
REMARK    1  A    between atoms: C_1  and  C_2
REMARK    2  A    between atoms: C_2  and  C_3
REMARK    3  A    between atoms: C_3  and  C_4
REMARK    4  A    between atoms: C_4  and  C_5
REMARK    5  A    between atoms: C_5  and  C_6
REMARK    6  A    between atoms: C_6  and  C_7
REMARK    7  A    between atoms: C_7  and  C_8
REMARK    8  A    between atoms: C_8  and  C_9
REMARK    9  A    between atoms: C_9  and  C_10
REMARK   10  A    between atoms: C_10  and  C_11
REMARK   11  A    between atoms: C_11  and  C_12
REMARK   12  A    between atoms: C_12  and  C_13
REMARK   13  A    between atoms: C_13  and  C_14
REMARK   14  A    between atoms: C_14  and  C_15
REMARK   15  A    between atoms: C_15  and  C_16
REMARK   16  A    between atoms: C_16  and  O_17
REMARK   17  A    between atoms: O_17  and  P_18
REMARK   18  A    between atoms: C_23  and  C_24
REMARK   19  A    between atoms: C_24  and  O_26
REMARK   20  A    between atoms: O_26  and  C_27
REMARK   21  A    between atoms: C_28  and  C_29
REMARK                            x       y       z     vdW  Elec       q    Type
REMARK                         _______ _______ _______ _____ _____    ______ ____
ROOT
ATOM      1  C   UNL     1       8.083   8.566  17.500  0.00  0.00    +0.000 C 
ENDROOT
BRANCH   1   2
ATOM      2  C   UNL     1       8.678   9.253  18.722  0.00  0.00    +0.000 C 
BRANCH   2   3
ATOM      3  O   UNL     1       8.975  10.607  18.431  0.00  0.00    +0.000 OA
BRANCH   3   4
ATOM      4  P   UNL     1       9.645  11.446  19.637  0.00  0.00    +0.000 P 
ATOM      5  O   UNL     1       9.356  10.849  20.986  0.00  0.00    +0.000 OA
ATOM      6  C   UNL     1      11.373  11.431  19.247  0.00  0.00    +0.000 C 
ATOM      7  C   UNL     1      11.813  12.337  18.125  0.00  0.00    +0.000 C 
ATOM      8  C   UNL     1      11.705  13.798  18.553  0.00  0.00    +0.000 C 
ATOM      9  C   UNL     1      10.389  14.459  18.216  0.00  0.00    +0.000 C 
ATOM     10  C   UNL     1       9.187  13.989  18.628  0.00  0.00    +0.000 C 
ATOM     11  C   UNL     1       7.860  14.681  18.443  0.00  0.00    +0.000 C 
ATOM     12  O   UNL     1       9.039  12.921  19.485  0.00  0.00    +0.000 OA
BRANCH   9  13
ATOM     13  C   UNL     1      10.599  15.775  17.516  0.00  0.00    +0.000 C 
ATOM     14  O   UNL     1      10.790  15.873  16.314  0.00  0.00    +0.000 OA
BRANCH  13  15
ATOM     15  O   UNL     1      10.505  16.839  18.361  0.00  0.00    +0.000 OA
ATOM     16  C   UNL     1       9.860  17.989  17.799  0.00  0.00    +0.000 C 
ENDBRANCH  13  15
ENDBRANCH   9  13
ENDBRANCH   3   4
ENDBRANCH   2   3
ENDBRANCH   1   2
BRANCH   1  17
ATOM     17  C   UNL     1       7.187   7.429  17.967  0.00  0.00    +0.000 C 
BRANCH  17  18
ATOM     18  C   UNL     1       7.224   6.215  17.047  0.00  0.00    +0.000 C 
BRANCH  18  19
ATOM     19  C   UNL     1       5.789   5.849  16.685  0.00  0.00    +0.000 C 
BRANCH  19  20
ATOM     20  C   UNL     1       5.254   4.714  17.542  0.00  0.00    +0.000 C 
BRANCH  20  21
ATOM     21  C   UNL     1       4.254   3.899  16.730  0.00  0.00    +0.000 C 
BRANCH  21  22
ATOM     22  C   UNL     1       3.387   3.047  17.640  0.00  0.00    +0.000 C 
BRANCH  22  23
ATOM     23  C   UNL     1       4.178   2.609  18.864  0.00  0.00    +0.000 C 
BRANCH  23  24
ATOM     24  C   UNL     1       3.419   2.968  20.132  0.00  0.00    +0.000 C 
BRANCH  24  25
ATOM     25  C   UNL     1       1.962   2.542  20.024  0.00  0.00    +0.000 C 
BRANCH  25  26
ATOM     26  C   UNL     1       1.046   3.730  20.276  0.00  0.00    +0.000 C 
BRANCH  26  27
ATOM     27  C   UNL     1       1.856   5.008  20.448  0.00  0.00    +0.000 C 
BRANCH  27  28
ATOM     28  C   UNL     1       1.809   5.847  19.177  0.00  0.00    +0.000 C 
BRANCH  28  30
ATOM     29  C   UNL     1       2.804   7.799  17.955  0.00  0.00    +0.000 C 
ATOM     30  C   UNL     1       2.823   6.985  19.236  0.00  0.00    +0.000 C 
ENDBRANCH  28  30
ENDBRANCH  27  28
ENDBRANCH  26  27
ENDBRANCH  25  26
ENDBRANCH  24  25
ENDBRANCH  23  24
ENDBRANCH  22  23
ENDBRANCH  21  22
ENDBRANCH  20  21
ENDBRANCH  19  20
ENDBRANCH  18  19
ENDBRANCH  17  18
ENDBRANCH   1  17
TORSDOF 18
ENDMDL
MODEL 3
REMARK VINA RESULT:      -6.1      4.548      9.781
REMARK  Name = 
REMARK  21 active torsions:
REMARK  status: ('A' for Active; 'I' for Inactive)
REMARK    1  A    between atoms: C_1  and  C_2
REMARK    2  A    between atoms: C_2  and  C_3
REMARK    3  A    between atoms: C_3  and  C_4
REMARK    4  A    between atoms: C_4  and  C_5
REMARK    5  A    between atoms: C_5  and  C_6
REMARK    6  A    between atoms: C_6  and  C_7
REMARK    7  A    between atoms: C_7  and  C_8
REMARK    8  A    between atoms: C_8  and  C_9
REMARK    9  A    between atoms: C_9  and  C_10
REMARK   10  A    between atoms: C_10  and  C_11
REMARK   11  A    between atoms: C_11  and  C_12
REMARK   12  A    between atoms: C_12  and  C_13
REMARK   13  A    between atoms: C_13  and  C_14
REMARK   14  A    between atoms: C_14  and  C_15
REMARK   15  A    between atoms: C_15  and  C_16
REMARK   16  A    between atoms: C_16  and  O_17
REMARK   17  A    between atoms: O_17  and  P_18
REMARK   18  A    between atoms: C_23  and  C_24
REMARK   19  A    between atoms: C_24  and  O_26
REMARK   20  A    between atoms: O_26  and  C_27
REMARK   21  A    between atoms: C_28  and  C_29
REMARK                            x       y       z     vdW  Elec       q    Type
REMARK                         _______ _______ _______ _____ _____    ______ ____
ROOT
ATOM      1  C   UNL     1       1.393   8.916  17.793  0.00  0.00    +0.000 C 
ENDROOT
BRANCH   1   2
ATOM      2  C   UNL     1       1.649  10.320  18.325  0.00  0.00    +0.000 C 
BRANCH   2   3
ATOM      3  O   UNL     1       0.746  10.623  19.373  0.00  0.00    +0.000 OA
BRANCH   3   4
ATOM      4  P   UNL     1      -0.118  11.974  19.178  0.00  0.00    +0.000 P 
ATOM      5  O   UNL     1      -1.025  11.911  17.981  0.00  0.00    +0.000 OA
ATOM      6  C   UNL     1      -1.014  12.120  20.699  0.00  0.00    +0.000 C 
ATOM      7  C   UNL     1      -0.223  12.577  21.900  0.00  0.00    +0.000 C 
ATOM      8  C   UNL     1       0.171  14.043  21.744  0.00  0.00    +0.000 C 
ATOM      9  C   UNL     1       1.519  14.270  21.102  0.00  0.00    +0.000 C 
ATOM     10  C   UNL     1       1.858  13.790  19.882  0.00  0.00    +0.000 C 
ATOM     11  C   UNL     1       3.130  14.102  19.134  0.00  0.00    +0.000 C 
ATOM     12  O   UNL     1       0.978  13.135  19.049  0.00  0.00    +0.000 OA
BRANCH   9  13
ATOM     13  C   UNL     1       2.360  15.220  21.912  0.00  0.00    +0.000 C 
ATOM     14  O   UNL     1       3.216  14.854  22.701  0.00  0.00    +0.000 OA
BRANCH  13  15
ATOM     15  O   UNL     1       2.093  16.527  21.630  0.00  0.00    +0.000 OA
ATOM     16  C   UNL     1       3.255  17.344  21.442  0.00  0.00    +0.000 C 
ENDBRANCH  13  15
ENDBRANCH   9  13
ENDBRANCH   3   4
ENDBRANCH   2   3
ENDBRANCH   1   2
BRANCH   1  17
ATOM     17  C   UNL     1       2.659   8.091  17.965  0.00  0.00    +0.000 C 
BRANCH  17  18
ATOM     18  C   UNL     1       2.385   6.627  18.285  0.00  0.00    +0.000 C 
BRANCH  18  19
ATOM     19  C   UNL     1       2.602   6.419  19.780  0.00  0.00    +0.000 C 
BRANCH  19  20
ATOM     20  C   UNL     1       1.541   5.522  20.394  0.00  0.00    +0.000 C 
BRANCH  20  21
ATOM     21  C   UNL     1       2.216   4.458  21.251  0.00  0.00    +0.000 C 
BRANCH  21  22
ATOM     22  C   UNL     1       1.891   3.066  20.739  0.00  0.00    +0.000 C 
BRANCH  22  23
ATOM     23  C   UNL     1       0.851   3.140  19.631  0.00  0.00    +0.000 C 
BRANCH  23  24
ATOM     24  C   UNL     1       1.523   3.005  18.274  0.00  0.00    +0.000 C 
BRANCH  24  25
ATOM     25  C   UNL     1       2.854   2.278  18.405  0.00  0.00    +0.000 C 
BRANCH  25  26
ATOM     26  C   UNL     1       3.931   3.004  17.612  0.00  0.00    +0.000 C 
BRANCH  26  27
ATOM     27  C   UNL     1       4.906   3.708  18.546  0.00  0.00    +0.000 C 
BRANCH  27  28
ATOM     28  C   UNL     1       5.526   4.919  17.859  0.00  0.00    +0.000 C 
BRANCH  28  30
ATOM     29  C   UNL     1       5.174   6.354  15.832  0.00  0.00    +0.000 C 
ATOM     30  C   UNL     1       5.188   4.935  16.372  0.00  0.00    +0.000 C 
ENDBRANCH  28  30
ENDBRANCH  27  28
ENDBRANCH  26  27
ENDBRANCH  25  26
ENDBRANCH  24  25
ENDBRANCH  23  24
ENDBRANCH  22  23
ENDBRANCH  21  22
ENDBRANCH  20  21
ENDBRANCH  19  20
ENDBRANCH  18  19
ENDBRANCH  17  18
ENDBRANCH   1  17
TORSDOF 18
ENDMDL
MODEL 4
REMARK VINA RESULT:      -5.9      5.878     11.232
REMARK  Name = 
REMARK  21 active torsions:
REMARK  status: ('A' for Active; 'I' for Inactive)
REMARK    1  A    between atoms: C_1  and  C_2
REMARK    2  A    between atoms: C_2  and  C_3
REMARK    3  A    between atoms: C_3  and  C_4
REMARK    4  A    between atoms: C_4  and  C_5
REMARK    5  A    between atoms: C_5  and  C_6
REMARK    6  A    between atoms: C_6  and  C_7
REMARK    7  A    between atoms: C_7  and  C_8
REMARK    8  A    between atoms: C_8  and  C_9
REMARK    9  A    between atoms: C_9  and  C_10
REMARK   10  A    between atoms: C_10  and  C_11
REMARK   11  A    between atoms: C_11  and  C_12
REMARK   12  A    between atoms: C_12  and  C_13
REMARK   13  A    between atoms: C_13  and  C_14
REMARK   14  A    between atoms: C_14  and  C_15
REMARK   15  A    between atoms: C_15  and  C_16
REMARK   16  A    between atoms: C_16  and  O_17
REMARK   17  A    between atoms: O_17  and  P_18
REMARK   18  A    between atoms: C_23  and  C_24
REMARK   19  A    between atoms: C_24  and  O_26
REMARK   20  A    between atoms: O_26  and  C_27
REMARK   21  A    between atoms: C_28  and  C_29
REMARK                            x       y       z     vdW  Elec       q    Type
REMARK                         _______ _______ _______ _____ _____    ______ ____
ROOT
ATOM      1  C   UNL     1      -0.532  10.446  18.656  0.00  0.00    +0.000 C 
ENDROOT
BRANCH   1   2
ATOM      2  C   UNL     1      -0.658  11.820  19.303  0.00  0.00    +0.000 C 
BRANCH   2   3
ATOM      3  O   UNL     1      -1.378  11.729  20.519  0.00  0.00    +0.000 OA
BRANCH   3   4
ATOM      4  P   UNL     1      -0.503  11.924  21.862  0.00  0.00    +0.000 P 
ATOM      5  O   UNL     1       0.429  10.772  22.116  0.00  0.00    +0.000 OA
ATOM      6  C   UNL     1       0.363  13.444  21.578  0.00  0.00    +0.000 C 
ATOM      7  C   UNL     1      -0.450  14.709  21.702  0.00  0.00    +0.000 C 
ATOM      8  C   UNL     1      -0.832  14.950  23.159  0.00  0.00    +0.000 C 
ATOM      9  C   UNL     1      -2.165  14.369  23.568  0.00  0.00    +0.000 C 
ATOM     10  C   UNL     1      -2.481  13.058  23.442  0.00  0.00    +0.000 C 
ATOM     11  C   UNL     1      -3.736  12.400  23.959  0.00  0.00    +0.000 C 
ATOM     12  O   UNL     1      -1.589  12.095  23.027  0.00  0.00    +0.000 OA
BRANCH   9  13
ATOM     13  C   UNL     1      -3.017  15.391  24.272  0.00  0.00    +0.000 C 
ATOM     14  O   UNL     1      -3.015  15.547  25.482  0.00  0.00    +0.000 OA
BRANCH  13  15
ATOM     15  O   UNL     1      -3.748  16.149  23.407  0.00  0.00    +0.000 OA
ATOM     16  C   UNL     1      -3.466  17.553  23.462  0.00  0.00    +0.000 C 
ENDBRANCH  13  15
ENDBRANCH   9  13
ENDBRANCH   3   4
ENDBRANCH   2   3
ENDBRANCH   1   2
BRANCH   1  17
ATOM     17  C   UNL     1       0.930  10.027  18.682  0.00  0.00    +0.000 C 
BRANCH  17  18
ATOM     18  C   UNL     1       1.288   9.022  17.594  0.00  0.00    +0.000 C 
BRANCH  18  19
ATOM     19  C   UNL     1       2.624   8.384  17.957  0.00  0.00    +0.000 C 
BRANCH  19  20
ATOM     20  C   UNL     1       2.471   6.931  18.376  0.00  0.00    +0.000 C 
BRANCH  20  21
ATOM     21  C   UNL     1       2.307   6.859  19.889  0.00  0.00    +0.000 C 
BRANCH  21  22
ATOM     22  C   UNL     1       2.419   5.425  20.376  0.00  0.00    +0.000 C 
BRANCH  22  23
ATOM     23  C   UNL     1       1.048   4.766  20.397  0.00  0.00    +0.000 C 
BRANCH  23  24
ATOM     24  C   UNL     1       1.186   3.282  20.697  0.00  0.00    +0.000 C 
BRANCH  24  25
ATOM     25  C   UNL     1       2.177   2.632  19.742  0.00  0.00    +0.000 C 
BRANCH  25  26
ATOM     26  C   UNL     1       1.577   2.536  18.346  0.00  0.00    +0.000 C 
BRANCH  26  27
ATOM     27  C   UNL     1       2.446   3.273  17.335  0.00  0.00    +0.000 C 
BRANCH  27  28
ATOM     28  C   UNL     1       3.921   2.978  17.580  0.00  0.00    +0.000 C 
BRANCH  28  30
ATOM     29  C   UNL     1       5.514   4.574  18.678  0.00  0.00    +0.000 C 
ATOM     30  C   UNL     1       4.766   4.234  17.401  0.00  0.00    +0.000 C 
ENDBRANCH  28  30
ENDBRANCH  27  28
ENDBRANCH  26  27
ENDBRANCH  25  26
ENDBRANCH  24  25
ENDBRANCH  23  24
ENDBRANCH  22  23
ENDBRANCH  21  22
ENDBRANCH  20  21
ENDBRANCH  19  20
ENDBRANCH  18  19
ENDBRANCH  17  18
ENDBRANCH   1  17
TORSDOF 18
ENDMDL
MODEL 5
REMARK VINA RESULT:      -5.9      1.944      4.426
REMARK  Name = 
REMARK  21 active torsions:
REMARK  status: ('A' for Active; 'I' for Inactive)
REMARK    1  A    between atoms: C_1  and  C_2
REMARK    2  A    between atoms: C_2  and  C_3
REMARK    3  A    between atoms: C_3  and  C_4
REMARK    4  A    between atoms: C_4  and  C_5
REMARK    5  A    between atoms: C_5  and  C_6
REMARK    6  A    between atoms: C_6  and  C_7
REMARK    7  A    between atoms: C_7  and  C_8
REMARK    8  A    between atoms: C_8  and  C_9
REMARK    9  A    between atoms: C_9  and  C_10
REMARK   10  A    between atoms: C_10  and  C_11
REMARK   11  A    between atoms: C_11  and  C_12
REMARK   12  A    between atoms: C_12  and  C_13
REMARK   13  A    between atoms: C_13  and  C_14
REMARK   14  A    between atoms: C_14  and  C_15
REMARK   15  A    between atoms: C_15  and  C_16
REMARK   16  A    between atoms: C_16  and  O_17
REMARK   17  A    between atoms: O_17  and  P_18
REMARK   18  A    between atoms: C_23  and  C_24
REMARK   19  A    between atoms: C_24  and  O_26
REMARK   20  A    between atoms: O_26  and  C_27
REMARK   21  A    between atoms: C_28  and  C_29
REMARK                            x       y       z     vdW  Elec       q    Type
REMARK                         _______ _______ _______ _____ _____    ______ ____
ROOT
ATOM      1  C   UNL     1       1.889   8.499  18.815  0.00  0.00    +0.000 C 
ENDROOT
BRANCH   1   2
ATOM      2  C   UNL     1       2.675   8.073  17.582  0.00  0.00    +0.000 C 
BRANCH   2   3
ATOM      3  O   UNL     1       4.002   7.728  17.937  0.00  0.00    +0.000 OA
BRANCH   3   4
ATOM      4  P   UNL     1       4.661   6.528  17.079  0.00  0.00    +0.000 P 
ATOM      5  O   UNL     1       5.061   6.959  15.696  0.00  0.00    +0.000 OA
ATOM      6  C   UNL     1       6.048   6.027  18.061  0.00  0.00    +0.000 C 
ATOM      7  C   UNL     1       5.736   5.221  19.297  0.00  0.00    +0.000 C 
ATOM      8  C   UNL     1       5.237   3.833  18.910  0.00  0.00    +0.000 C 
ATOM      9  C   UNL     1       3.737   3.714  18.777  0.00  0.00    +0.000 C 
ATOM     10  C   UNL     1       2.995   4.485  17.947  0.00  0.00    +0.000 C 
ATOM     11  C   UNL     1       1.522   4.318  17.669  0.00  0.00    +0.000 C 
ATOM     12  O   UNL     1       3.536   5.387  17.057  0.00  0.00    +0.000 OA
BRANCH   9  13
ATOM     13  C   UNL     1       3.208   2.537  19.552  0.00  0.00    +0.000 C 
ATOM     14  O   UNL     1       3.036   1.433  19.062  0.00  0.00    +0.000 OA
BRANCH  13  15
ATOM     15  O   UNL     1       2.991   2.830  20.866  0.00  0.00    +0.000 OA
ATOM     16  C   UNL     1       1.632   2.673  21.293  0.00  0.00    +0.000 C 
ENDBRANCH  13  15
ENDBRANCH   9  13
ENDBRANCH   3   4
ENDBRANCH   2   3
ENDBRANCH   1   2
BRANCH   1  17
ATOM     17  C   UNL     1       1.951   7.380  19.844  0.00  0.00    +0.000 C 
BRANCH  17  18
ATOM     18  C   UNL     1       1.671   7.852  21.265  0.00  0.00    +0.000 C 
BRANCH  18  19
ATOM     19  C   UNL     1       0.571   8.906  21.208  0.00  0.00    +0.000 C 
BRANCH  19  20
ATOM     20  C   UNL     1       0.376   9.603  22.544  0.00  0.00    +0.000 C 
BRANCH  20  21
ATOM     21  C   UNL     1      -0.871  10.477  22.478  0.00  0.00    +0.000 C 
BRANCH  21  22
ATOM     22  C   UNL     1      -0.508  11.911  22.135  0.00  0.00    +0.000 C 
BRANCH  22  23
ATOM     23  C   UNL     1      -1.484  12.473  21.112  0.00  0.00    +0.000 C 
BRANCH  23  24
ATOM     24  C   UNL     1      -1.579  11.541  19.915  0.00  0.00    +0.000 C 
BRANCH  24  25
ATOM     25  C   UNL     1      -0.388  11.735  18.988  0.00  0.00    +0.000 C 
BRANCH  25  26
ATOM     26  C   UNL     1      -0.440  13.115  18.346  0.00  0.00    +0.000 C 
BRANCH  26  27
ATOM     27  C   UNL     1       0.786  13.933  18.727  0.00  0.00    +0.000 C 
BRANCH  27  28
ATOM     28  C   UNL     1       2.004  13.031  18.886  0.00  0.00    +0.000 C 
BRANCH  28  30
ATOM     29  C   UNL     1       2.982  15.154  17.977  0.00  0.00    +0.000 C 
ATOM     30  C   UNL     1       3.259  13.708  18.346  0.00  0.00    +0.000 C 
ENDBRANCH  28  30
ENDBRANCH  27  28
ENDBRANCH  26  27
ENDBRANCH  25  26
ENDBRANCH  24  25
ENDBRANCH  23  24
ENDBRANCH  22  23
ENDBRANCH  21  22
ENDBRANCH  20  21
ENDBRANCH  19  20
ENDBRANCH  18  19
ENDBRANCH  17  18
ENDBRANCH   1  17
TORSDOF 18
ENDMDL
MODEL 6
REMARK VINA RESULT:      -5.9      6.495     10.413
REMARK  Name = 
REMARK  21 active torsions:
REMARK  status: ('A' for Active; 'I' for Inactive)
REMARK    1  A    between atoms: C_1  and  C_2
REMARK    2  A    between atoms: C_2  and  C_3
REMARK    3  A    between atoms: C_3  and  C_4
REMARK    4  A    between atoms: C_4  and  C_5
REMARK    5  A    between atoms: C_5  and  C_6
REMARK    6  A    between atoms: C_6  and  C_7
REMARK    7  A    between atoms: C_7  and  C_8
REMARK    8  A    between atoms: C_8  and  C_9
REMARK    9  A    between atoms: C_9  and  C_10
REMARK   10  A    between atoms: C_10  and  C_11
REMARK   11  A    between atoms: C_11  and  C_12
REMARK   12  A    between atoms: C_12  and  C_13
REMARK   13  A    between atoms: C_13  and  C_14
REMARK   14  A    between atoms: C_14  and  C_15
REMARK   15  A    between atoms: C_15  and  C_16
REMARK   16  A    between atoms: C_16  and  O_17
REMARK   17  A    between atoms: O_17  and  P_18
REMARK   18  A    between atoms: C_23  and  C_24
REMARK   19  A    between atoms: C_24  and  O_26
REMARK   20  A    between atoms: O_26  and  C_27
REMARK   21  A    between atoms: C_28  and  C_29
REMARK                            x       y       z     vdW  Elec       q    Type
REMARK                         _______ _______ _______ _____ _____    ______ ____
ROOT
ATOM      1  C   UNL     1       8.700   8.779  18.589  0.00  0.00    +0.000 C 
ENDROOT
BRANCH   1   2
ATOM      2  C   UNL     1       9.412  10.022  18.071  0.00  0.00    +0.000 C 
BRANCH   2   3
ATOM      3  O   UNL     1       8.838  11.189  18.633  0.00  0.00    +0.000 OA
BRANCH   3   4
ATOM      4  P   UNL     1       9.699  11.893  19.803  0.00  0.00    +0.000 P 
ATOM      5  O   UNL     1       9.405  11.318  21.161  0.00  0.00    +0.000 OA
ATOM      6  C   UNL     1      11.378  11.626  19.305  0.00  0.00    +0.000 C 
ATOM      7  C   UNL     1      11.881  12.479  18.167  0.00  0.00    +0.000 C 
ATOM      8  C   UNL     1      12.021  13.930  18.617  0.00  0.00    +0.000 C 
ATOM      9  C   UNL     1      10.802  14.788  18.372  0.00  0.00    +0.000 C 
ATOM     10  C   UNL     1       9.571  14.496  18.853  0.00  0.00    +0.000 C 
ATOM     11  C   UNL     1       8.354  15.383  18.760  0.00  0.00    +0.000 C 
ATOM     12  O   UNL     1       9.315  13.445  19.705  0.00  0.00    +0.000 OA
BRANCH   9  13
ATOM     13  C   UNL     1      11.166  16.071  17.673  0.00  0.00    +0.000 C 
ATOM     14  O   UNL     1      11.099  16.220  16.464  0.00  0.00    +0.000 OA
BRANCH  13  15
ATOM     15  O   UNL     1      11.530  17.056  18.543  0.00  0.00    +0.000 OA
ATOM     16  C   UNL     1      12.283  18.123  17.952  0.00  0.00    +0.000 C 
ENDBRANCH  13  15
ENDBRANCH   9  13
ENDBRANCH   3   4
ENDBRANCH   2   3
ENDBRANCH   1   2
BRANCH   1  17
ATOM     17  C   UNL     1       7.447   8.551  17.755  0.00  0.00    +0.000 C 
BRANCH  17  18
ATOM     18  C   UNL     1       7.458   7.228  17.001  0.00  0.00    +0.000 C 
BRANCH  18  19
ATOM     19  C   UNL     1       7.543   6.099  18.023  0.00  0.00    +0.000 C 
BRANCH  19  20
ATOM     20  C   UNL     1       7.356   4.733  17.385  0.00  0.00    +0.000 C 
BRANCH  20  21
ATOM     21  C   UNL     1       6.143   4.769  16.464  0.00  0.00    +0.000 C 
BRANCH  21  22
ATOM     22  C   UNL     1       5.214   3.601  16.748  0.00  0.00    +0.000 C 
BRANCH  22  23
ATOM     23  C   UNL     1       4.209   3.977  17.827  0.00  0.00    +0.000 C 
BRANCH  23  24
ATOM     24  C   UNL     1       3.934   5.472  17.788  0.00  0.00    +0.000 C 
BRANCH  24  25
ATOM     25  C   UNL     1       2.440   5.744  17.884  0.00  0.00    +0.000 C 
BRANCH  25  26
ATOM     26  C   UNL     1       1.708   4.501  18.368  0.00  0.00    +0.000 C 
BRANCH  26  27
ATOM     27  C   UNL     1       1.334   4.634  19.839  0.00  0.00    +0.000 C 
BRANCH  27  28
ATOM     28  C   UNL     1       0.812   3.309  20.381  0.00  0.00    +0.000 C 
BRANCH  28  30
ATOM     29  C   UNL     1       3.091   2.555  21.109  0.00  0.00    +0.000 C 
ATOM     30  C   UNL     1       1.663   2.824  21.550  0.00  0.00    +0.000 C 
ENDBRANCH  28  30
ENDBRANCH  27  28
ENDBRANCH  26  27
ENDBRANCH  25  26
ENDBRANCH  24  25
ENDBRANCH  23  24
ENDBRANCH  22  23
ENDBRANCH  21  22
ENDBRANCH  20  21
ENDBRANCH  19  20
ENDBRANCH  18  19
ENDBRANCH  17  18
ENDBRANCH   1  17
TORSDOF 18
ENDMDL
MODEL 7
REMARK VINA RESULT:      -5.9      5.972     10.435
REMARK  Name = 
REMARK  21 active torsions:
REMARK  status: ('A' for Active; 'I' for Inactive)
REMARK    1  A    between atoms: C_1  and  C_2
REMARK    2  A    between atoms: C_2  and  C_3
REMARK    3  A    between atoms: C_3  and  C_4
REMARK    4  A    between atoms: C_4  and  C_5
REMARK    5  A    between atoms: C_5  and  C_6
REMARK    6  A    between atoms: C_6  and  C_7
REMARK    7  A    between atoms: C_7  and  C_8
REMARK    8  A    between atoms: C_8  and  C_9
REMARK    9  A    between atoms: C_9  and  C_10
REMARK   10  A    between atoms: C_10  and  C_11
REMARK   11  A    between atoms: C_11  and  C_12
REMARK   12  A    between atoms: C_12  and  C_13
REMARK   13  A    between atoms: C_13  and  C_14
REMARK   14  A    between atoms: C_14  and  C_15
REMARK   15  A    between atoms: C_15  and  C_16
REMARK   16  A    between atoms: C_16  and  O_17
REMARK   17  A    between atoms: O_17  and  P_18
REMARK   18  A    between atoms: C_23  and  C_24
REMARK   19  A    between atoms: C_24  and  O_26
REMARK   20  A    between atoms: O_26  and  C_27
REMARK   21  A    between atoms: C_28  and  C_29
REMARK                            x       y       z     vdW  Elec       q    Type
REMARK                         _______ _______ _______ _____ _____    ______ ____
ROOT
ATOM      1  C   UNL     1       8.238   9.670  18.011  0.00  0.00    +0.000 C 
ENDROOT
BRANCH   1   2
ATOM      2  C   UNL     1       9.571  10.336  18.328  0.00  0.00    +0.000 C 
BRANCH   2   3
ATOM      3  O   UNL     1       9.558  10.865  19.642  0.00  0.00    +0.000 OA
BRANCH   3   4
ATOM      4  P   UNL     1      10.548  12.115  19.898  0.00  0.00    +0.000 P 
ATOM      5  O   UNL     1      11.932  11.682  20.298  0.00  0.00    +0.000 OA
ATOM      6  C   UNL     1      10.531  12.984  18.355  0.00  0.00    +0.000 C 
ATOM      7  C   UNL     1       9.291  13.790  18.055  0.00  0.00    +0.000 C 
ATOM      8  C   UNL     1       9.211  14.999  18.982  0.00  0.00    +0.000 C 
ATOM      9  C   UNL     1       8.433  14.769  20.256  0.00  0.00    +0.000 C 
ATOM     10  C   UNL     1       8.725  13.793  21.147  0.00  0.00    +0.000 C 
ATOM     11  C   UNL     1       8.076  13.605  22.495  0.00  0.00    +0.000 C 
ATOM     12  O   UNL     1       9.826  12.971  21.043  0.00  0.00    +0.000 OA
BRANCH   9  13
ATOM     13  C   UNL     1       7.412  15.853  20.478  0.00  0.00    +0.000 C 
ATOM     14  O   UNL     1       7.696  16.975  20.865  0.00  0.00    +0.000 OA
BRANCH  13  15
ATOM     15  O   UNL     1       6.148  15.456  20.155  0.00  0.00    +0.000 OA
ATOM     16  C   UNL     1       5.643  16.017  18.937  0.00  0.00    +0.000 C 
ENDBRANCH  13  15
ENDBRANCH   9  13
ENDBRANCH   3   4
ENDBRANCH   2   3
ENDBRANCH   1   2
BRANCH   1  17
ATOM     17  C   UNL     1       8.286   8.228  18.494  0.00  0.00    +0.000 C 
BRANCH  17  18
ATOM     18  C   UNL     1       7.559   7.260  17.570  0.00  0.00    +0.000 C 
BRANCH  18  19
ATOM     19  C   UNL     1       7.747   5.849  18.117  0.00  0.00    +0.000 C 
BRANCH  19  20
ATOM     20  C   UNL     1       7.090   4.800  17.235  0.00  0.00    +0.000 C 
BRANCH  20  21
ATOM     21  C   UNL     1       5.785   5.357  16.678  0.00  0.00    +0.000 C 
BRANCH  21  22
ATOM     22  C   UNL     1       4.757   4.253  16.506  0.00  0.00    +0.000 C 
BRANCH  22  23
ATOM     23  C   UNL     1       3.543   4.521  17.383  0.00  0.00    +0.000 C 
BRANCH  23  24
ATOM     24  C   UNL     1       2.527   3.401  17.225  0.00  0.00    +0.000 C 
BRANCH  24  25
ATOM     25  C   UNL     1       1.229   3.752  17.938  0.00  0.00    +0.000 C 
BRANCH  25  26
ATOM     26  C   UNL     1       0.892   2.687  18.973  0.00  0.00    +0.000 C 
BRANCH  26  27
ATOM     27  C   UNL     1       0.934   3.271  20.379  0.00  0.00    +0.000 C 
BRANCH  27  28
ATOM     28  C   UNL     1       2.078   2.660  21.179  0.00  0.00    +0.000 C 
BRANCH  28  30
ATOM     29  C   UNL     1       4.344   2.164  20.222  0.00  0.00    +0.000 C 
ATOM     30  C   UNL     1       3.419   3.247  20.749  0.00  0.00    +0.000 C 
ENDBRANCH  28  30
ENDBRANCH  27  28
ENDBRANCH  26  27
ENDBRANCH  25  26
ENDBRANCH  24  25
ENDBRANCH  23  24
ENDBRANCH  22  23
ENDBRANCH  21  22
ENDBRANCH  20  21
ENDBRANCH  19  20
ENDBRANCH  18  19
ENDBRANCH  17  18
ENDBRANCH   1  17
TORSDOF 18
ENDMDL
MODEL 8
REMARK VINA RESULT:      -5.8      3.414      4.822
REMARK  Name = 
REMARK  21 active torsions:
REMARK  status: ('A' for Active; 'I' for Inactive)
REMARK    1  A    between atoms: C_1  and  C_2
REMARK    2  A    between atoms: C_2  and  C_3
REMARK    3  A    between atoms: C_3  and  C_4
REMARK    4  A    between atoms: C_4  and  C_5
REMARK    5  A    between atoms: C_5  and  C_6
REMARK    6  A    between atoms: C_6  and  C_7
REMARK    7  A    between atoms: C_7  and  C_8
REMARK    8  A    between atoms: C_8  and  C_9
REMARK    9  A    between atoms: C_9  and  C_10
REMARK   10  A    between atoms: C_10  and  C_11
REMARK   11  A    between atoms: C_11  and  C_12
REMARK   12  A    between atoms: C_12  and  C_13
REMARK   13  A    between atoms: C_13  and  C_14
REMARK   14  A    between atoms: C_14  and  C_15
REMARK   15  A    between atoms: C_15  and  C_16
REMARK   16  A    between atoms: C_16  and  O_17
REMARK   17  A    between atoms: O_17  and  P_18
REMARK   18  A    between atoms: C_23  and  C_24
REMARK   19  A    between atoms: C_24  and  O_26
REMARK   20  A    between atoms: O_26  and  C_27
REMARK   21  A    between atoms: C_28  and  C_29
REMARK                            x       y       z     vdW  Elec       q    Type
REMARK                         _______ _______ _______ _____ _____    ______ ____
ROOT
ATOM      1  C   UNL     1       1.552   9.225  17.659  0.00  0.00    +0.000 C 
ENDROOT
BRANCH   1   2
ATOM      2  C   UNL     1       2.697   8.247  17.887  0.00  0.00    +0.000 C 
BRANCH   2   3
ATOM      3  O   UNL     1       2.214   6.915  17.893  0.00  0.00    +0.000 OA
BRANCH   3   4
ATOM      4  P   UNL     1       3.052   5.877  18.803  0.00  0.00    +0.000 P 
ATOM      5  O   UNL     1       2.673   5.946  20.256  0.00  0.00    +0.000 OA
ATOM      6  C   UNL     1       2.686   4.301  18.082  0.00  0.00    +0.000 C 
ATOM      7  C   UNL     1       3.367   3.990  16.772  0.00  0.00    +0.000 C 
ATOM      8  C   UNL     1       4.862   3.782  16.991  0.00  0.00    +0.000 C 
ATOM      9  C   UNL     1       5.704   5.025  16.830  0.00  0.00    +0.000 C 
ATOM     10  C   UNL     1       5.505   6.162  17.538  0.00  0.00    +0.000 C 
ATOM     11  C   UNL     1       6.396   7.379  17.522  0.00  0.00    +0.000 C 
ATOM     12  O   UNL     1       4.585   6.275  18.557  0.00  0.00    +0.000 OA
BRANCH   9  13
ATOM     13  C   UNL     1       6.873   4.782  15.913  0.00  0.00    +0.000 C 
ATOM     14  O   UNL     1       7.932   4.304  16.287  0.00  0.00    +0.000 OA
BRANCH  13  15
ATOM     15  O   UNL     1       6.600   5.107  14.618  0.00  0.00    +0.000 OA
ATOM     16  C   UNL     1       6.416   3.983  13.749  0.00  0.00    +0.000 C 
ENDBRANCH  13  15
ENDBRANCH   9  13
ENDBRANCH   3   4
ENDBRANCH   2   3
ENDBRANCH   1   2
BRANCH   1  17
ATOM     17  C   UNL     1       1.488  10.186  18.836  0.00  0.00    +0.000 C 
BRANCH  17  18
ATOM     18  C   UNL     1       0.551   9.722  19.943  0.00  0.00    +0.000 C 
BRANCH  18  19
ATOM     19  C   UNL     1      -0.876  10.066  19.534  0.00  0.00    +0.000 C 
BRANCH  19  20
ATOM     20  C   UNL     1      -1.050  11.549  19.253  0.00  0.00    +0.000 C 
BRANCH  20  21
ATOM     21  C   UNL     1      -1.663  11.730  17.869  0.00  0.00    +0.000 C 
BRANCH  21  22
ATOM     22  C   UNL     1      -2.333  10.450  17.404  0.00  0.00    +0.000 C 
BRANCH  22  23
ATOM     23  C   UNL     1      -3.628  10.768  16.672  0.00  0.00    +0.000 C 
BRANCH  23  24
ATOM     24  C   UNL     1      -4.573  11.528  17.590  0.00  0.00    +0.000 C 
BRANCH  24  25
ATOM     25  C   UNL     1      -5.560  10.577  18.250  0.00  0.00    +0.000 C 
BRANCH  25  26
ATOM     26  C   UNL     1      -6.677  11.361  18.924  0.00  0.00    +0.000 C 
BRANCH  26  27
ATOM     27  C   UNL     1      -6.126  12.604  19.609  0.00  0.00    +0.000 C 
BRANCH  27  28
ATOM     28  C   UNL     1      -6.079  12.407  21.119  0.00  0.00    +0.000 C 
BRANCH  28  30
ATOM     29  C   UNL     1      -3.906  13.575  20.666  0.00  0.00    +0.000 C 
ATOM     30  C   UNL     1      -4.705  12.768  21.674  0.00  0.00    +0.000 C 
ENDBRANCH  28  30
ENDBRANCH  27  28
ENDBRANCH  26  27
ENDBRANCH  25  26
ENDBRANCH  24  25
ENDBRANCH  23  24
ENDBRANCH  22  23
ENDBRANCH  21  22
ENDBRANCH  20  21
ENDBRANCH  19  20
ENDBRANCH  18  19
ENDBRANCH  17  18
ENDBRANCH   1  17
TORSDOF 18
ENDMDL
MODEL 9
REMARK VINA RESULT:      -5.8      6.402     10.501
REMARK  Name = 
REMARK  21 active torsions:
REMARK  status: ('A' for Active; 'I' for Inactive)
REMARK    1  A    between atoms: C_1  and  C_2
REMARK    2  A    between atoms: C_2  and  C_3
REMARK    3  A    between atoms: C_3  and  C_4
REMARK    4  A    between atoms: C_4  and  C_5
REMARK    5  A    between atoms: C_5  and  C_6
REMARK    6  A    between atoms: C_6  and  C_7
REMARK    7  A    between atoms: C_7  and  C_8
REMARK    8  A    between atoms: C_8  and  C_9
REMARK    9  A    between atoms: C_9  and  C_10
REMARK   10  A    between atoms: C_10  and  C_11
REMARK   11  A    between atoms: C_11  and  C_12
REMARK   12  A    between atoms: C_12  and  C_13
REMARK   13  A    between atoms: C_13  and  C_14
REMARK   14  A    between atoms: C_14  and  C_15
REMARK   15  A    between atoms: C_15  and  C_16
REMARK   16  A    between atoms: C_16  and  O_17
REMARK   17  A    between atoms: O_17  and  P_18
REMARK   18  A    between atoms: C_23  and  C_24
REMARK   19  A    between atoms: C_24  and  O_26
REMARK   20  A    between atoms: O_26  and  C_27
REMARK   21  A    between atoms: C_28  and  C_29
REMARK                            x       y       z     vdW  Elec       q    Type
REMARK                         _______ _______ _______ _____ _____    ______ ____
ROOT
ATOM      1  C   UNL     1       9.200   9.544  18.285  0.00  0.00    +0.000 C 
ENDROOT
BRANCH   1   2
ATOM      2  C   UNL     1       9.108  10.570  19.407  0.00  0.00    +0.000 C 
BRANCH   2   3
ATOM      3  O   UNL     1       9.818  11.745  19.060  0.00  0.00    +0.000 OA
BRANCH   3   4
ATOM      4  P   UNL     1      10.864  12.278  20.170  0.00  0.00    +0.000 P 
ATOM      5  O   UNL     1      12.166  11.526  20.143  0.00  0.00    +0.000 OA
ATOM      6  C   UNL     1      11.063  13.992  19.767  0.00  0.00    +0.000 C 
ATOM      7  C   UNL     1       9.920  14.903  20.139  0.00  0.00    +0.000 C 
ATOM      8  C   UNL     1       9.833  15.049  21.655  0.00  0.00    +0.000 C 
ATOM      9  C   UNL     1       8.916  14.059  22.334  0.00  0.00    +0.000 C 
ATOM     10  C   UNL     1       9.048  12.716  22.221  0.00  0.00    +0.000 C 
ATOM     11  C   UNL     1       8.255  11.684  22.984  0.00  0.00    +0.000 C 
ATOM     12  O   UNL     1      10.093  12.105  21.563  0.00  0.00    +0.000 OA
BRANCH   9  13
ATOM     13  C   UNL     1       7.957  14.749  23.267  0.00  0.00    +0.000 C 
ATOM     14  O   UNL     1       8.069  14.728  24.482  0.00  0.00    +0.000 OA
BRANCH  13  15
ATOM     15  O   UNL     1       6.984  15.435  22.604  0.00  0.00    +0.000 OA
ATOM     16  C   UNL     1       5.992  14.608  21.982  0.00  0.00    +0.000 C 
ENDBRANCH  13  15
ENDBRANCH   9  13
ENDBRANCH   3   4
ENDBRANCH   2   3
ENDBRANCH   1   2
BRANCH   1  17
ATOM     17  C   UNL     1       7.798   9.059  17.950  0.00  0.00    +0.000 C 
BRANCH  17  18
ATOM     18  C   UNL     1       7.726   7.561  17.685  0.00  0.00    +0.000 C 
BRANCH  18  19
ATOM     19  C   UNL     1       6.303   7.221  17.258  0.00  0.00    +0.000 C 
BRANCH  19  20
ATOM     20  C   UNL     1       6.222   5.881  16.547  0.00  0.00    +0.000 C 
BRANCH  20  21
ATOM     21  C   UNL     1       5.296   4.954  17.324  0.00  0.00    +0.000 C 
BRANCH  21  22
ATOM     22  C   UNL     1       4.030   5.681  17.741  0.00  0.00    +0.000 C 
BRANCH  22  23
ATOM     23  C   UNL     1       3.858   5.619  19.252  0.00  0.00    +0.000 C 
BRANCH  23  24
ATOM     24  C   UNL     1       2.484   6.138  19.643  0.00  0.00    +0.000 C 
BRANCH  24  25
ATOM     25  C   UNL     1       1.874   5.270  20.734  0.00  0.00    +0.000 C 
BRANCH  25  26
ATOM     26  C   UNL     1       0.999   4.187  20.119  0.00  0.00    +0.000 C 
BRANCH  26  27
ATOM     27  C   UNL     1       1.582   2.806  20.386  0.00  0.00    +0.000 C 
BRANCH  27  28
ATOM     28  C   UNL     1       1.540   1.954  19.123  0.00  0.00    +0.000 C 
BRANCH  28  30
ATOM     29  C   UNL     1       4.039   2.023  19.326  0.00  0.00    +0.000 C 
ATOM     30  C   UNL     1       2.862   2.032  18.367  0.00  0.00    +0.000 C 
ENDBRANCH  28  30
ENDBRANCH  27  28
ENDBRANCH  26  27
ENDBRANCH  25  26
ENDBRANCH  24  25
ENDBRANCH  23  24
ENDBRANCH  22  23
ENDBRANCH  21  22
ENDBRANCH  20  21
ENDBRANCH  19  20
ENDBRANCH  18  19
ENDBRANCH  17  18
ENDBRANCH   1  17
TORSDOF 18
ENDMDL
