MODEL 1
REMARK VINA RESULT:      -9.2      0.000      0.000
REMARK  Name = 
REMARK  7 active torsions:
REMARK  status: ('A' for Active; 'I' for Inactive)
REMARK    1  A    between atoms: C_1  and  N_2
REMARK    2  A    between atoms: C_5  and  C_6
REMARK    3  A    between atoms: N_8  and  C_9
REMARK    4  A    between atoms: C_12  and  N_13
REMARK    5  A    between atoms: C_17  and  C_18
REMARK    6  A    between atoms: C_17  and  C_19
REMARK    7  A    between atoms: C_20  and  C_21
REMARK                            x       y       z     vdW  Elec       q    Type
REMARK                         _______ _______ _______ _____ _____    ______ ____
ROOT
ATOM      1  C   UNL     1       0.843   9.287  19.624  0.00  0.00    +0.000 C 
ATOM      2  C   UNL     1       1.795   9.006  18.447  0.00  0.00    +0.000 C 
ATOM      3  C   UNL     1       2.057   7.499  18.278  0.00  0.00    +0.000 C 
ATOM      4  C   UNL     1       2.526   6.813  19.582  0.00  0.00    +0.000 C 
ATOM      5  C   UNL     1       1.597   7.153  20.753  0.00  0.00    +0.000 C 
ATOM      6  C   UNL     1       1.423   8.670  20.901  0.00  0.00    +0.000 C 
ENDROOT
BRANCH   4   7
ATOM      7  N   UNL     1       2.754   5.359  19.421  0.00  0.00    +0.000 N 
ATOM      8  C   UNL     1       1.826   4.388  19.782  0.00  0.00    +0.000 C 
ATOM      9  O   UNL     1       0.679   4.567  20.149  0.00  0.00    +0.000 OA
ATOM     10  O   UNL     1       2.398   3.140  19.711  0.00  0.00    +0.000 OA
ATOM     11  C   UNL     1       3.717   3.273  19.145  0.00  0.00    +0.000 C 
ATOM     12  C   UNL     1       4.631   2.239  19.804  0.00  0.00    +0.000 C 
ATOM     13  C   UNL     1       3.600   2.981  17.643  0.00  0.00    +0.000 C 
ATOM     14  C   UNL     1       4.061   4.727  19.512  0.00  0.00    +0.000 C 
BRANCH  14  15
ATOM     15  C   UNL     1       5.204   5.366  18.760  0.00  0.00    +0.000 A 
ATOM     16  C   UNL     1       5.038   5.949  17.496  0.00  0.00    +0.000 A 
ATOM     17  C   UNL     1       6.099   6.600  16.866  0.00  0.00    +0.000 A 
ATOM     18  C   UNL     1       7.353   6.643  17.472  0.00  0.00    +0.000 A 
ATOM     19  C   UNL     1       7.551   6.023  18.702  0.00  0.00    +0.000 A 
ATOM     20  C   UNL     1       6.484   5.389  19.342  0.00  0.00    +0.000 A 
ENDBRANCH  14  15
ENDBRANCH   4   7
BRANCH   1  23
ATOM     21  C   UNL     1      -0.685  11.224  19.432  0.00  0.00    +0.000 C 
ATOM     22  O   UNL     1      -1.512  10.527  18.844  0.00  0.00    +0.000 OA
ATOM     23  N   UNL     1       0.545  10.715  19.805  0.00  0.00    +0.000 N 
ATOM     24  H   UNL     1       1.269  11.340  20.126  0.00  0.00    +0.000 HD
BRANCH  21  29
ATOM     25  C   UNL     1       2.129  16.174  18.333  0.00  0.00    +0.000 C 
ATOM     26  N   UNL     1       1.032  15.417  18.890  0.00  0.00    +0.000 N 
ATOM     27  C   UNL     1       0.829  14.064  18.825  0.00  0.00    +0.000 A 
ATOM     28  C   UNL     1      -0.362  13.834  19.472  0.00  0.00    +0.000 A 
ATOM     29  C   UNL     1      -1.049  12.632  19.717  0.00  0.00    +0.000 A 
ATOM     30  C   UNL     1      -2.246  12.873  20.460  0.00  0.00    +0.000 A 
ATOM     31  C   UNL     1      -2.693  14.149  20.911  0.00  0.00    +0.000 A 
ATOM     32  C   UNL     1      -1.978  15.332  20.670  0.00  0.00    +0.000 A 
ATOM     33  C   UNL     1      -0.803  15.148  19.926  0.00  0.00    +0.000 A 
ATOM     34  N   UNL     1       0.082  16.086  19.552  0.00  0.00    +0.000 NA
ENDBRANCH  21  29
ENDBRANCH   1  23
TORSDOF 4
ENDMDL
MODEL 2
REMARK VINA RESULT:      -9.2      1.279      2.256
REMARK  Name = 
REMARK  7 active torsions:
REMARK  status: ('A' for Active; 'I' for Inactive)
REMARK    1  A    between atoms: C_1  and  N_2
REMARK    2  A    between atoms: C_5  and  C_6
REMARK    3  A    between atoms: N_8  and  C_9
REMARK    4  A    between atoms: C_12  and  N_13
REMARK    5  A    between atoms: C_17  and  C_18
REMARK    6  A    between atoms: C_17  and  C_19
REMARK    7  A    between atoms: C_20  and  C_21
REMARK                            x       y       z     vdW  Elec       q    Type
REMARK                         _______ _______ _______ _____ _____    ______ ____
ROOT
ATOM      1  C   UNL     1       0.955   9.231  19.700  0.00  0.00    +0.000 C 
ATOM      2  C   UNL     1       1.940   8.946  18.552  0.00  0.00    +0.000 C 
ATOM      3  C   UNL     1       2.146   7.435  18.345  0.00  0.00    +0.000 C 
ATOM      4  C   UNL     1       2.535   6.691  19.643  0.00  0.00    +0.000 C 
ATOM      5  C   UNL     1       1.577   7.034  20.789  0.00  0.00    +0.000 C 
ATOM      6  C   UNL     1       1.459   8.553  20.979  0.00  0.00    +0.000 C 
ENDROOT
BRANCH   4   7
ATOM      7  N   UNL     1       2.710   5.235  19.445  0.00  0.00    +0.000 N 
ATOM      8  C   UNL     1       1.762   4.287  19.813  0.00  0.00    +0.000 C 
ATOM      9  O   UNL     1       0.633   4.495  20.219  0.00  0.00    +0.000 OA
ATOM     10  O   UNL     1       2.289   3.023  19.698  0.00  0.00    +0.000 OA
ATOM     11  C   UNL     1       3.594   3.124  19.096  0.00  0.00    +0.000 C 
ATOM     12  C   UNL     1       4.492   2.047  19.705  0.00  0.00    +0.000 C 
ATOM     13  C   UNL     1       3.424   2.870  17.593  0.00  0.00    +0.000 C 
ATOM     14  C   UNL     1       3.997   4.558  19.483  0.00  0.00    +0.000 C 
BRANCH  14  15
ATOM     15  C   UNL     1       5.139   5.176  18.710  0.00  0.00    +0.000 A 
ATOM     16  C   UNL     1       4.991   5.639  17.395  0.00  0.00    +0.000 A 
ATOM     17  C   UNL     1       6.046   6.275  16.741  0.00  0.00    +0.000 A 
ATOM     18  C   UNL     1       7.277   6.423  17.376  0.00  0.00    +0.000 A 
ATOM     19  C   UNL     1       7.458   5.922  18.661  0.00  0.00    +0.000 A 
ATOM     20  C   UNL     1       6.397   5.303  19.325  0.00  0.00    +0.000 A 
ENDBRANCH  14  15
ENDBRANCH   4   7
BRANCH   1  23
ATOM     21  C   UNL     1      -0.497  11.229  19.544  0.00  0.00    +0.000 C 
ATOM     22  O   UNL     1      -1.343  10.579  18.930  0.00  0.00    +0.000 OA
ATOM     23  N   UNL     1       0.708  10.664  19.915  0.00  0.00    +0.000 N 
ATOM     24  H   UNL     1       1.452  11.253  20.260  0.00  0.00    +0.000 HD
BRANCH  21  29
ATOM     25  C   UNL     1      -4.340  13.530  23.228  0.00  0.00    +0.000 C 
ATOM     26  N   UNL     1      -3.324  13.627  22.206  0.00  0.00    +0.000 N 
ATOM     27  C   UNL     1      -2.624  12.605  21.619  0.00  0.00    +0.000 A 
ATOM     28  C   UNL     1      -1.756  13.206  20.738  0.00  0.00    +0.000 A 
ATOM     29  C   UNL     1      -0.811  12.642  19.862  0.00  0.00    +0.000 A 
ATOM     30  C   UNL     1      -0.148  13.658  19.107  0.00  0.00    +0.000 A 
ATOM     31  C   UNL     1      -0.404  15.057  19.206  0.00  0.00    +0.000 A 
ATOM     32  C   UNL     1      -1.366  15.593  20.075  0.00  0.00    +0.000 A 
ATOM     33  C   UNL     1      -2.032  14.633  20.852  0.00  0.00    +0.000 A 
ATOM     34  N   UNL     1      -3.000  14.845  21.757  0.00  0.00    +0.000 NA
ENDBRANCH  21  29
ENDBRANCH   1  23
TORSDOF 4
ENDMDL
MODEL 3
REMARK VINA RESULT:      -9.0      1.054      1.209
REMARK  Name = 
REMARK  7 active torsions:
REMARK  status: ('A' for Active; 'I' for Inactive)
REMARK    1  A    between atoms: C_1  and  N_2
REMARK    2  A    between atoms: C_5  and  C_6
REMARK    3  A    between atoms: N_8  and  C_9
REMARK    4  A    between atoms: C_12  and  N_13
REMARK    5  A    between atoms: C_17  and  C_18
REMARK    6  A    between atoms: C_17  and  C_19
REMARK    7  A    between atoms: C_20  and  C_21
REMARK                            x       y       z     vdW  Elec       q    Type
REMARK                         _______ _______ _______ _____ _____    ______ ____
ROOT
ATOM      1  C   UNL     1       1.332   8.903  19.252  0.00  0.00    +0.000 C 
ATOM      2  C   UNL     1       2.279   8.449  18.126  0.00  0.00    +0.000 C 
ATOM      3  C   UNL     1       2.333   6.915  18.015  0.00  0.00    +0.000 C 
ATOM      4  C   UNL     1       2.651   6.219  19.359  0.00  0.00    +0.000 C 
ATOM      5  C   UNL     1       1.736   6.728  20.479  0.00  0.00    +0.000 C 
ATOM      6  C   UNL     1       1.771   8.259  20.572  0.00  0.00    +0.000 C 
ENDROOT
BRANCH   4   7
ATOM      7  N   UNL     1       2.678   4.743  19.254  0.00  0.00    +0.000 N 
ATOM      8  C   UNL     1       1.755   3.908  19.873  0.00  0.00    +0.000 C 
ATOM      9  O   UNL     1       0.745   4.241  20.466  0.00  0.00    +0.000 OA
ATOM     10  O   UNL     1       2.157   2.598  19.766  0.00  0.00    +0.000 OA
ATOM     11  C   UNL     1       3.323   2.545  18.921  0.00  0.00    +0.000 C 
ATOM     12  C   UNL     1       4.243   1.438  19.436  0.00  0.00    +0.000 C 
ATOM     13  C   UNL     1       2.844   2.204  17.504  0.00  0.00    +0.000 C 
ATOM     14  C   UNL     1       3.896   3.961  19.103  0.00  0.00    +0.000 C 
BRANCH  14  15
ATOM     15  C   UNL     1       4.905   4.424  18.078  0.00  0.00    +0.000 A 
ATOM     16  C   UNL     1       4.602   4.515  16.714  0.00  0.00    +0.000 A 
ATOM     17  C   UNL     1       5.534   5.021  15.808  0.00  0.00    +0.000 A 
ATOM     18  C   UNL     1       6.798   5.407  16.246  0.00  0.00    +0.000 A 
ATOM     19  C   UNL     1       7.137   5.274  17.590  0.00  0.00    +0.000 A 
ATOM     20  C   UNL     1       6.197   4.785  18.500  0.00  0.00    +0.000 A 
ENDBRANCH  14  15
ENDBRANCH   4   7
BRANCH   1  23
ATOM     21  C   UNL     1       0.156  11.038  18.829  0.00  0.00    +0.000 C 
ATOM     22  O   UNL     1      -0.677  10.454  18.136  0.00  0.00    +0.000 OA
ATOM     23  N   UNL     1       1.231  10.364  19.376  0.00  0.00    +0.000 N 
ATOM     24  H   UNL     1       1.990  10.884  19.790  0.00  0.00    +0.000 HD
BRANCH  21  29
ATOM     25  C   UNL     1       3.654  15.521  17.687  0.00  0.00    +0.000 C 
ATOM     26  N   UNL     1       2.443  14.940  18.219  0.00  0.00    +0.000 N 
ATOM     27  C   UNL     1       2.062  13.624  18.192  0.00  0.00    +0.000 A 
ATOM     28  C   UNL     1       0.825  13.582  18.791  0.00  0.00    +0.000 A 
ATOM     29  C   UNL     1      -0.027  12.493  19.046  0.00  0.00    +0.000 A 
ATOM     30  C   UNL     1      -1.211  12.921  19.723  0.00  0.00    +0.000 A 
ATOM     31  C   UNL     1      -1.500  14.263  20.107  0.00  0.00    +0.000 A 
ATOM     32  C   UNL     1      -0.624  15.330  19.858  0.00  0.00    +0.000 A 
ATOM     33  C   UNL     1       0.547  14.961  19.177  0.00  0.00    +0.000 A 
ATOM     34  N   UNL     1       1.564  15.757  18.812  0.00  0.00    +0.000 NA
ENDBRANCH  21  29
ENDBRANCH   1  23
TORSDOF 4
ENDMDL
MODEL 4
REMARK VINA RESULT:      -8.7      1.414      1.887
REMARK  Name = 
REMARK  7 active torsions:
REMARK  status: ('A' for Active; 'I' for Inactive)
REMARK    1  A    between atoms: C_1  and  N_2
REMARK    2  A    between atoms: C_5  and  C_6
REMARK    3  A    between atoms: N_8  and  C_9
REMARK    4  A    between atoms: C_12  and  N_13
REMARK    5  A    between atoms: C_17  and  C_18
REMARK    6  A    between atoms: C_17  and  C_19
REMARK    7  A    between atoms: C_20  and  C_21
REMARK                            x       y       z     vdW  Elec       q    Type
REMARK                         _______ _______ _______ _____ _____    ______ ____
ROOT
ATOM      1  C   UNL     1       1.644   8.847  18.454  0.00  0.00    +0.000 C 
ATOM      2  C   UNL     1       2.699   8.205  17.534  0.00  0.00    +0.000 C 
ATOM      3  C   UNL     1       2.760   6.679  17.720  0.00  0.00    +0.000 C 
ATOM      4  C   UNL     1       2.938   6.252  19.196  0.00  0.00    +0.000 C 
ATOM      5  C   UNL     1       1.916   6.947  20.103  0.00  0.00    +0.000 C 
ATOM      6  C   UNL     1       1.945   8.469  19.909  0.00  0.00    +0.000 C 
ENDROOT
BRANCH   4   7
ATOM      7  N   UNL     1       2.972   4.783  19.374  0.00  0.00    +0.000 N 
ATOM      8  C   UNL     1       2.041   4.075  20.125  0.00  0.00    +0.000 C 
ATOM      9  O   UNL     1       1.019   4.508  20.628  0.00  0.00    +0.000 OA
ATOM     10  O   UNL     1       2.449   2.772  20.276  0.00  0.00    +0.000 OA
ATOM     11  C   UNL     1       3.629   2.566  19.476  0.00  0.00    +0.000 C 
ATOM     12  C   UNL     1       4.544   1.583  20.207  0.00  0.00    +0.000 C 
ATOM     13  C   UNL     1       3.176   1.960  18.141  0.00  0.00    +0.000 C 
ATOM     14  C   UNL     1       4.194   3.995  19.394  0.00  0.00    +0.000 C 
BRANCH  14  15
ATOM     15  C   UNL     1       5.220   4.261  18.317  0.00  0.00    +0.000 A 
ATOM     16  C   UNL     1       6.491   4.778  18.603  0.00  0.00    +0.000 A 
ATOM     17  C   UNL     1       7.439   4.937  17.593  0.00  0.00    +0.000 A 
ATOM     18  C   UNL     1       7.119   4.620  16.275  0.00  0.00    +0.000 A 
ATOM     19  C   UNL     1       5.844   4.156  15.964  0.00  0.00    +0.000 A 
ATOM     20  C   UNL     1       4.901   3.978  16.978  0.00  0.00    +0.000 A 
ENDBRANCH  14  15
ENDBRANCH   4   7
BRANCH   1  23
ATOM     21  C   UNL     1       0.546  11.008  18.948  0.00  0.00    +0.000 C 
ATOM     22  O   UNL     1      -0.328  10.429  19.594  0.00  0.00    +0.000 OA
ATOM     23  N   UNL     1       1.535  10.303  18.290  0.00  0.00    +0.000 N 
ATOM     24  H   UNL     1       2.133  10.777  17.630  0.00  0.00    +0.000 HD
BRANCH  21  29
ATOM     25  C   UNL     1       4.692  14.920  17.883  0.00  0.00    +0.000 C 
ATOM     26  N   UNL     1       3.342  14.542  18.232  0.00  0.00    +0.000 N 
ATOM     27  C   UNL     1       2.825  13.278  18.332  0.00  0.00    +0.000 A 
ATOM     28  C   UNL     1       1.498  13.442  18.655  0.00  0.00    +0.000 A 
ATOM     29  C   UNL     1       0.493  12.489  18.893  0.00  0.00    +0.000 A 
ATOM     30  C   UNL     1      -0.742  13.124  19.230  0.00  0.00    +0.000 A 
ATOM     31  C   UNL     1      -0.943  14.531  19.330  0.00  0.00    +0.000 A 
ATOM     32  C   UNL     1       0.082  15.463  19.108  0.00  0.00    +0.000 A 
ATOM     33  C   UNL     1       1.312  14.885  18.755  0.00  0.00    +0.000 A 
ATOM     34  N   UNL     1       2.465  15.519  18.492  0.00  0.00    +0.000 NA
ENDBRANCH  21  29
ENDBRANCH   1  23
TORSDOF 4
ENDMDL
MODEL 5
REMARK VINA RESULT:      -8.7      2.616     10.605
REMARK  Name = 
REMARK  7 active torsions:
REMARK  status: ('A' for Active; 'I' for Inactive)
REMARK    1  A    between atoms: C_1  and  N_2
REMARK    2  A    between atoms: C_5  and  C_6
REMARK    3  A    between atoms: N_8  and  C_9
REMARK    4  A    between atoms: C_12  and  N_13
REMARK    5  A    between atoms: C_17  and  C_18
REMARK    6  A    between atoms: C_17  and  C_19
REMARK    7  A    between atoms: C_20  and  C_21
REMARK                            x       y       z     vdW  Elec       q    Type
REMARK                         _______ _______ _______ _____ _____    ______ ____
ROOT
ATOM      1  C   UNL     1       0.531   9.072  21.346  0.00  0.00    +0.000 C 
ATOM      2  C   UNL     1      -0.094   9.701  20.087  0.00  0.00    +0.000 C 
ATOM      3  C   UNL     1      -0.346  11.207  20.272  0.00  0.00    +0.000 C 
ATOM      4  C   UNL     1      -1.153  11.537  21.549  0.00  0.00    +0.000 C 
ATOM      5  C   UNL     1      -0.548  10.854  22.781  0.00  0.00    +0.000 C 
ATOM      6  C   UNL     1      -0.375   9.346  22.551  0.00  0.00    +0.000 C 
ENDROOT
BRANCH   4   7
ATOM      7  N   UNL     1      -1.373  12.989  21.736  0.00  0.00    +0.000 N 
ATOM      8  C   UNL     1      -0.377  13.876  22.129  0.00  0.00    +0.000 C 
ATOM      9  O   UNL     1       0.811  13.639  22.252  0.00  0.00    +0.000 OA
ATOM     10  O   UNL     1      -0.925  15.103  22.418  0.00  0.00    +0.000 OA
ATOM     11  C   UNL     1      -2.322  15.073  22.068  0.00  0.00    +0.000 C 
ATOM     12  C   UNL     1      -3.090  15.934  23.072  0.00  0.00    +0.000 C 
ATOM     13  C   UNL     1      -2.454  15.674  20.662  0.00  0.00    +0.000 C 
ATOM     14  C   UNL     1      -2.632  13.570  22.176  0.00  0.00    +0.000 C 
BRANCH  14  15
ATOM     15  C   UNL     1      -3.899  13.086  21.511  0.00  0.00    +0.000 A 
ATOM     16  C   UNL     1      -3.944  12.716  20.161  0.00  0.00    +0.000 A 
ATOM     17  C   UNL     1      -5.113  12.200  19.601  0.00  0.00    +0.000 A 
ATOM     18  C   UNL     1      -6.266  12.082  20.372  0.00  0.00    +0.000 A 
ATOM     19  C   UNL     1      -6.256  12.495  21.702  0.00  0.00    +0.000 A 
ATOM     20  C   UNL     1      -5.081  12.994  22.268  0.00  0.00    +0.000 A 
ENDBRANCH  14  15
ENDBRANCH   4   7
BRANCH   1  23
ATOM     21  C   UNL     1       1.739   7.196  20.277  0.00  0.00    +0.000 C 
ATOM     22  O   UNL     1       2.264   7.974  19.480  0.00  0.00    +0.000 OA
ATOM     23  N   UNL     1       0.813   7.637  21.203  0.00  0.00    +0.000 N 
ATOM     24  H   UNL     1       0.269   6.966  21.725  0.00  0.00    +0.000 HD
BRANCH  21  29
ATOM     25  C   UNL     1       6.543   4.665  18.239  0.00  0.00    +0.000 C 
ATOM     26  N   UNL     1       5.216   4.630  18.809  0.00  0.00    +0.000 N 
ATOM     27  C   UNL     1       4.430   5.692  19.169  0.00  0.00    +0.000 A 
ATOM     28  C   UNL     1       3.280   5.146  19.689  0.00  0.00    +0.000 A 
ATOM     29  C   UNL     1       2.126   5.766  20.200  0.00  0.00    +0.000 A 
ATOM     30  C   UNL     1       1.162   4.793  20.606  0.00  0.00    +0.000 A 
ATOM     31  C   UNL     1       1.324   3.381  20.501  0.00  0.00    +0.000 A 
ATOM     32  C   UNL     1       2.478   2.786  19.969  0.00  0.00    +0.000 A 
ATOM     33  C   UNL     1       3.463   3.704  19.573  0.00  0.00    +0.000 A 
ATOM     34  N   UNL     1       4.658   3.433  19.026  0.00  0.00    +0.000 NA
ENDBRANCH  21  29
ENDBRANCH   1  23
TORSDOF 4
ENDMDL
MODEL 6
REMARK VINA RESULT:      -8.6      1.330      1.330
REMARK  Name = 
REMARK  7 active torsions:
REMARK  status: ('A' for Active; 'I' for Inactive)
REMARK    1  A    between atoms: C_1  and  N_2
REMARK    2  A    between atoms: C_5  and  C_6
REMARK    3  A    between atoms: N_8  and  C_9
REMARK    4  A    between atoms: C_12  and  N_13
REMARK    5  A    between atoms: C_17  and  C_18
REMARK    6  A    between atoms: C_17  and  C_19
REMARK    7  A    between atoms: C_20  and  C_21
REMARK                            x       y       z     vdW  Elec       q    Type
REMARK                         _______ _______ _______ _____ _____    ______ ____
ROOT
ATOM      1  C   UNL     1       0.848   9.298  20.031  0.00  0.00    +0.000 C 
ATOM      2  C   UNL     1       1.706   9.093  18.769  0.00  0.00    +0.000 C 
ATOM      3  C   UNL     1       1.945   7.600  18.483  0.00  0.00    +0.000 C 
ATOM      4  C   UNL     1       2.506   6.829  19.700  0.00  0.00    +0.000 C 
ATOM      5  C   UNL     1       1.671   7.094  20.959  0.00  0.00    +0.000 C 
ATOM      6  C   UNL     1       1.519   8.599  21.218  0.00  0.00    +0.000 C 
ENDROOT
BRANCH   4   7
ATOM      7  N   UNL     1       2.712   5.389  19.429  0.00  0.00    +0.000 N 
ATOM      8  C   UNL     1       1.775   4.406  19.726  0.00  0.00    +0.000 C 
ATOM      9  O   UNL     1       0.634   4.573  20.118  0.00  0.00    +0.000 OA
ATOM     10  O   UNL     1       2.328   3.160  19.555  0.00  0.00    +0.000 OA
ATOM     11  C   UNL     1       3.643   3.317  18.987  0.00  0.00    +0.000 C 
ATOM     12  C   UNL     1       4.548   2.224  19.556  0.00  0.00    +0.000 C 
ATOM     13  C   UNL     1       3.507   3.140  17.468  0.00  0.00    +0.000 C 
ATOM     14  C   UNL     1       4.011   4.734  19.457  0.00  0.00    +0.000 C 
BRANCH  14  15
ATOM     15  C   UNL     1       5.156   5.413  18.743  0.00  0.00    +0.000 A 
ATOM     16  C   UNL     1       4.984   6.101  17.534  0.00  0.00    +0.000 A 
ATOM     17  C   UNL     1       6.048   6.782  16.944  0.00  0.00    +0.000 A 
ATOM     18  C   UNL     1       7.310   6.753  17.531  0.00  0.00    +0.000 A 
ATOM     19  C   UNL     1       7.513   6.031  18.703  0.00  0.00    +0.000 A 
ATOM     20  C   UNL     1       6.444   5.365  19.306  0.00  0.00    +0.000 A 
ENDBRANCH  14  15
ENDBRANCH   4   7
BRANCH   1  23
ATOM     21  C   UNL     1      -0.213  11.059  21.407  0.00  0.00    +0.000 C 
ATOM     22  O   UNL     1      -0.790  10.202  22.078  0.00  0.00    +0.000 OA
ATOM     23  N   UNL     1       0.573  10.711  20.326  0.00  0.00    +0.000 N 
ATOM     24  H   UNL     1       0.893  11.426  19.689  0.00  0.00    +0.000 HD
BRANCH  21  29
ATOM     25  C   UNL     1       1.854  15.943  19.061  0.00  0.00    +0.000 C 
ATOM     26  N   UNL     1       1.114  15.213  20.065  0.00  0.00    +0.000 N 
ATOM     27  C   UNL     1       0.893  13.863  20.127  0.00  0.00    +0.000 A 
ATOM     28  C   UNL     1       0.113  13.664  21.242  0.00  0.00    +0.000 A 
ATOM     29  C   UNL     1      -0.402  12.478  21.794  0.00  0.00    +0.000 A 
ATOM     30  C   UNL     1      -1.142  12.750  22.986  0.00  0.00    +0.000 A 
ATOM     31  C   UNL     1      -1.331  14.041  23.560  0.00  0.00    +0.000 A 
ATOM     32  C   UNL     1      -0.790  15.208  23.000  0.00  0.00    +0.000 A 
ATOM     33  C   UNL     1      -0.069  14.992  21.815  0.00  0.00    +0.000 A 
ATOM     34  N   UNL     1       0.563  15.909  21.066  0.00  0.00    +0.000 NA
ENDBRANCH  21  29
ENDBRANCH   1  23
TORSDOF 4
ENDMDL
MODEL 7
REMARK VINA RESULT:      -8.5      1.420      1.784
REMARK  Name = 
REMARK  7 active torsions:
REMARK  status: ('A' for Active; 'I' for Inactive)
REMARK    1  A    between atoms: C_1  and  N_2
REMARK    2  A    between atoms: C_5  and  C_6
REMARK    3  A    between atoms: N_8  and  C_9
REMARK    4  A    between atoms: C_12  and  N_13
REMARK    5  A    between atoms: C_17  and  C_18
REMARK    6  A    between atoms: C_17  and  C_19
REMARK    7  A    between atoms: C_20  and  C_21
REMARK                            x       y       z     vdW  Elec       q    Type
REMARK                         _______ _______ _______ _____ _____    ______ ____
ROOT
ATOM      1  C   UNL     1       1.023   9.415  19.333  0.00  0.00    +0.000 C 
ATOM      2  C   UNL     1       1.987   9.016  18.201  0.00  0.00    +0.000 C 
ATOM      3  C   UNL     1       2.172   7.491  18.124  0.00  0.00    +0.000 C 
ATOM      4  C   UNL     1       2.571   6.857  19.477  0.00  0.00    +0.000 C 
ATOM      5  C   UNL     1       1.634   7.313  20.602  0.00  0.00    +0.000 C 
ATOM      6  C   UNL     1       1.538   8.844  20.659  0.00  0.00    +0.000 C 
ENDROOT
BRANCH   4   7
ATOM      7  N   UNL     1       2.725   5.387  19.405  0.00  0.00    +0.000 N 
ATOM      8  C   UNL     1       1.774   4.488  19.875  0.00  0.00    +0.000 C 
ATOM      9  O   UNL     1       0.656   4.747  20.283  0.00  0.00    +0.000 OA
ATOM     10  O   UNL     1       2.284   3.212  19.862  0.00  0.00    +0.000 OA
ATOM     11  C   UNL     1       3.576   3.243  19.227  0.00  0.00    +0.000 C 
ATOM     12  C   UNL     1       4.475   2.211  19.910  0.00  0.00    +0.000 C 
ATOM     13  C   UNL     1       3.371   2.859  17.755  0.00  0.00    +0.000 C 
ATOM     14  C   UNL     1       4.004   4.699  19.477  0.00  0.00    +0.000 C 
BRANCH  14  15
ATOM     15  C   UNL     1       5.136   5.232  18.629  0.00  0.00    +0.000 A 
ATOM     16  C   UNL     1       4.971   5.558  17.277  0.00  0.00    +0.000 A 
ATOM     17  C   UNL     1       6.018   6.121  16.546  0.00  0.00    +0.000 A 
ATOM     18  C   UNL     1       7.258   6.329  17.145  0.00  0.00    +0.000 A 
ATOM     19  C   UNL     1       7.456   5.961  18.473  0.00  0.00    +0.000 A 
ATOM     20  C   UNL     1       6.403   5.416  19.210  0.00  0.00    +0.000 A 
ENDBRANCH  14  15
ENDBRANCH   4   7
BRANCH   1  23
ATOM     21  C   UNL     1       1.558  11.738  18.672  0.00  0.00    +0.000 C 
ATOM     22  O   UNL     1       2.507  11.339  17.997  0.00  0.00    +0.000 OA
ATOM     23  N   UNL     1       0.798  10.864  19.425  0.00  0.00    +0.000 N 
ATOM     24  H   UNL     1       0.141  11.226  20.101  0.00  0.00    +0.000 HD
BRANCH  21  29
ATOM     25  C   UNL     1       5.106  16.326  18.682  0.00  0.00    +0.000 C 
ATOM     26  N   UNL     1       3.797  15.714  18.712  0.00  0.00    +0.000 N 
ATOM     27  C   UNL     1       3.494  14.380  18.652  0.00  0.00    +0.000 A 
ATOM     28  C   UNL     1       2.121  14.307  18.681  0.00  0.00    +0.000 A 
ATOM     29  C   UNL     1       1.266  13.192  18.658  0.00  0.00    +0.000 A 
ATOM     30  C   UNL     1      -0.102  13.597  18.738  0.00  0.00    +0.000 A 
ATOM     31  C   UNL     1      -0.557  14.943  18.840  0.00  0.00    +0.000 A 
ATOM     32  C   UNL     1       0.318  16.040  18.881  0.00  0.00    +0.000 A 
ATOM     33  C   UNL     1       1.674  15.692  18.787  0.00  0.00    +0.000 A 
ATOM     34  N   UNL     1       2.732  16.518  18.807  0.00  0.00    +0.000 NA
ENDBRANCH  21  29
ENDBRANCH   1  23
TORSDOF 4
ENDMDL
MODEL 8
REMARK VINA RESULT:      -8.5      1.801      2.653
REMARK  Name = 
REMARK  7 active torsions:
REMARK  status: ('A' for Active; 'I' for Inactive)
REMARK    1  A    between atoms: C_1  and  N_2
REMARK    2  A    between atoms: C_5  and  C_6
REMARK    3  A    between atoms: N_8  and  C_9
REMARK    4  A    between atoms: C_12  and  N_13
REMARK    5  A    between atoms: C_17  and  C_18
REMARK    6  A    between atoms: C_17  and  C_19
REMARK    7  A    between atoms: C_20  and  C_21
REMARK                            x       y       z     vdW  Elec       q    Type
REMARK                         _______ _______ _______ _____ _____    ______ ____
ROOT
ATOM      1  C   UNL     1       0.783   9.291  19.974  0.00  0.00    +0.000 C 
ATOM      2  C   UNL     1       1.612   9.064  18.698  0.00  0.00    +0.000 C 
ATOM      3  C   UNL     1       1.873   7.568  18.450  0.00  0.00    +0.000 C 
ATOM      4  C   UNL     1       2.480   6.845  19.675  0.00  0.00    +0.000 C 
ATOM      5  C   UNL     1       1.673   7.132  20.946  0.00  0.00    +0.000 C 
ATOM      6  C   UNL     1       1.497   8.641  21.164  0.00  0.00    +0.000 C 
ENDROOT
BRANCH   4   7
ATOM      7  N   UNL     1       2.708   5.402  19.442  0.00  0.00    +0.000 N 
ATOM      8  C   UNL     1       1.781   4.414  19.757  0.00  0.00    +0.000 C 
ATOM      9  O   UNL     1       0.636   4.575  20.137  0.00  0.00    +0.000 OA
ATOM     10  O   UNL     1       2.353   3.171  19.622  0.00  0.00    +0.000 OA
ATOM     11  C   UNL     1       3.669   3.332  19.059  0.00  0.00    +0.000 C 
ATOM     12  C   UNL     1       4.585   2.266  19.661  0.00  0.00    +0.000 C 
ATOM     13  C   UNL     1       3.547   3.115  17.544  0.00  0.00    +0.000 C 
ATOM     14  C   UNL     1       4.015   4.766  19.496  0.00  0.00    +0.000 C 
BRANCH  14  15
ATOM     15  C   UNL     1       5.155   5.442  18.772  0.00  0.00    +0.000 A 
ATOM     16  C   UNL     1       4.973   6.141  17.571  0.00  0.00    +0.000 A 
ATOM     17  C   UNL     1       6.035   6.819  16.972  0.00  0.00    +0.000 A 
ATOM     18  C   UNL     1       7.304   6.775  17.543  0.00  0.00    +0.000 A 
ATOM     19  C   UNL     1       7.517   6.041  18.707  0.00  0.00    +0.000 A 
ATOM     20  C   UNL     1       6.450   5.379  19.317  0.00  0.00    +0.000 A 
ENDBRANCH  14  15
ENDBRANCH   4   7
BRANCH   1  23
ATOM     21  C   UNL     1      -0.270  11.074  21.330  0.00  0.00    +0.000 C 
ATOM     22  O   UNL     1      -0.805  10.227  22.047  0.00  0.00    +0.000 OA
ATOM     23  N   UNL     1       0.488  10.708  20.234  0.00  0.00    +0.000 N 
ATOM     24  H   UNL     1       0.771  11.408  19.565  0.00  0.00    +0.000 HD
BRANCH  21  29
ATOM     25  C   UNL     1      -4.886  13.823  23.514  0.00  0.00    +0.000 C 
ATOM     26  N   UNL     1      -3.543  13.791  22.982  0.00  0.00    +0.000 N 
ATOM     27  C   UNL     1      -2.824  12.694  22.585  0.00  0.00    +0.000 A 
ATOM     28  C   UNL     1      -1.599  13.175  22.188  0.00  0.00    +0.000 A 
ATOM     29  C   UNL     1      -0.476  12.500  21.678  0.00  0.00    +0.000 A 
ATOM     30  C   UNL     1       0.574  13.419  21.370  0.00  0.00    +0.000 A 
ATOM     31  C   UNL     1       0.507  14.832  21.538  0.00  0.00    +0.000 A 
ATOM     32  C   UNL     1      -0.633  15.485  22.031  0.00  0.00    +0.000 A 
ATOM     33  C   UNL     1      -1.687  14.620  22.366  0.00  0.00    +0.000 A 
ATOM     34  N   UNL     1      -2.894  14.954  22.849  0.00  0.00    +0.000 NA
ENDBRANCH  21  29
ENDBRANCH   1  23
TORSDOF 4
ENDMDL
MODEL 9
REMARK VINA RESULT:      -8.4      2.513      4.257
REMARK  Name = 
REMARK  7 active torsions:
REMARK  status: ('A' for Active; 'I' for Inactive)
REMARK    1  A    between atoms: C_1  and  N_2
REMARK    2  A    between atoms: C_5  and  C_6
REMARK    3  A    between atoms: N_8  and  C_9
REMARK    4  A    between atoms: C_12  and  N_13
REMARK    5  A    between atoms: C_17  and  C_18
REMARK    6  A    between atoms: C_17  and  C_19
REMARK    7  A    between atoms: C_20  and  C_21
REMARK                            x       y       z     vdW  Elec       q    Type
REMARK                         _______ _______ _______ _____ _____    ______ ____
ROOT
ATOM      1  C   UNL     1       1.019  10.019  19.698  0.00  0.00    +0.000 C 
ATOM      2  C   UNL     1       1.001   8.730  20.540  0.00  0.00    +0.000 C 
ATOM      3  C   UNL     1       2.129   7.768  20.127  0.00  0.00    +0.000 C 
ATOM      4  C   UNL     1       2.151   7.472  18.609  0.00  0.00    +0.000 C 
ATOM      5  C   UNL     1       2.109   8.767  17.790  0.00  0.00    +0.000 C 
ATOM      6  C   UNL     1       0.930   9.654  18.213  0.00  0.00    +0.000 C 
ENDROOT
BRANCH   4   7
ATOM      7  N   UNL     1       3.251   6.566  18.212  0.00  0.00    +0.000 N 
ATOM      8  C   UNL     1       4.316   6.952  17.406  0.00  0.00    +0.000 C 
ATOM      9  O   UNL     1       4.576   8.078  17.021  0.00  0.00    +0.000 OA
ATOM     10  O   UNL     1       5.057   5.852  17.044  0.00  0.00    +0.000 OA
ATOM     11  C   UNL     1       4.547   4.705  17.750  0.00  0.00    +0.000 C 
ATOM     12  C   UNL     1       4.671   3.483  16.839  0.00  0.00    +0.000 C 
ATOM     13  C   UNL     1       5.420   4.513  18.997  0.00  0.00    +0.000 C 
ATOM     14  C   UNL     1       3.094   5.133  18.018  0.00  0.00    +0.000 C 
BRANCH  14  15
ATOM     15  C   UNL     1       2.341   4.359  19.075  0.00  0.00    +0.000 A 
ATOM     16  C   UNL     1       1.296   3.480  18.760  0.00  0.00    +0.000 A 
ATOM     17  C   UNL     1       0.676   2.724  19.755  0.00  0.00    +0.000 A 
ATOM     18  C   UNL     1       1.063   2.864  21.085  0.00  0.00    +0.000 A 
ATOM     19  C   UNL     1       2.062   3.772  21.424  0.00  0.00    +0.000 A 
ATOM     20  C   UNL     1       2.697   4.514  20.427  0.00  0.00    +0.000 A 
ENDBRANCH  14  15
ENDBRANCH   4   7
BRANCH   1  23
ATOM     21  C   UNL     1       0.295  12.119  20.789  0.00  0.00    +0.000 C 
ATOM     22  O   UNL     1       1.435  12.304  21.213  0.00  0.00    +0.000 OA
ATOM     23  N   UNL     1      -0.028  10.978  20.078  0.00  0.00    +0.000 N 
ATOM     24  H   UNL     1      -0.996  10.762  19.891  0.00  0.00    +0.000 HD
BRANCH  21  29
ATOM     25  C   UNL     1      -4.166  12.142  24.496  0.00  0.00    +0.000 C 
ATOM     26  N   UNL     1      -3.363  12.731  23.449  0.00  0.00    +0.000 N 
ATOM     27  C   UNL     1      -2.229  12.220  22.874  0.00  0.00    +0.000 A 
ATOM     28  C   UNL     1      -1.819  13.160  21.958  0.00  0.00    +0.000 A 
ATOM     29  C   UNL     1      -0.724  13.157  21.076  0.00  0.00    +0.000 A 
ATOM     30  C   UNL     1      -0.708  14.343  20.279  0.00  0.00    +0.000 A 
ATOM     31  C   UNL     1      -1.670  15.393  20.347  0.00  0.00    +0.000 A 
ATOM     32  C   UNL     1      -2.766  15.364  21.222  0.00  0.00    +0.000 A 
ATOM     33  C   UNL     1      -2.814  14.224  22.040  0.00  0.00    +0.000 A 
ATOM     34  N   UNL     1      -3.742  13.918  22.961  0.00  0.00    +0.000 NA
ENDBRANCH  21  29
ENDBRANCH   1  23
TORSDOF 4
ENDMDL
