MODEL 1
REMARK VINA RESULT:      -6.9      0.000      0.000
REMARK  Name = 
REMARK  8 active torsions:
REMARK  status: ('A' for Active; 'I' for Inactive)
REMARK    1  A    between atoms: C_1  and  C_2
REMARK    2  A    between atoms: C_2  and  C_4
REMARK    3  A    between atoms: C_11  and  O_12
REMARK    4  A    between atoms: O_12  and  C_13
REMARK    5  A    between atoms: C_13  and  C_14
REMARK    6  A    between atoms: N_16  and  C_17
REMARK    7  A    between atoms: C_17  and  C_18
REMARK    8  A    between atoms: C_17  and  C_19
REMARK                            x       y       z     vdW  Elec       q    Type
REMARK                         _______ _______ _______ _____ _____    ______ ____
ROOT
ATOM      1  C   UNL     1       6.683   4.991  17.395  0.00  0.00    +0.000 A 
ATOM      2  C   UNL     1       7.100   4.913  16.052  0.00  0.00    +0.000 A 
ATOM      3  C   UNL     1       6.273   4.343  15.089  0.00  0.00    +0.000 A 
ATOM      4 BR   UNL     1       6.846   4.247  13.292  0.00  0.00    +0.000 Br
ATOM      5  C   UNL     1       5.022   3.860  15.441  0.00  0.00    +0.000 A 
ATOM      6  C   UNL     1       4.605   3.947  16.766  0.00  0.00    +0.000 A 
ATOM      7  F   UNL     1       3.360   3.534  17.041  0.00  0.00    +0.000 F 
ATOM      8  C   UNL     1       5.427   4.487  17.770  0.00  0.00    +0.000 A 
ENDROOT
BRANCH   1  10
ATOM      9  C   UNL     1       7.902   7.127  18.241  0.00  0.00    +0.000 C 
ATOM     10  C   UNL     1       7.638   5.650  18.337  0.00  0.00    +0.000 C 
ATOM     11  O   UNL     1       8.150   4.978  19.229  0.00  0.00    +0.000 OA
ENDBRANCH   1  10
BRANCH   8  12
ATOM     12  O   UNL     1       5.038   4.629  19.076  0.00  0.00    +0.000 OA
BRANCH  12  13
ATOM     13  C   UNL     1       4.228   5.756  19.402  0.00  0.00    +0.000 C 
BRANCH  13  14
ATOM     14  C   UNL     1       2.835   5.397  19.929  0.00  0.00    +0.000 C 
ATOM     15  O   UNL     1       1.975   6.241  20.157  0.00  0.00    +0.000 OA
ATOM     16  N   UNL     1       2.639   4.044  20.115  0.00  0.00    +0.000 N 
ATOM     17  H   UNL     1       3.383   3.407  19.855  0.00  0.00    +0.000 HD
BRANCH  16  18
ATOM     18  C   UNL     1       1.342   3.493  20.486  0.00  0.00    +0.000 C 
ATOM     19  C   UNL     1       0.697   2.765  19.308  0.00  0.00    +0.000 C 
ATOM     20  C   UNL     1       1.497   2.554  21.678  0.00  0.00    +0.000 C 
ENDBRANCH  16  18
ENDBRANCH  13  14
ENDBRANCH  12  13
ENDBRANCH   8  12
TORSDOF 5
ENDMDL
MODEL 2
REMARK VINA RESULT:      -6.7      3.644      6.285
REMARK  Name = 
REMARK  8 active torsions:
REMARK  status: ('A' for Active; 'I' for Inactive)
REMARK    1  A    between atoms: C_1  and  C_2
REMARK    2  A    between atoms: C_2  and  C_4
REMARK    3  A    between atoms: C_11  and  O_12
REMARK    4  A    between atoms: O_12  and  C_13
REMARK    5  A    between atoms: C_13  and  C_14
REMARK    6  A    between atoms: N_16  and  C_17
REMARK    7  A    between atoms: C_17  and  C_18
REMARK    8  A    between atoms: C_17  and  C_19
REMARK                            x       y       z     vdW  Elec       q    Type
REMARK                         _______ _______ _______ _____ _____    ______ ____
ROOT
ATOM      1  C   UNL     1       4.042   4.253  18.441  0.00  0.00    +0.000 A 
ATOM      2  C   UNL     1       3.265   5.098  19.256  0.00  0.00    +0.000 A 
ATOM      3  C   UNL     1       3.058   6.427  18.900  0.00  0.00    +0.000 A 
ATOM      4 BR   UNL     1       2.012   7.547  20.003  0.00  0.00    +0.000 Br
ATOM      5  C   UNL     1       3.603   6.928  17.727  0.00  0.00    +0.000 A 
ATOM      6  C   UNL     1       4.363   6.090  16.915  0.00  0.00    +0.000 A 
ATOM      7  F   UNL     1       4.806   6.601  15.758  0.00  0.00    +0.000 F 
ATOM      8  C   UNL     1       4.618   4.752  17.261  0.00  0.00    +0.000 A 
ENDROOT
BRANCH   1  10
ATOM      9  C   UNL     1       3.362   1.749  18.257  0.00  0.00    +0.000 C 
ATOM     10  C   UNL     1       4.172   2.838  18.904  0.00  0.00    +0.000 C 
ATOM     11  O   UNL     1       4.997   2.573  19.775  0.00  0.00    +0.000 OA
ENDBRANCH   1  10
BRANCH   8  12
ATOM     12  O   UNL     1       5.324   3.884  16.471  0.00  0.00    +0.000 OA
BRANCH  12  13
ATOM     13  C   UNL     1       6.633   4.280  16.066  0.00  0.00    +0.000 C 
BRANCH  13  14
ATOM     14  C   UNL     1       6.783   4.502  14.556  0.00  0.00    +0.000 C 
ATOM     15  O   UNL     1       7.555   5.328  14.082  0.00  0.00    +0.000 OA
ATOM     16  N   UNL     1       5.978   3.686  13.788  0.00  0.00    +0.000 N 
ATOM     17  H   UNL     1       5.403   2.995  14.256  0.00  0.00    +0.000 HD
BRANCH  16  18
ATOM     18  C   UNL     1       6.068   3.655  12.335  0.00  0.00    +0.000 C 
ATOM     19  C   UNL     1       7.125   2.655  11.871  0.00  0.00    +0.000 C 
ATOM     20  C   UNL     1       4.708   3.317  11.735  0.00  0.00    +0.000 C 
ENDBRANCH  16  18
ENDBRANCH  13  14
ENDBRANCH  12  13
ENDBRANCH   8  12
TORSDOF 5
ENDMDL
MODEL 3
REMARK VINA RESULT:      -6.6      1.500      1.935
REMARK  Name = 
REMARK  8 active torsions:
REMARK  status: ('A' for Active; 'I' for Inactive)
REMARK    1  A    between atoms: C_1  and  C_2
REMARK    2  A    between atoms: C_2  and  C_4
REMARK    3  A    between atoms: C_11  and  O_12
REMARK    4  A    between atoms: O_12  and  C_13
REMARK    5  A    between atoms: C_13  and  C_14
REMARK    6  A    between atoms: N_16  and  C_17
REMARK    7  A    between atoms: C_17  and  C_18
REMARK    8  A    between atoms: C_17  and  C_19
REMARK                            x       y       z     vdW  Elec       q    Type
REMARK                         _______ _______ _______ _____ _____    ______ ____
ROOT
ATOM      1  C   UNL     1       6.480   5.781  16.678  0.00  0.00    +0.000 A 
ATOM      2  C   UNL     1       7.020   5.540  15.400  0.00  0.00    +0.000 A 
ATOM      3  C   UNL     1       6.420   4.621  14.543  0.00  0.00    +0.000 A 
ATOM      4 BR   UNL     1       7.154   4.310  12.831  0.00  0.00    +0.000 Br
ATOM      5  C   UNL     1       5.273   3.947  14.936  0.00  0.00    +0.000 A 
ATOM      6  C   UNL     1       4.734   4.194  16.195  0.00  0.00    +0.000 A 
ATOM      7  F   UNL     1       3.585   3.573  16.497  0.00  0.00    +0.000 F 
ATOM      8  C   UNL     1       5.332   5.090  17.097  0.00  0.00    +0.000 A 
ENDROOT
BRANCH   1  10
ATOM      9  C   UNL     1       7.997   6.396  18.699  0.00  0.00    +0.000 C 
ATOM     10  C   UNL     1       7.188   6.808  17.501  0.00  0.00    +0.000 C 
ATOM     11  O   UNL     1       7.150   7.983  17.144  0.00  0.00    +0.000 OA
ENDBRANCH   1  10
BRANCH   8  12
ATOM     12  O   UNL     1       4.810   5.392  18.327  0.00  0.00    +0.000 OA
BRANCH  12  13
ATOM     13  C   UNL     1       5.224   4.591  19.431  0.00  0.00    +0.000 C 
BRANCH  13  14
ATOM     14  C   UNL     1       4.347   3.358  19.678  0.00  0.00    +0.000 C 
ATOM     15  O   UNL     1       4.813   2.261  19.967  0.00  0.00    +0.000 OA
ATOM     16  N   UNL     1       2.995   3.600  19.550  0.00  0.00    +0.000 N 
ATOM     17  H   UNL     1       2.688   4.546  19.357  0.00  0.00    +0.000 HD
BRANCH  16  18
ATOM     18  C   UNL     1       1.994   2.591  19.870  0.00  0.00    +0.000 C 
ATOM     19  C   UNL     1       1.369   2.851  21.239  0.00  0.00    +0.000 C 
ATOM     20  C   UNL     1       0.921   2.560  18.786  0.00  0.00    +0.000 C 
ENDBRANCH  16  18
ENDBRANCH  13  14
ENDBRANCH  12  13
ENDBRANCH   8  12
TORSDOF 5
ENDMDL
MODEL 4
REMARK VINA RESULT:      -6.4      3.265      6.210
REMARK  Name = 
REMARK  8 active torsions:
REMARK  status: ('A' for Active; 'I' for Inactive)
REMARK    1  A    between atoms: C_1  and  C_2
REMARK    2  A    between atoms: C_2  and  C_4
REMARK    3  A    between atoms: C_11  and  O_12
REMARK    4  A    between atoms: O_12  and  C_13
REMARK    5  A    between atoms: C_13  and  C_14
REMARK    6  A    between atoms: N_16  and  C_17
REMARK    7  A    between atoms: C_17  and  C_18
REMARK    8  A    between atoms: C_17  and  C_19
REMARK                            x       y       z     vdW  Elec       q    Type
REMARK                         _______ _______ _______ _____ _____    ______ ____
ROOT
ATOM      1  C   UNL     1       1.808   4.706  19.811  0.00  0.00    +0.000 A 
ATOM      2  C   UNL     1       1.416   5.779  20.634  0.00  0.00    +0.000 A 
ATOM      3  C   UNL     1       1.771   7.085  20.308  0.00  0.00    +0.000 A 
ATOM      4 BR   UNL     1       1.236   8.513  21.421  0.00  0.00    +0.000 Br
ATOM      5  C   UNL     1       2.502   7.341  19.157  0.00  0.00    +0.000 A 
ATOM      6  C   UNL     1       2.880   6.282  18.338  0.00  0.00    +0.000 A 
ATOM      7  F   UNL     1       3.520   6.589  17.201  0.00  0.00    +0.000 F 
ATOM      8  C   UNL     1       2.566   4.949  18.654  0.00  0.00    +0.000 A 
ENDROOT
BRANCH   1  10
ATOM      9  C   UNL     1       1.824   2.763  21.540  0.00  0.00    +0.000 C 
ATOM     10  C   UNL     1       1.346   3.351  20.241  0.00  0.00    +0.000 C 
ATOM     11  O   UNL     1       0.521   2.758  19.550  0.00  0.00    +0.000 OA
ENDBRANCH   1  10
BRANCH   8  12
ATOM     12  O   UNL     1       2.883   3.883  17.854  0.00  0.00    +0.000 OA
BRANCH  12  13
ATOM     13  C   UNL     1       4.105   3.200  18.123  0.00  0.00    +0.000 C 
BRANCH  13  14
ATOM     14  C   UNL     1       5.346   3.874  17.529  0.00  0.00    +0.000 C 
ATOM     15  O   UNL     1       5.582   3.885  16.325  0.00  0.00    +0.000 OA
ATOM     16  N   UNL     1       6.164   4.467  18.469  0.00  0.00    +0.000 N 
ATOM     17  H   UNL     1       5.873   4.457  19.439  0.00  0.00    +0.000 HD
BRANCH  16  18
ATOM     18  C   UNL     1       7.322   5.268  18.093  0.00  0.00    +0.000 C 
ATOM     19  C   UNL     1       6.898   6.539  17.361  0.00  0.00    +0.000 C 
ATOM     20  C   UNL     1       8.143   5.609  19.332  0.00  0.00    +0.000 C 
ENDBRANCH  16  18
ENDBRANCH  13  14
ENDBRANCH  12  13
ENDBRANCH   8  12
TORSDOF 5
ENDMDL
MODEL 5
REMARK VINA RESULT:      -6.4      2.349      3.566
REMARK  Name = 
REMARK  8 active torsions:
REMARK  status: ('A' for Active; 'I' for Inactive)
REMARK    1  A    between atoms: C_1  and  C_2
REMARK    2  A    between atoms: C_2  and  C_4
REMARK    3  A    between atoms: C_11  and  O_12
REMARK    4  A    between atoms: O_12  and  C_13
REMARK    5  A    between atoms: C_13  and  C_14
REMARK    6  A    between atoms: N_16  and  C_17
REMARK    7  A    between atoms: C_17  and  C_18
REMARK    8  A    between atoms: C_17  and  C_19
REMARK                            x       y       z     vdW  Elec       q    Type
REMARK                         _______ _______ _______ _____ _____    ______ ____
ROOT
ATOM      1  C   UNL     1       4.264   5.926  17.534  0.00  0.00    +0.000 A 
ATOM      2  C   UNL     1       5.204   6.963  17.692  0.00  0.00    +0.000 A 
ATOM      3  C   UNL     1       6.531   6.775  17.316  0.00  0.00    +0.000 A 
ATOM      4 BR   UNL     1       7.779   8.175  17.532  0.00  0.00    +0.000 Br
ATOM      5  C   UNL     1       6.936   5.568  16.766  0.00  0.00    +0.000 A 
ATOM      6  C   UNL     1       6.004   4.547  16.601  0.00  0.00    +0.000 A 
ATOM      7  F   UNL     1       6.429   3.427  15.998  0.00  0.00    +0.000 F 
ATOM      8  C   UNL     1       4.665   4.691  16.999  0.00  0.00    +0.000 A 
ENDROOT
BRANCH   1  10
ATOM      9  C   UNL     1       2.526   7.609  18.490  0.00  0.00    +0.000 C 
ATOM     10  C   UNL     1       2.863   6.249  17.943  0.00  0.00    +0.000 C 
ATOM     11  O   UNL     1       1.984   5.410  17.764  0.00  0.00    +0.000 OA
ENDBRANCH   1  10
BRANCH   8  12
ATOM     12  O   UNL     1       3.709   3.728  16.815  0.00  0.00    +0.000 OA
BRANCH  12  13
ATOM     13  C   UNL     1       3.829   2.529  17.577  0.00  0.00    +0.000 C 
BRANCH  13  14
ATOM     14  C   UNL     1       3.831   2.746  19.095  0.00  0.00    +0.000 C 
ATOM     15  O   UNL     1       4.836   2.605  19.783  0.00  0.00    +0.000 OA
ATOM     16  N   UNL     1       2.605   3.117  19.608  0.00  0.00    +0.000 N 
ATOM     17  H   UNL     1       1.834   3.260  18.966  0.00  0.00    +0.000 HD
BRANCH  16  18
ATOM     18  C   UNL     1       2.432   3.494  21.005  0.00  0.00    +0.000 C 
ATOM     19  C   UNL     1       1.929   4.930  21.129  0.00  0.00    +0.000 C 
ATOM     20  C   UNL     1       1.472   2.527  21.690  0.00  0.00    +0.000 C 
ENDBRANCH  16  18
ENDBRANCH  13  14
ENDBRANCH  12  13
ENDBRANCH   8  12
TORSDOF 5
ENDMDL
MODEL 6
REMARK VINA RESULT:      -6.4      1.574      2.918
REMARK  Name = 
REMARK  8 active torsions:
REMARK  status: ('A' for Active; 'I' for Inactive)
REMARK    1  A    between atoms: C_1  and  C_2
REMARK    2  A    between atoms: C_2  and  C_4
REMARK    3  A    between atoms: C_11  and  O_12
REMARK    4  A    between atoms: O_12  and  C_13
REMARK    5  A    between atoms: C_13  and  C_14
REMARK    6  A    between atoms: N_16  and  C_17
REMARK    7  A    between atoms: C_17  and  C_18
REMARK    8  A    between atoms: C_17  and  C_19
REMARK                            x       y       z     vdW  Elec       q    Type
REMARK                         _______ _______ _______ _____ _____    ______ ____
ROOT
ATOM      1  C   UNL     1       4.555   3.889  16.867  0.00  0.00    +0.000 A 
ATOM      2  C   UNL     1       4.975   3.685  15.538  0.00  0.00    +0.000 A 
ATOM      3  C   UNL     1       6.100   4.341  15.046  0.00  0.00    +0.000 A 
ATOM      4 BR   UNL     1       6.652   4.056  13.263  0.00  0.00    +0.000 Br
ATOM      5  C   UNL     1       6.826   5.191  15.866  0.00  0.00    +0.000 A 
ATOM      6  C   UNL     1       6.417   5.384  17.182  0.00  0.00    +0.000 A 
ATOM      7  F   UNL     1       7.194   6.156  17.954  0.00  0.00    +0.000 F 
ATOM      8  C   UNL     1       5.269   4.763  17.702  0.00  0.00    +0.000 A 
ENDROOT
BRANCH   1  10
ATOM      9  C   UNL     1       3.518   1.799  18.018  0.00  0.00    +0.000 C 
ATOM     10  C   UNL     1       3.355   3.109  17.297  0.00  0.00    +0.000 C 
ATOM     11  O   UNL     1       2.238   3.588  17.111  0.00  0.00    +0.000 OA
ENDBRANCH   1  10
BRANCH   8  12
ATOM     12  O   UNL     1       4.857   4.893  19.002  0.00  0.00    +0.000 OA
BRANCH  12  13
ATOM     13  C   UNL     1       3.993   5.984  19.311  0.00  0.00    +0.000 C 
BRANCH  13  14
ATOM     14  C   UNL     1       2.718   5.583  20.063  0.00  0.00    +0.000 C 
ATOM     15  O   UNL     1       1.860   6.395  20.391  0.00  0.00    +0.000 OA
ATOM     16  N   UNL     1       2.627   4.232  20.328  0.00  0.00    +0.000 N 
ATOM     17  H   UNL     1       3.356   3.620  19.979  0.00  0.00    +0.000 HD
BRANCH  16  18
ATOM     18  C   UNL     1       1.435   3.637  20.918  0.00  0.00    +0.000 C 
ATOM     19  C   UNL     1       0.499   3.097  19.839  0.00  0.00    +0.000 C 
ATOM     20  C   UNL     1       1.832   2.530  21.889  0.00  0.00    +0.000 C 
ENDBRANCH  16  18
ENDBRANCH  13  14
ENDBRANCH  12  13
ENDBRANCH   8  12
TORSDOF 5
ENDMDL
MODEL 7
REMARK VINA RESULT:      -6.4      1.917      2.597
REMARK  Name = 
REMARK  8 active torsions:
REMARK  status: ('A' for Active; 'I' for Inactive)
REMARK    1  A    between atoms: C_1  and  C_2
REMARK    2  A    between atoms: C_2  and  C_4
REMARK    3  A    between atoms: C_11  and  O_12
REMARK    4  A    between atoms: O_12  and  C_13
REMARK    5  A    between atoms: C_13  and  C_14
REMARK    6  A    between atoms: N_16  and  C_17
REMARK    7  A    between atoms: C_17  and  C_18
REMARK    8  A    between atoms: C_17  and  C_19
REMARK                            x       y       z     vdW  Elec       q    Type
REMARK                         _______ _______ _______ _____ _____    ______ ____
ROOT
ATOM      1  C   UNL     1       4.792   4.005  17.540  0.00  0.00    +0.000 A 
ATOM      2  C   UNL     1       5.201   3.582  16.260  0.00  0.00    +0.000 A 
ATOM      3  C   UNL     1       5.569   4.514  15.294  0.00  0.00    +0.000 A 
ATOM      4 BR   UNL     1       6.117   3.932  13.583  0.00  0.00    +0.000 Br
ATOM      5  C   UNL     1       5.552   5.869  15.590  0.00  0.00    +0.000 A 
ATOM      6  C   UNL     1       5.158   6.286  16.858  0.00  0.00    +0.000 A 
ATOM      7  F   UNL     1       5.229   7.599  17.116  0.00  0.00    +0.000 F 
ATOM      8  C   UNL     1       4.749   5.375  17.846  0.00  0.00    +0.000 A 
ENDROOT
BRANCH   1  10
ATOM      9  C   UNL     1       3.636   1.734  18.060  0.00  0.00    +0.000 C 
ATOM     10  C   UNL     1       4.449   2.918  18.506  0.00  0.00    +0.000 C 
ATOM     11  O   UNL     1       4.896   2.977  19.649  0.00  0.00    +0.000 OA
ENDBRANCH   1  10
BRANCH   8  12
ATOM     12  O   UNL     1       4.395   5.740  19.118  0.00  0.00    +0.000 OA
BRANCH  12  13
ATOM     13  C   UNL     1       3.172   6.455  19.280  0.00  0.00    +0.000 C 
BRANCH  13  14
ATOM     14  C   UNL     1       2.113   5.711  20.100  0.00  0.00    +0.000 C 
ATOM     15  O   UNL     1       1.414   6.268  20.940  0.00  0.00    +0.000 OA
ATOM     16  N   UNL     1       2.018   4.367  19.802  0.00  0.00    +0.000 N 
ATOM     17  H   UNL     1       2.598   3.994  19.060  0.00  0.00    +0.000 HD
BRANCH  16  18
ATOM     18  C   UNL     1       0.986   3.517  20.380  0.00  0.00    +0.000 C 
ATOM     19  C   UNL     1       0.434   2.540  19.344  0.00  0.00    +0.000 C 
ATOM     20  C   UNL     1       1.545   2.765  21.583  0.00  0.00    +0.000 C 
ENDBRANCH  16  18
ENDBRANCH  13  14
ENDBRANCH  12  13
ENDBRANCH   8  12
TORSDOF 5
ENDMDL
MODEL 8
REMARK VINA RESULT:      -6.3      3.644      5.935
REMARK  Name = 
REMARK  8 active torsions:
REMARK  status: ('A' for Active; 'I' for Inactive)
REMARK    1  A    between atoms: C_1  and  C_2
REMARK    2  A    between atoms: C_2  and  C_4
REMARK    3  A    between atoms: C_11  and  O_12
REMARK    4  A    between atoms: O_12  and  C_13
REMARK    5  A    between atoms: C_13  and  C_14
REMARK    6  A    between atoms: N_16  and  C_17
REMARK    7  A    between atoms: C_17  and  C_18
REMARK    8  A    between atoms: C_17  and  C_19
REMARK                            x       y       z     vdW  Elec       q    Type
REMARK                         _______ _______ _______ _____ _____    ______ ____
ROOT
ATOM      1  C   UNL     1       6.108   5.846  17.964  0.00  0.00    +0.000 A 
ATOM      2  C   UNL     1       5.243   5.628  19.053  0.00  0.00    +0.000 A 
ATOM      3  C   UNL     1       4.027   4.977  18.868  0.00  0.00    +0.000 A 
ATOM      4 BR   UNL     1       2.878   4.690  20.340  0.00  0.00    +0.000 Br
ATOM      5  C   UNL     1       3.663   4.522  17.610  0.00  0.00    +0.000 A 
ATOM      6  C   UNL     1       4.523   4.728  16.535  0.00  0.00    +0.000 A 
ATOM      7  F   UNL     1       4.160   4.206  15.356  0.00  0.00    +0.000 F 
ATOM      8  C   UNL     1       5.743   5.410  16.680  0.00  0.00    +0.000 A 
ENDROOT
BRANCH   1  10
ATOM      9  C   UNL     1       7.718   7.870  17.686  0.00  0.00    +0.000 C 
ATOM     10  C   UNL     1       7.399   6.527  18.283  0.00  0.00    +0.000 C 
ATOM     11  O   UNL     1       8.164   6.002  19.090  0.00  0.00    +0.000 OA
ENDBRANCH   1  10
BRANCH   8  12
ATOM     12  O   UNL     1       6.636   5.596  15.657  0.00  0.00    +0.000 OA
BRANCH  12  13
ATOM     13  C   UNL     1       7.185   4.433  15.043  0.00  0.00    +0.000 C 
BRANCH  13  14
ATOM     14  C   UNL     1       6.940   4.344  13.533  0.00  0.00    +0.000 C 
ATOM     15  O   UNL     1       7.489   5.090  12.728  0.00  0.00    +0.000 OA
ATOM     16  N   UNL     1       6.055   3.351  13.167  0.00  0.00    +0.000 N 
ATOM     17  H   UNL     1       5.682   2.745  13.889  0.00  0.00    +0.000 HD
BRANCH  16  18
ATOM     18  C   UNL     1       5.790   3.024  11.772  0.00  0.00    +0.000 C 
ATOM     19  C   UNL     1       6.195   1.586  11.459  0.00  0.00    +0.000 C 
ATOM     20  C   UNL     1       4.315   3.250  11.456  0.00  0.00    +0.000 C 
ENDBRANCH  16  18
ENDBRANCH  13  14
ENDBRANCH  12  13
ENDBRANCH   8  12
TORSDOF 5
ENDMDL
MODEL 9
REMARK VINA RESULT:      -6.2      1.224      1.386
REMARK  Name = 
REMARK  8 active torsions:
REMARK  status: ('A' for Active; 'I' for Inactive)
REMARK    1  A    between atoms: C_1  and  C_2
REMARK    2  A    between atoms: C_2  and  C_4
REMARK    3  A    between atoms: C_11  and  O_12
REMARK    4  A    between atoms: O_12  and  C_13
REMARK    5  A    between atoms: C_13  and  C_14
REMARK    6  A    between atoms: N_16  and  C_17
REMARK    7  A    between atoms: C_17  and  C_18
REMARK    8  A    between atoms: C_17  and  C_19
REMARK                            x       y       z     vdW  Elec       q    Type
REMARK                         _______ _______ _______ _____ _____    ______ ____
ROOT
ATOM      1  C   UNL     1       6.689   5.575  16.931  0.00  0.00    +0.000 A 
ATOM      2  C   UNL     1       7.210   5.417  15.633  0.00  0.00    +0.000 A 
ATOM      3  C   UNL     1       6.516   4.678  14.679  0.00  0.00    +0.000 A 
ATOM      4 BR   UNL     1       7.227   4.476  12.942  0.00  0.00    +0.000 Br
ATOM      5  C   UNL     1       5.294   4.104  14.996  0.00  0.00    +0.000 A 
ATOM      6  C   UNL     1       4.773   4.269  16.277  0.00  0.00    +0.000 A 
ATOM      7  F   UNL     1       3.557   3.757  16.510  0.00  0.00    +0.000 F 
ATOM      8  C   UNL     1       5.463   4.981  17.272  0.00  0.00    +0.000 A 
ENDROOT
BRANCH   1  10
ATOM      9  C   UNL     1       7.659   7.889  17.617  0.00  0.00    +0.000 C 
ATOM     10  C   UNL     1       7.503   6.413  17.863  0.00  0.00    +0.000 C 
ATOM     11  O   UNL     1       7.987   5.890  18.863  0.00  0.00    +0.000 OA
ENDBRANCH   1  10
BRANCH   8  12
ATOM     12  O   UNL     1       4.967   5.203  18.530  0.00  0.00    +0.000 OA
BRANCH  12  13
ATOM     13  C   UNL     1       5.068   4.139  19.473  0.00  0.00    +0.000 C 
BRANCH  13  14
ATOM     14  C   UNL     1       3.778   3.332  19.653  0.00  0.00    +0.000 C 
ATOM     15  O   UNL     1       3.766   2.107  19.723  0.00  0.00    +0.000 OA
ATOM     16  N   UNL     1       2.640   4.108  19.733  0.00  0.00    +0.000 N 
ATOM     17  H   UNL     1       2.740   5.117  19.716  0.00  0.00    +0.000 HD
BRANCH  16  18
ATOM     18  C   UNL     1       1.333   3.538  20.031  0.00  0.00    +0.000 C 
ATOM     19  C   UNL     1       0.870   2.609  18.912  0.00  0.00    +0.000 C 
ATOM     20  C   UNL     1       1.381   2.796  21.362  0.00  0.00    +0.000 C 
ENDBRANCH  16  18
ENDBRANCH  13  14
ENDBRANCH  12  13
ENDBRANCH   8  12
TORSDOF 5
ENDMDL
