MODEL 1
REMARK VINA RESULT:      -5.6      0.000      0.000
REMARK  Name = 
REMARK  3 active torsions:
REMARK  status: ('A' for Active; 'I' for Inactive)
REMARK    1  A    between atoms: S_2  and  O_3
REMARK    2  A    between atoms: S_2  and  C_4
REMARK    3  A    between atoms: C_11  and  O_12
REMARK                            x       y       z     vdW  Elec       q    Type
REMARK                         _______ _______ _______ _____ _____    ______ ____
ROOT
ATOM      1  C   UNL     1       5.241   5.324  17.866  0.00  0.00    +0.000 A 
ATOM      2  C   UNL     1       4.565   6.500  17.510  0.00  0.00    +0.000 A 
ATOM      3  C   UNL     1       3.362   6.830  18.129  0.00  0.00    +0.000 A 
ATOM      4 CL   UNL     1       2.552   8.284  17.693  0.00  0.00    +0.000 Cl
ATOM      5  C   UNL     1       2.810   5.999  19.100  0.00  0.00    +0.000 A 
ATOM      6  C   UNL     1       3.473   4.824  19.447  0.00  0.00    +0.000 A 
ATOM      7 CL   UNL     1       2.780   3.792  20.645  0.00  0.00    +0.000 Cl
ATOM      8  C   UNL     1       4.684   4.481  18.835  0.00  0.00    +0.000 A 
ENDROOT
BRANCH   1  10
ATOM      9  O   UNL     1       7.704   4.423  18.181  0.00  0.00    +0.000 OA
ATOM     10  S   UNL     1       6.815   4.913  17.078  0.00  0.00    +0.000 S 
BRANCH  10  11
ATOM     11  O   UNL     1       6.228   3.567  16.427  0.00  0.00    +0.000 OA
ATOM     12  H   UNL     1       5.696   3.136  17.137  0.00  0.00    +0.000 HD
ENDBRANCH  10  11
ENDBRANCH   1  10
BRANCH   8  13
ATOM     13  O   UNL     1       5.331   3.319  19.174  0.00  0.00    +0.000 OA
ATOM     14  H   UNL     1       5.085   3.099  20.093  0.00  0.00    +0.000 HD
ENDBRANCH   8  13
TORSDOF 3
ENDMDL
MODEL 2
REMARK VINA RESULT:      -5.5      1.100      1.225
REMARK  Name = 
REMARK  3 active torsions:
REMARK  status: ('A' for Active; 'I' for Inactive)
REMARK    1  A    between atoms: S_2  and  O_3
REMARK    2  A    between atoms: S_2  and  C_4
REMARK    3  A    between atoms: C_11  and  O_12
REMARK                            x       y       z     vdW  Elec       q    Type
REMARK                         _______ _______ _______ _____ _____    ______ ____
ROOT
ATOM      1  C   UNL     1       5.293   5.409  18.678  0.00  0.00    +0.000 A 
ATOM      2  C   UNL     1       4.506   6.479  18.230  0.00  0.00    +0.000 A 
ATOM      3  C   UNL     1       3.118   6.363  18.203  0.00  0.00    +0.000 A 
ATOM      4 CL   UNL     1       2.163   7.690  17.667  0.00  0.00    +0.000 Cl
ATOM      5  C   UNL     1       2.494   5.187  18.611  0.00  0.00    +0.000 A 
ATOM      6  C   UNL     1       3.276   4.118  19.045  0.00  0.00    +0.000 A 
ATOM      7 CL   UNL     1       2.499   2.658  19.541  0.00  0.00    +0.000 Cl
ATOM      8  C   UNL     1       4.671   4.222  19.080  0.00  0.00    +0.000 A 
ENDROOT
BRANCH   1  10
ATOM      9  O   UNL     1       7.489   5.197  20.131  0.00  0.00    +0.000 OA
ATOM     10  S   UNL     1       7.093   5.574  18.735  0.00  0.00    +0.000 S 
BRANCH  10  11
ATOM     11  O   UNL     1       7.322   4.227  17.891  0.00  0.00    +0.000 OA
ATOM     12  H   UNL     1       7.520   4.518  16.970  0.00  0.00    +0.000 HD
ENDBRANCH  10  11
ENDBRANCH   1  10
BRANCH   8  13
ATOM     13  O   UNL     1       5.437   3.164  19.501  0.00  0.00    +0.000 OA
ATOM     14  H   UNL     1       6.248   3.526  19.905  0.00  0.00    +0.000 HD
ENDBRANCH   8  13
TORSDOF 3
ENDMDL
MODEL 3
REMARK VINA RESULT:      -5.5      0.758      1.014
REMARK  Name = 
REMARK  3 active torsions:
REMARK  status: ('A' for Active; 'I' for Inactive)
REMARK    1  A    between atoms: S_2  and  O_3
REMARK    2  A    between atoms: S_2  and  C_4
REMARK    3  A    between atoms: C_11  and  O_12
REMARK                            x       y       z     vdW  Elec       q    Type
REMARK                         _______ _______ _______ _____ _____    ______ ____
ROOT
ATOM      1  C   UNL     1       5.312   5.113  17.643  0.00  0.00    +0.000 A 
ATOM      2  C   UNL     1       4.677   6.328  17.348  0.00  0.00    +0.000 A 
ATOM      3  C   UNL     1       3.524   6.701  18.037  0.00  0.00    +0.000 A 
ATOM      4 CL   UNL     1       2.765   8.202  17.676  0.00  0.00    +0.000 Cl
ATOM      5  C   UNL     1       2.984   5.875  19.019  0.00  0.00    +0.000 A 
ATOM      6  C   UNL     1       3.607   4.662  19.305  0.00  0.00    +0.000 A 
ATOM      7 CL   UNL     1       2.928   3.636  20.517  0.00  0.00    +0.000 Cl
ATOM      8  C   UNL     1       4.766   4.276  18.623  0.00  0.00    +0.000 A 
ENDROOT
BRANCH   1  10
ATOM      9  O   UNL     1       7.410   5.931  16.263  0.00  0.00    +0.000 OA
ATOM     10  S   UNL     1       6.821   4.647  16.764  0.00  0.00    +0.000 S 
BRANCH  10  11
ATOM     11  O   UNL     1       7.620   4.359  18.127  0.00  0.00    +0.000 OA
ATOM     12  H   UNL     1       7.365   3.447  18.400  0.00  0.00    +0.000 HD
ENDBRANCH  10  11
ENDBRANCH   1  10
BRANCH   8  13
ATOM     13  O   UNL     1       5.372   3.077  18.903  0.00  0.00    +0.000 OA
ATOM     14  H   UNL     1       5.186   2.860  19.836  0.00  0.00    +0.000 HD
ENDBRANCH   8  13
TORSDOF 3
ENDMDL
MODEL 4
REMARK VINA RESULT:      -5.4      3.409      4.224
REMARK  Name = 
REMARK  3 active torsions:
REMARK  status: ('A' for Active; 'I' for Inactive)
REMARK    1  A    between atoms: S_2  and  O_3
REMARK    2  A    between atoms: S_2  and  C_4
REMARK    3  A    between atoms: C_11  and  O_12
REMARK                            x       y       z     vdW  Elec       q    Type
REMARK                         _______ _______ _______ _____ _____    ______ ____
ROOT
ATOM      1  C   UNL     1       5.072   4.082  17.822  0.00  0.00    +0.000 A 
ATOM      2  C   UNL     1       5.101   3.802  16.448  0.00  0.00    +0.000 A 
ATOM      3  C   UNL     1       5.977   4.492  15.612  0.00  0.00    +0.000 A 
ATOM      4 CL   UNL     1       6.014   4.128  13.931  0.00  0.00    +0.000 Cl
ATOM      5  C   UNL     1       6.826   5.470  16.124  0.00  0.00    +0.000 A 
ATOM      6  C   UNL     1       6.790   5.758  17.487  0.00  0.00    +0.000 A 
ATOM      7 CL   UNL     1       7.838   6.978  18.114  0.00  0.00    +0.000 Cl
ATOM      8  C   UNL     1       5.918   5.070  18.338  0.00  0.00    +0.000 A 
ENDROOT
BRANCH   1  10
ATOM      9  O   UNL     1       3.423   2.034  18.075  0.00  0.00    +0.000 OA
ATOM     10  S   UNL     1       3.952   3.165  18.906  0.00  0.00    +0.000 S 
BRANCH  10  11
ATOM     11  O   UNL     1       5.163   2.506  19.730  0.00  0.00    +0.000 OA
ATOM     12  H   UNL     1       5.408   1.687  19.238  0.00  0.00    +0.000 HD
ENDBRANCH  10  11
ENDBRANCH   1  10
BRANCH   8  13
ATOM     13  O   UNL     1       5.880   5.362  19.678  0.00  0.00    +0.000 OA
ATOM     14  H   UNL     1       6.198   6.278  19.793  0.00  0.00    +0.000 HD
ENDBRANCH   8  13
TORSDOF 3
ENDMDL
MODEL 5
REMARK VINA RESULT:      -5.4      1.435      1.548
REMARK  Name = 
REMARK  3 active torsions:
REMARK  status: ('A' for Active; 'I' for Inactive)
REMARK    1  A    between atoms: S_2  and  O_3
REMARK    2  A    between atoms: S_2  and  C_4
REMARK    3  A    between atoms: C_11  and  O_12
REMARK                            x       y       z     vdW  Elec       q    Type
REMARK                         _______ _______ _______ _____ _____    ______ ____
ROOT
ATOM      1  C   UNL     1       5.094   5.147  17.122  0.00  0.00    +0.000 A 
ATOM      2  C   UNL     1       4.637   6.465  17.266  0.00  0.00    +0.000 A 
ATOM      3  C   UNL     1       3.348   6.712  17.735  0.00  0.00    +0.000 A 
ATOM      4 CL   UNL     1       2.806   8.334  17.922  0.00  0.00    +0.000 Cl
ATOM      5  C   UNL     1       2.496   5.659  18.059  0.00  0.00    +0.000 A 
ATOM      6  C   UNL     1       2.944   4.349  17.905  0.00  0.00    +0.000 A 
ATOM      7 CL   UNL     1       1.880   3.047  18.299  0.00  0.00    +0.000 Cl
ATOM      8  C   UNL     1       4.237   4.087  17.438  0.00  0.00    +0.000 A 
ENDROOT
BRANCH   1  10
ATOM      9  O   UNL     1       7.439   6.178  16.478  0.00  0.00    +0.000 OA
ATOM     10  S   UNL     1       6.775   4.834  16.537  0.00  0.00    +0.000 S 
BRANCH  10  11
ATOM     11  O   UNL     1       7.240   4.235  17.953  0.00  0.00    +0.000 OA
ATOM     12  H   UNL     1       6.410   4.059  18.456  0.00  0.00    +0.000 HD
ENDBRANCH  10  11
ENDBRANCH   1  10
BRANCH   8  13
ATOM     13  O   UNL     1       4.671   2.795  17.281  0.00  0.00    +0.000 OA
ATOM     14  H   UNL     1       5.548   2.722  17.703  0.00  0.00    +0.000 HD
ENDBRANCH   8  13
TORSDOF 3
ENDMDL
MODEL 6
REMARK VINA RESULT:      -5.4      2.228      3.332
REMARK  Name = 
REMARK  3 active torsions:
REMARK  status: ('A' for Active; 'I' for Inactive)
REMARK    1  A    between atoms: S_2  and  O_3
REMARK    2  A    between atoms: S_2  and  C_4
REMARK    3  A    between atoms: C_11  and  O_12
REMARK                            x       y       z     vdW  Elec       q    Type
REMARK                         _______ _______ _______ _____ _____    ______ ____
ROOT
ATOM      1  C   UNL     1       3.657   4.068  18.821  0.00  0.00    +0.000 A 
ATOM      2  C   UNL     1       2.957   5.076  19.499  0.00  0.00    +0.000 A 
ATOM      3  C   UNL     1       2.955   6.379  19.006  0.00  0.00    +0.000 A 
ATOM      4 CL   UNL     1       2.079   7.603  19.839  0.00  0.00    +0.000 Cl
ATOM      5  C   UNL     1       3.650   6.701  17.843  0.00  0.00    +0.000 A 
ATOM      6  C   UNL     1       4.355   5.702  17.174  0.00  0.00    +0.000 A 
ATOM      7 CL   UNL     1       5.223   6.107  15.738  0.00  0.00    +0.000 Cl
ATOM      8  C   UNL     1       4.364   4.389  17.656  0.00  0.00    +0.000 A 
ENDROOT
BRANCH   1  10
ATOM      9  O   UNL     1       3.477   1.496  18.246  0.00  0.00    +0.000 OA
ATOM     10  S   UNL     1       3.635   2.374  19.452  0.00  0.00    +0.000 S 
BRANCH  10  11
ATOM     11  O   UNL     1       5.217   2.372  19.727  0.00  0.00    +0.000 OA
ATOM     12  H   UNL     1       5.441   3.289  20.013  0.00  0.00    +0.000 HD
ENDBRANCH  10  11
ENDBRANCH   1  10
BRANCH   8  13
ATOM     13  O   UNL     1       5.066   3.410  16.999  0.00  0.00    +0.000 OA
ATOM     14  H   UNL     1       5.068   2.615  17.565  0.00  0.00    +0.000 HD
ENDBRANCH   8  13
TORSDOF 3
ENDMDL
MODEL 7
REMARK VINA RESULT:      -5.4      2.954      3.876
REMARK  Name = 
REMARK  3 active torsions:
REMARK  status: ('A' for Active; 'I' for Inactive)
REMARK    1  A    between atoms: S_2  and  O_3
REMARK    2  A    between atoms: S_2  and  C_4
REMARK    3  A    between atoms: C_11  and  O_12
REMARK                            x       y       z     vdW  Elec       q    Type
REMARK                         _______ _______ _______ _____ _____    ______ ____
ROOT
ATOM      1  C   UNL     1       3.015   3.956  19.640  0.00  0.00    +0.000 A 
ATOM      2  C   UNL     1       2.357   5.136  19.265  0.00  0.00    +0.000 A 
ATOM      3  C   UNL     1       3.035   6.117  18.544  0.00  0.00    +0.000 A 
ATOM      4 CL   UNL     1       2.212   7.553  18.077  0.00  0.00    +0.000 Cl
ATOM      5  C   UNL     1       4.372   5.944  18.193  0.00  0.00    +0.000 A 
ATOM      6  C   UNL     1       5.031   4.777  18.575  0.00  0.00    +0.000 A 
ATOM      7 CL   UNL     1       6.690   4.572  18.145  0.00  0.00    +0.000 Cl
ATOM      8  C   UNL     1       4.361   3.783  19.296  0.00  0.00    +0.000 A 
ENDROOT
BRANCH   1  10
ATOM      9  O   UNL     1       2.730   2.659  21.924  0.00  0.00    +0.000 OA
ATOM     10  S   UNL     1       2.122   2.676  20.553  0.00  0.00    +0.000 S 
BRANCH  10  11
ATOM     11  O   UNL     1       0.816   3.596  20.720  0.00  0.00    +0.000 OA
ATOM     12  H   UNL     1       1.047   4.269  21.402  0.00  0.00    +0.000 HD
ENDBRANCH  10  11
ENDBRANCH   1  10
BRANCH   8  13
ATOM     13  O   UNL     1       5.015   2.639  19.677  0.00  0.00    +0.000 OA
ATOM     14  H   UNL     1       5.216   2.714  20.629  0.00  0.00    +0.000 HD
ENDBRANCH   8  13
TORSDOF 3
ENDMDL
MODEL 8
REMARK VINA RESULT:      -5.3      1.619      1.777
REMARK  Name = 
REMARK  3 active torsions:
REMARK  status: ('A' for Active; 'I' for Inactive)
REMARK    1  A    between atoms: S_2  and  O_3
REMARK    2  A    between atoms: S_2  and  C_4
REMARK    3  A    between atoms: C_11  and  O_12
REMARK                            x       y       z     vdW  Elec       q    Type
REMARK                         _______ _______ _______ _____ _____    ______ ____
ROOT
ATOM      1  C   UNL     1       5.258   5.542  17.097  0.00  0.00    +0.000 A 
ATOM      2  C   UNL     1       4.507   6.639  17.541  0.00  0.00    +0.000 A 
ATOM      3  C   UNL     1       3.189   6.462  17.959  0.00  0.00    +0.000 A 
ATOM      4 CL   UNL     1       2.283   7.814  18.517  0.00  0.00    +0.000 Cl
ATOM      5  C   UNL     1       2.599   5.201  17.934  0.00  0.00    +0.000 A 
ATOM      6  C   UNL     1       3.341   4.111  17.482  0.00  0.00    +0.000 A 
ATOM      7 CL   UNL     1       2.602   2.551  17.444  0.00  0.00    +0.000 Cl
ATOM      8  C   UNL     1       4.666   4.275  17.063  0.00  0.00    +0.000 A 
ENDROOT
BRANCH   1  10
ATOM      9  O   UNL     1       7.705   4.548  17.041  0.00  0.00    +0.000 OA
ATOM     10  S   UNL     1       6.975   5.775  16.581  0.00  0.00    +0.000 S 
BRANCH  10  11
ATOM     11  O   UNL     1       6.636   5.469  15.042  0.00  0.00    +0.000 OA
ATOM     12  H   UNL     1       6.823   4.510  14.911  0.00  0.00    +0.000 HD
ENDBRANCH  10  11
ENDBRANCH   1  10
BRANCH   8  13
ATOM     13  O   UNL     1       5.390   3.201  16.611  0.00  0.00    +0.000 OA
ATOM     14  H   UNL     1       4.973   2.391  16.961  0.00  0.00    +0.000 HD
ENDBRANCH   8  13
TORSDOF 3
ENDMDL
MODEL 9
REMARK VINA RESULT:      -5.3      1.978      3.236
REMARK  Name = 
REMARK  3 active torsions:
REMARK  status: ('A' for Active; 'I' for Inactive)
REMARK    1  A    between atoms: S_2  and  O_3
REMARK    2  A    between atoms: S_2  and  C_4
REMARK    3  A    between atoms: C_11  and  O_12
REMARK                            x       y       z     vdW  Elec       q    Type
REMARK                         _______ _______ _______ _____ _____    ______ ____
ROOT
ATOM      1  C   UNL     1       5.388   4.675  16.791  0.00  0.00    +0.000 A 
ATOM      2  C   UNL     1       4.557   3.562  16.983  0.00  0.00    +0.000 A 
ATOM      3  C   UNL     1       3.271   3.728  17.494  0.00  0.00    +0.000 A 
ATOM      4 CL   UNL     1       2.257   2.355  17.709  0.00  0.00    +0.000 Cl
ATOM      5  C   UNL     1       2.797   4.994  17.827  0.00  0.00    +0.000 A 
ATOM      6  C   UNL     1       3.625   6.100  17.649  0.00  0.00    +0.000 A 
ATOM      7 CL   UNL     1       3.036   7.666  18.073  0.00  0.00    +0.000 Cl
ATOM      8  C   UNL     1       4.917   5.948  17.134  0.00  0.00    +0.000 A 
ENDROOT
BRANCH   1  10
ATOM      9  O   UNL     1       7.282   5.652  15.231  0.00  0.00    +0.000 OA
ATOM     10  S   UNL     1       7.045   4.456  16.104  0.00  0.00    +0.000 S 
BRANCH  10  11
ATOM     11  O   UNL     1       7.757   4.842  17.491  0.00  0.00    +0.000 OA
ATOM     12  H   UNL     1       7.029   4.928  18.151  0.00  0.00    +0.000 HD
ENDBRANCH  10  11
ENDBRANCH   1  10
BRANCH   8  13
ATOM     13  O   UNL     1       5.733   7.039  16.967  0.00  0.00    +0.000 OA
ATOM     14  H   UNL     1       5.651   7.332  16.039  0.00  0.00    +0.000 HD
ENDBRANCH   8  13
TORSDOF 3
ENDMDL
