MODEL 1
REMARK VINA RESULT:      -8.7      0.000      0.000
REMARK  Name = 
REMARK  6 active torsions:
REMARK  status: ('A' for Active; 'I' for Inactive)
REMARK    1  A    between atoms: C_1  and  C_2
REMARK    2  A    between atoms: C_2  and  C_4
REMARK    3  A    between atoms: C_8  and  N_9
REMARK    4  A    between atoms: C_16  and  C_17
REMARK    5  A    between atoms: N_19  and  C_20
REMARK    6  A    between atoms: C_20  and  C_21
REMARK                            x       y       z     vdW  Elec       q    Type
REMARK                         _______ _______ _______ _____ _____    ______ ____
ROOT
ATOM      1  N   UNL     1       8.753   8.612  18.905  0.00  0.00    +0.000 N 
ATOM      2  C   UNL     1       7.872   8.120  17.969  0.00  0.00    +0.000 C 
ATOM      3  O   UNL     1       7.409   8.775  17.030  0.00  0.00    +0.000 OA
ATOM      4  N   UNL     1       7.532   6.794  18.081  0.00  0.00    +0.000 N 
ATOM      5  C   UNL     1       7.911   5.794  19.059  0.00  0.00    +0.000 C 
ATOM      6  C   UNL     1       7.931   4.517  18.237  0.00  0.00    +0.000 C 
ATOM      7  C   UNL     1       6.784   4.695  17.242  0.00  0.00    +0.000 C 
ATOM      8  C   UNL     1       6.634   6.213  17.082  0.00  0.00    +0.000 C 
ATOM      9  H   UNL     1       9.235   7.940  19.478  0.00  0.00    +0.000 HD
ENDROOT
BRANCH   1  14
ATOM     10  C   UNL     1       9.510  11.949  20.385  0.00  0.00    +0.000 A 
ATOM     11  C   UNL     1      10.051  12.625  19.286  0.00  0.00    +0.000 A 
ATOM     12  C   UNL     1      10.144  11.983  18.058  0.00  0.00    +0.000 A 
ATOM     13  C   UNL     1       9.706  10.666  17.920  0.00  0.00    +0.000 A 
ATOM     14  C   UNL     1       9.189   9.957  19.008  0.00  0.00    +0.000 A 
ATOM     15  C   UNL     1       9.082  10.614  20.242  0.00  0.00    +0.000 A 
BRANCH  10  17
ATOM     16  C   UNL     1       9.813  14.068  21.837  0.00  0.00    +0.000 C 
ATOM     17  C   UNL     1       9.370  12.628  21.709  0.00  0.00    +0.000 C 
ATOM     18  O   UNL     1       8.888  12.021  22.662  0.00  0.00    +0.000 OA
ENDBRANCH  10  17
ENDBRANCH   1  14
BRANCH   8  19
ATOM     19  C   UNL     1       5.154   6.598  17.318  0.00  0.00    +0.000 C 
ATOM     20  O   UNL     1       4.550   7.403  16.612  0.00  0.00    +0.000 OA
ATOM     21  N   UNL     1       4.620   6.062  18.475  0.00  0.00    +0.000 N 
ATOM     22  H   UNL     1       5.115   5.321  18.951  0.00  0.00    +0.000 HD
BRANCH  21  23
ATOM     23  C   UNL     1       3.282   6.371  18.924  0.00  0.00    +0.000 C 
BRANCH  23  24
ATOM     24  C   UNL     1       2.463   5.114  19.085  0.00  0.00    +0.000 A 
ATOM     25  C   UNL     1       1.856   4.823  20.317  0.00  0.00    +0.000 A 
ATOM     26  C   UNL     1       1.084   3.669  20.475  0.00  0.00    +0.000 A 
ATOM     27  C   UNL     1       0.920   2.789  19.408  0.00  0.00    +0.000 A 
ATOM     28  C   UNL     1       1.532   3.058  18.184  0.00  0.00    +0.000 A 
ATOM     29  C   UNL     1       2.303   4.211  18.024  0.00  0.00    +0.000 A 
ENDBRANCH  23  24
ENDBRANCH  21  23
ENDBRANCH   8  19
TORSDOF 5
ENDMDL
MODEL 2
REMARK VINA RESULT:      -8.6      0.563      1.158
REMARK  Name = 
REMARK  6 active torsions:
REMARK  status: ('A' for Active; 'I' for Inactive)
REMARK    1  A    between atoms: C_1  and  C_2
REMARK    2  A    between atoms: C_2  and  C_4
REMARK    3  A    between atoms: C_8  and  N_9
REMARK    4  A    between atoms: C_16  and  C_17
REMARK    5  A    between atoms: N_19  and  C_20
REMARK    6  A    between atoms: C_20  and  C_21
REMARK                            x       y       z     vdW  Elec       q    Type
REMARK                         _______ _______ _______ _____ _____    ______ ____
ROOT
ATOM      1  N   UNL     1       8.723   8.618  18.950  0.00  0.00    +0.000 N 
ATOM      2  C   UNL     1       7.950   8.105  17.935  0.00  0.00    +0.000 C 
ATOM      3  O   UNL     1       7.615   8.731  16.925  0.00  0.00    +0.000 OA
ATOM      4  N   UNL     1       7.573   6.790  18.052  0.00  0.00    +0.000 N 
ATOM      5  C   UNL     1       7.815   5.822  19.103  0.00  0.00    +0.000 C 
ATOM      6  C   UNL     1       7.906   4.514  18.335  0.00  0.00    +0.000 C 
ATOM      7  C   UNL     1       6.889   4.672  17.205  0.00  0.00    +0.000 C 
ATOM      8  C   UNL     1       6.789   6.185  16.974  0.00  0.00    +0.000 C 
ATOM      9  H   UNL     1       9.122   7.961  19.600  0.00  0.00    +0.000 HD
ENDROOT
BRANCH   1  14
ATOM     10  C   UNL     1       9.482  11.955  20.431  0.00  0.00    +0.000 A 
ATOM     11  C   UNL     1      10.054  12.620  19.341  0.00  0.00    +0.000 A 
ATOM     12  C   UNL     1      10.167  11.971  18.118  0.00  0.00    +0.000 A 
ATOM     13  C   UNL     1       9.719  10.658  17.977  0.00  0.00    +0.000 A 
ATOM     14  C   UNL     1       9.172   9.960  19.056  0.00  0.00    +0.000 A 
ATOM     15  C   UNL     1       9.044  10.624  20.285  0.00  0.00    +0.000 A 
BRANCH  10  17
ATOM     16  C   UNL     1       8.495  11.970  22.821  0.00  0.00    +0.000 C 
ATOM     17  C   UNL     1       9.321  12.642  21.748  0.00  0.00    +0.000 C 
ATOM     18  O   UNL     1       9.868  13.724  21.948  0.00  0.00    +0.000 OA
ENDBRANCH  10  17
ENDBRANCH   1  14
BRANCH   8  19
ATOM     19  C   UNL     1       5.299   6.602  17.020  0.00  0.00    +0.000 C 
ATOM     20  O   UNL     1       4.776   7.315  16.165  0.00  0.00    +0.000 OA
ATOM     21  N   UNL     1       4.651   6.216  18.178  0.00  0.00    +0.000 N 
ATOM     22  H   UNL     1       5.087   5.539  18.787  0.00  0.00    +0.000 HD
BRANCH  21  23
ATOM     23  C   UNL     1       3.281   6.582  18.456  0.00  0.00    +0.000 C 
BRANCH  23  24
ATOM     24  C   UNL     1       2.471   5.376  18.864  0.00  0.00    +0.000 A 
ATOM     25  C   UNL     1       2.116   4.411  17.908  0.00  0.00    +0.000 A 
ATOM     26  C   UNL     1       1.379   3.284  18.277  0.00  0.00    +0.000 A 
ATOM     27  C   UNL     1       0.979   3.113  19.600  0.00  0.00    +0.000 A 
ATOM     28  C   UNL     1       1.310   4.074  20.556  0.00  0.00    +0.000 A 
ATOM     29  C   UNL     1       2.048   5.201  20.190  0.00  0.00    +0.000 A 
ENDBRANCH  23  24
ENDBRANCH  21  23
ENDBRANCH   8  19
TORSDOF 5
ENDMDL
MODEL 3
REMARK VINA RESULT:      -8.5      5.334      7.986
REMARK  Name = 
REMARK  6 active torsions:
REMARK  status: ('A' for Active; 'I' for Inactive)
REMARK    1  A    between atoms: C_1  and  C_2
REMARK    2  A    between atoms: C_2  and  C_4
REMARK    3  A    between atoms: C_8  and  N_9
REMARK    4  A    between atoms: C_16  and  C_17
REMARK    5  A    between atoms: N_19  and  C_20
REMARK    6  A    between atoms: C_20  and  C_21
REMARK                            x       y       z     vdW  Elec       q    Type
REMARK                         _______ _______ _______ _____ _____    ______ ____
ROOT
ATOM      1  N   UNL     1       4.580   3.465  17.154  0.00  0.00    +0.000 N 
ATOM      2  C   UNL     1       3.525   4.170  17.687  0.00  0.00    +0.000 C 
ATOM      3  O   UNL     1       3.207   5.315  17.352  0.00  0.00    +0.000 OA
ATOM      4  N   UNL     1       2.761   3.520  18.625  0.00  0.00    +0.000 N 
ATOM      5  C   UNL     1       2.888   2.198  19.204  0.00  0.00    +0.000 C 
ATOM      6  C   UNL     1       1.442   1.805  19.455  0.00  0.00    +0.000 C 
ATOM      7  C   UNL     1       0.763   3.115  19.854  0.00  0.00    +0.000 C 
ATOM      8  C   UNL     1       1.601   4.212  19.188  0.00  0.00    +0.000 C 
ATOM      9  H   UNL     1       4.605   2.475  17.331  0.00  0.00    +0.000 HD
ENDROOT
BRANCH   1  14
ATOM     10  C   UNL     1       6.320   4.073  13.913  0.00  0.00    +0.000 A 
ATOM     11  C   UNL     1       7.355   4.927  14.308  0.00  0.00    +0.000 A 
ATOM     12  C   UNL     1       7.485   5.281  15.645  0.00  0.00    +0.000 A 
ATOM     13  C   UNL     1       6.585   4.793  16.591  0.00  0.00    +0.000 A 
ATOM     14  C   UNL     1       5.524   3.963  16.220  0.00  0.00    +0.000 A 
ATOM     15  C   UNL     1       5.405   3.594  14.872  0.00  0.00    +0.000 A 
BRANCH  10  17
ATOM     16  C   UNL     1       4.807   3.265  11.978  0.00  0.00    +0.000 C 
ATOM     17  C   UNL     1       6.177   3.652  12.486  0.00  0.00    +0.000 C 
ATOM     18  O   UNL     1       7.159   3.641  11.748  0.00  0.00    +0.000 OA
ENDBRANCH  10  17
ENDBRANCH   1  14
BRANCH   8  19
ATOM     19  C   UNL     1       1.996   5.260  20.256  0.00  0.00    +0.000 C 
ATOM     20  O   UNL     1       2.402   4.954  21.376  0.00  0.00    +0.000 OA
ATOM     21  N   UNL     1       1.718   6.562  19.886  0.00  0.00    +0.000 N 
ATOM     22  H   UNL     1       1.498   6.765  18.921  0.00  0.00    +0.000 HD
BRANCH  21  23
ATOM     23  C   UNL     1       1.930   7.681  20.775  0.00  0.00    +0.000 C 
BRANCH  23  24
ATOM     24  C   UNL     1       1.106   8.871  20.351  0.00  0.00    +0.000 A 
ATOM     25  C   UNL     1       1.154   9.324  19.022  0.00  0.00    +0.000 A 
ATOM     26  C   UNL     1       0.385  10.416  18.615  0.00  0.00    +0.000 A 
ATOM     27  C   UNL     1      -0.431  11.076  19.531  0.00  0.00    +0.000 A 
ATOM     28  C   UNL     1      -0.475  10.647  20.857  0.00  0.00    +0.000 A 
ATOM     29  C   UNL     1       0.292   9.554  21.267  0.00  0.00    +0.000 A 
ENDBRANCH  23  24
ENDBRANCH  21  23
ENDBRANCH   8  19
TORSDOF 5
ENDMDL
MODEL 4
REMARK VINA RESULT:      -8.3      1.456      2.288
REMARK  Name = 
REMARK  6 active torsions:
REMARK  status: ('A' for Active; 'I' for Inactive)
REMARK    1  A    between atoms: C_1  and  C_2
REMARK    2  A    between atoms: C_2  and  C_4
REMARK    3  A    between atoms: C_8  and  N_9
REMARK    4  A    between atoms: C_16  and  C_17
REMARK    5  A    between atoms: N_19  and  C_20
REMARK    6  A    between atoms: C_20  and  C_21
REMARK                            x       y       z     vdW  Elec       q    Type
REMARK                         _______ _______ _______ _____ _____    ______ ____
ROOT
ATOM      1  N   UNL     1       8.747   8.604  19.200  0.00  0.00    +0.000 N 
ATOM      2  C   UNL     1       8.112   8.156  18.064  0.00  0.00    +0.000 C 
ATOM      3  O   UNL     1       7.907   8.842  17.059  0.00  0.00    +0.000 OA
ATOM      4  N   UNL     1       7.726   6.838  18.055  0.00  0.00    +0.000 N 
ATOM      5  C   UNL     1       7.833   5.808  19.068  0.00  0.00    +0.000 C 
ATOM      6  C   UNL     1       8.025   4.548  18.242  0.00  0.00    +0.000 C 
ATOM      7  C   UNL     1       7.161   4.778  17.003  0.00  0.00    +0.000 C 
ATOM      8  C   UNL     1       7.087   6.302  16.851  0.00  0.00    +0.000 C 
ATOM      9  H   UNL     1       9.061   7.907  19.854  0.00  0.00    +0.000 HD
ENDROOT
BRANCH   1  14
ATOM     10  C   UNL     1      10.266  11.959  18.617  0.00  0.00    +0.000 A 
ATOM     11  C   UNL     1      10.038  12.585  19.847  0.00  0.00    +0.000 A 
ATOM     12  C   UNL     1       9.403  11.891  20.868  0.00  0.00    +0.000 A 
ATOM     13  C   UNL     1       8.987  10.575  20.669  0.00  0.00    +0.000 A 
ATOM     14  C   UNL     1       9.175   9.934  19.441  0.00  0.00    +0.000 A 
ATOM     15  C   UNL     1       9.831  10.633  18.417  0.00  0.00    +0.000 A 
BRANCH  10  17
ATOM     16  C   UNL     1      10.427  13.999  17.037  0.00  0.00    +0.000 C 
ATOM     17  C   UNL     1      10.975  12.674  17.513  0.00  0.00    +0.000 C 
ATOM     18  O   UNL     1      11.992  12.190  17.021  0.00  0.00    +0.000 OA
ENDBRANCH  10  17
ENDBRANCH   1  14
BRANCH   8  19
ATOM     19  C   UNL     1       5.603   6.723  16.730  0.00  0.00    +0.000 C 
ATOM     20  O   UNL     1       5.156   7.333  15.760  0.00  0.00    +0.000 OA
ATOM     21  N   UNL     1       4.862   6.475  17.870  0.00  0.00    +0.000 N 
ATOM     22  H   UNL     1       5.242   5.872  18.586  0.00  0.00    +0.000 HD
BRANCH  21  23
ATOM     23  C   UNL     1       3.478   6.873  17.994  0.00  0.00    +0.000 C 
BRANCH  23  24
ATOM     24  C   UNL     1       2.653   5.772  18.614  0.00  0.00    +0.000 A 
ATOM     25  C   UNL     1       2.195   4.706  17.824  0.00  0.00    +0.000 A 
ATOM     26  C   UNL     1       1.443   3.674  18.390  0.00  0.00    +0.000 A 
ATOM     27  C   UNL     1       1.130   3.701  19.747  0.00  0.00    +0.000 A 
ATOM     28  C   UNL     1       1.564   4.764  20.539  0.00  0.00    +0.000 A 
ATOM     29  C   UNL     1       2.318   5.796  19.976  0.00  0.00    +0.000 A 
ENDBRANCH  23  24
ENDBRANCH  21  23
ENDBRANCH   8  19
TORSDOF 5
ENDMDL
MODEL 5
REMARK VINA RESULT:      -8.2      1.380      2.098
REMARK  Name = 
REMARK  6 active torsions:
REMARK  status: ('A' for Active; 'I' for Inactive)
REMARK    1  A    between atoms: C_1  and  C_2
REMARK    2  A    between atoms: C_2  and  C_4
REMARK    3  A    between atoms: C_8  and  N_9
REMARK    4  A    between atoms: C_16  and  C_17
REMARK    5  A    between atoms: N_19  and  C_20
REMARK    6  A    between atoms: C_20  and  C_21
REMARK                            x       y       z     vdW  Elec       q    Type
REMARK                         _______ _______ _______ _____ _____    ______ ____
ROOT
ATOM      1  N   UNL     1       8.705   8.590  19.176  0.00  0.00    +0.000 N 
ATOM      2  C   UNL     1       8.050   8.162  18.044  0.00  0.00    +0.000 C 
ATOM      3  O   UNL     1       7.805   8.873  17.065  0.00  0.00    +0.000 OA
ATOM      4  N   UNL     1       7.691   6.837  18.005  0.00  0.00    +0.000 N 
ATOM      5  C   UNL     1       7.846   5.780  18.985  0.00  0.00    +0.000 C 
ATOM      6  C   UNL     1       8.042   4.549  18.117  0.00  0.00    +0.000 C 
ATOM      7  C   UNL     1       7.142   4.797  16.907  0.00  0.00    +0.000 C 
ATOM      8  C   UNL     1       7.033   6.323  16.803  0.00  0.00    +0.000 C 
ATOM      9  H   UNL     1       9.049   7.882  19.802  0.00  0.00    +0.000 HD
ENDROOT
BRANCH   1  14
ATOM     10  C   UNL     1       9.976  12.050  18.616  0.00  0.00    +0.000 A 
ATOM     11  C   UNL     1       9.918  12.581  19.908  0.00  0.00    +0.000 A 
ATOM     12  C   UNL     1       9.480  11.789  20.961  0.00  0.00    +0.000 A 
ATOM     13  C   UNL     1       9.092  10.469  20.732  0.00  0.00    +0.000 A 
ATOM     14  C   UNL     1       9.111   9.922  19.446  0.00  0.00    +0.000 A 
ATOM     15  C   UNL     1       9.569  10.720  18.388  0.00  0.00    +0.000 A 
BRANCH  10  17
ATOM     16  C   UNL     1      11.839  12.570  16.899  0.00  0.00    +0.000 C 
ATOM     17  C   UNL     1      10.473  12.872  17.471  0.00  0.00    +0.000 C 
ATOM     18  O   UNL     1       9.767  13.763  17.003  0.00  0.00    +0.000 OA
ENDBRANCH  10  17
ENDBRANCH   1  14
BRANCH   8  19
ATOM     19  C   UNL     1       5.538   6.715  16.731  0.00  0.00    +0.000 C 
ATOM     20  O   UNL     1       5.039   7.281  15.761  0.00  0.00    +0.000 OA
ATOM     21  N   UNL     1       4.851   6.497  17.911  0.00  0.00    +0.000 N 
ATOM     22  H   UNL     1       5.272   5.927  18.630  0.00  0.00    +0.000 HD
BRANCH  21  23
ATOM     23  C   UNL     1       3.467   6.877  18.081  0.00  0.00    +0.000 C 
BRANCH  23  24
ATOM     24  C   UNL     1       2.656   5.730  18.632  0.00  0.00    +0.000 A 
ATOM     25  C   UNL     1       2.200   5.765  19.959  0.00  0.00    +0.000 A 
ATOM     26  C   UNL     1       1.437   4.716  20.476  0.00  0.00    +0.000 A 
ATOM     27  C   UNL     1       1.130   3.616  19.678  0.00  0.00    +0.000 A 
ATOM     28  C   UNL     1       1.593   3.561  18.363  0.00  0.00    +0.000 A 
ATOM     29  C   UNL     1       2.355   4.610  17.843  0.00  0.00    +0.000 A 
ENDBRANCH  23  24
ENDBRANCH  21  23
ENDBRANCH   8  19
TORSDOF 5
ENDMDL
MODEL 6
REMARK VINA RESULT:      -8.2      0.875      1.078
REMARK  Name = 
REMARK  6 active torsions:
REMARK  status: ('A' for Active; 'I' for Inactive)
REMARK    1  A    between atoms: C_1  and  C_2
REMARK    2  A    between atoms: C_2  and  C_4
REMARK    3  A    between atoms: C_8  and  N_9
REMARK    4  A    between atoms: C_16  and  C_17
REMARK    5  A    between atoms: N_19  and  C_20
REMARK    6  A    between atoms: C_20  and  C_21
REMARK                            x       y       z     vdW  Elec       q    Type
REMARK                         _______ _______ _______ _____ _____    ______ ____
ROOT
ATOM      1  N   UNL     1       8.806   8.613  18.945  0.00  0.00    +0.000 N 
ATOM      2  C   UNL     1       7.926   8.121  18.008  0.00  0.00    +0.000 C 
ATOM      3  O   UNL     1       7.431   8.787  17.094  0.00  0.00    +0.000 OA
ATOM      4  N   UNL     1       7.627   6.783  18.088  0.00  0.00    +0.000 N 
ATOM      5  C   UNL     1       8.049   5.769  19.033  0.00  0.00    +0.000 C 
ATOM      6  C   UNL     1       8.094   4.515  18.177  0.00  0.00    +0.000 C 
ATOM      7  C   UNL     1       6.929   4.686  17.202  0.00  0.00    +0.000 C 
ATOM      8  C   UNL     1       6.732   6.203  17.085  0.00  0.00    +0.000 C 
ATOM      9  H   UNL     1       9.316   7.941  19.493  0.00  0.00    +0.000 HD
ENDROOT
BRANCH   1  14
ATOM     10  C   UNL     1       9.442  11.945  20.493  0.00  0.00    +0.000 A 
ATOM     11  C   UNL     1       9.989  12.652  19.417  0.00  0.00    +0.000 A 
ATOM     12  C   UNL     1      10.126  12.033  18.182  0.00  0.00    +0.000 A 
ATOM     13  C   UNL     1       9.726  10.707  18.013  0.00  0.00    +0.000 A 
ATOM     14  C   UNL     1       9.204   9.968  19.078  0.00  0.00    +0.000 A 
ATOM     15  C   UNL     1       9.052  10.602  20.320  0.00  0.00    +0.000 A 
BRANCH  10  17
ATOM     16  C   UNL     1       8.418  11.895  22.867  0.00  0.00    +0.000 C 
ATOM     17  C   UNL     1       9.255  12.599  21.824  0.00  0.00    +0.000 C 
ATOM     18  O   UNL     1       9.790  13.680  22.057  0.00  0.00    +0.000 OA
ENDBRANCH  10  17
ENDBRANCH   1  14
BRANCH   8  19
ATOM     19  C   UNL     1       5.245   6.538  17.353  0.00  0.00    +0.000 C 
ATOM     20  O   UNL     1       4.688   7.530  16.888  0.00  0.00    +0.000 OA
ATOM     21  N   UNL     1       4.644   5.698  18.271  0.00  0.00    +0.000 N 
ATOM     22  H   UNL     1       5.105   4.837  18.530  0.00  0.00    +0.000 HD
BRANCH  21  23
ATOM     23  C   UNL     1       3.286   5.893  18.724  0.00  0.00    +0.000 C 
BRANCH  23  24
ATOM     24  C   UNL     1       2.825   4.730  19.567  0.00  0.00    +0.000 A 
ATOM     25  C   UNL     1       1.548   4.744  20.150  0.00  0.00    +0.000 A 
ATOM     26  C   UNL     1       1.105   3.667  20.920  0.00  0.00    +0.000 A 
ATOM     27  C   UNL     1       1.936   2.568  21.126  0.00  0.00    +0.000 A 
ATOM     28  C   UNL     1       3.214   2.549  20.567  0.00  0.00    +0.000 A 
ATOM     29  C   UNL     1       3.658   3.624  19.795  0.00  0.00    +0.000 A 
ENDBRANCH  23  24
ENDBRANCH  21  23
ENDBRANCH   8  19
TORSDOF 5
ENDMDL
MODEL 7
REMARK VINA RESULT:      -8.1      5.126      7.125
REMARK  Name = 
REMARK  6 active torsions:
REMARK  status: ('A' for Active; 'I' for Inactive)
REMARK    1  A    between atoms: C_1  and  C_2
REMARK    2  A    between atoms: C_2  and  C_4
REMARK    3  A    between atoms: C_8  and  N_9
REMARK    4  A    between atoms: C_16  and  C_17
REMARK    5  A    between atoms: N_19  and  C_20
REMARK    6  A    between atoms: C_20  and  C_21
REMARK                            x       y       z     vdW  Elec       q    Type
REMARK                         _______ _______ _______ _____ _____    ______ ____
ROOT
ATOM      1  N   UNL     1       2.049   6.554  18.444  0.00  0.00    +0.000 N 
ATOM      2  C   UNL     1       3.158   5.833  18.825  0.00  0.00    +0.000 C 
ATOM      3  O   UNL     1       3.978   6.203  19.671  0.00  0.00    +0.000 OA
ATOM      4  N   UNL     1       3.320   4.600  18.242  0.00  0.00    +0.000 N 
ATOM      5  C   UNL     1       2.534   3.912  17.238  0.00  0.00    +0.000 C 
ATOM      6  C   UNL     1       2.696   2.453  17.632  0.00  0.00    +0.000 C 
ATOM      7  C   UNL     1       4.131   2.363  18.150  0.00  0.00    +0.000 C 
ATOM      8  C   UNL     1       4.459   3.775  18.649  0.00  0.00    +0.000 C 
ATOM      9  H   UNL     1       1.339   6.063  17.928  0.00  0.00    +0.000 HD
ENDROOT
BRANCH   1  14
ATOM     10  C   UNL     1       1.137   9.375  20.705  0.00  0.00    +0.000 A 
ATOM     11  C   UNL     1       1.084  10.446  19.807  0.00  0.00    +0.000 A 
ATOM     12  C   UNL     1       1.328  10.228  18.458  0.00  0.00    +0.000 A 
ATOM     13  C   UNL     1       1.633   8.947  17.998  0.00  0.00    +0.000 A 
ATOM     14  C   UNL     1       1.723   7.865  18.877  0.00  0.00    +0.000 A 
ATOM     15  C   UNL     1       1.459   8.085  20.237  0.00  0.00    +0.000 A 
BRANCH  10  17
ATOM     16  C   UNL     1      -0.548   9.985  22.569  0.00  0.00    +0.000 C 
ATOM     17  C   UNL     1       0.847   9.577  22.157  0.00  0.00    +0.000 C 
ATOM     18  O   UNL     1       1.732   9.397  22.991  0.00  0.00    +0.000 OA
ENDBRANCH  10  17
ENDBRANCH   1  14
BRANCH   8  19
ATOM     19  C   UNL     1       5.787   4.240  18.003  0.00  0.00    +0.000 C 
ATOM     20  O   UNL     1       6.848   4.299  18.622  0.00  0.00    +0.000 OA
ATOM     21  N   UNL     1       5.641   4.712  16.713  0.00  0.00    +0.000 N 
ATOM     22  H   UNL     1       4.780   4.533  16.215  0.00  0.00    +0.000 HD
BRANCH  21  23
ATOM     23  C   UNL     1       6.743   5.273  15.965  0.00  0.00    +0.000 C 
BRANCH  23  24
ATOM     24  C   UNL     1       6.733   4.782  14.539  0.00  0.00    +0.000 A 
ATOM     25  C   UNL     1       7.668   5.279  13.617  0.00  0.00    +0.000 A 
ATOM     26  C   UNL     1       7.678   4.822  12.298  0.00  0.00    +0.000 A 
ATOM     27  C   UNL     1       6.748   3.873  11.881  0.00  0.00    +0.000 A 
ATOM     28  C   UNL     1       5.802   3.383  12.782  0.00  0.00    +0.000 A 
ATOM     29  C   UNL     1       5.792   3.838  14.103  0.00  0.00    +0.000 A 
ENDBRANCH  23  24
ENDBRANCH  21  23
ENDBRANCH   8  19
TORSDOF 5
ENDMDL
MODEL 8
REMARK VINA RESULT:      -7.9      1.345      1.698
REMARK  Name = 
REMARK  6 active torsions:
REMARK  status: ('A' for Active; 'I' for Inactive)
REMARK    1  A    between atoms: C_1  and  C_2
REMARK    2  A    between atoms: C_2  and  C_4
REMARK    3  A    between atoms: C_8  and  N_9
REMARK    4  A    between atoms: C_16  and  C_17
REMARK    5  A    between atoms: N_19  and  C_20
REMARK    6  A    between atoms: C_20  and  C_21
REMARK                            x       y       z     vdW  Elec       q    Type
REMARK                         _______ _______ _______ _____ _____    ______ ____
ROOT
ATOM      1  N   UNL     1       8.504   8.801  18.506  0.00  0.00    +0.000 N 
ATOM      2  C   UNL     1       7.609   8.128  17.707  0.00  0.00    +0.000 C 
ATOM      3  O   UNL     1       7.054   8.610  16.715  0.00  0.00    +0.000 OA
ATOM      4  N   UNL     1       7.362   6.816  18.030  0.00  0.00    +0.000 N 
ATOM      5  C   UNL     1       7.857   5.995  19.116  0.00  0.00    +0.000 C 
ATOM      6  C   UNL     1       7.915   4.613  18.487  0.00  0.00    +0.000 C 
ATOM      7  C   UNL     1       6.708   4.577  17.551  0.00  0.00    +0.000 C 
ATOM      8  C   UNL     1       6.451   6.044  17.183  0.00  0.00    +0.000 C 
ATOM      9  H   UNL     1       9.060   8.250  19.138  0.00  0.00    +0.000 HD
ENDROOT
BRANCH   1  14
ATOM     10  C   UNL     1      10.428  11.973  18.887  0.00  0.00    +0.000 A 
ATOM     11  C   UNL     1       9.628  12.871  18.174  0.00  0.00    +0.000 A 
ATOM     12  C   UNL     1       8.448  12.431  17.589  0.00  0.00    +0.000 A 
ATOM     13  C   UNL     1       8.063  11.096  17.705  0.00  0.00    +0.000 A 
ATOM     14  C   UNL     1       8.858  10.170  18.385  0.00  0.00    +0.000 A 
ATOM     15  C   UNL     1      10.040  10.621  18.989  0.00  0.00    +0.000 A 
BRANCH  10  17
ATOM     16  C   UNL     1      12.331  13.713  19.084  0.00  0.00    +0.000 C 
ATOM     17  C   UNL     1      11.686  12.428  19.552  0.00  0.00    +0.000 C 
ATOM     18  O   UNL     1      12.168  11.770  20.471  0.00  0.00    +0.000 OA
ENDBRANCH  10  17
ENDBRANCH   1  14
BRANCH   8  19
ATOM     19  C   UNL     1       4.964   6.376  17.454  0.00  0.00    +0.000 C 
ATOM     20  O   UNL     1       4.275   7.040  16.683  0.00  0.00    +0.000 OA
ATOM     21  N   UNL     1       4.526   5.977  18.703  0.00  0.00    +0.000 N 
ATOM     22  H   UNL     1       5.091   5.338  19.244  0.00  0.00    +0.000 HD
BRANCH  21  23
ATOM     23  C   UNL     1       3.196   6.270  19.186  0.00  0.00    +0.000 C 
BRANCH  23  24
ATOM     24  C   UNL     1       2.408   5.002  19.400  0.00  0.00    +0.000 A 
ATOM     25  C   UNL     1       1.768   4.379  18.317  0.00  0.00    +0.000 A 
ATOM     26  C   UNL     1       1.048   3.197  18.501  0.00  0.00    +0.000 A 
ATOM     27  C   UNL     1       0.947   2.631  19.769  0.00  0.00    +0.000 A 
ATOM     28  C   UNL     1       1.562   3.250  20.858  0.00  0.00    +0.000 A 
ATOM     29  C   UNL     1       2.285   4.431  20.676  0.00  0.00    +0.000 A 
ENDBRANCH  23  24
ENDBRANCH  21  23
ENDBRANCH   8  19
TORSDOF 5
ENDMDL
MODEL 9
REMARK VINA RESULT:      -7.9      5.618      9.033
REMARK  Name = 
REMARK  6 active torsions:
REMARK  status: ('A' for Active; 'I' for Inactive)
REMARK    1  A    between atoms: C_1  and  C_2
REMARK    2  A    between atoms: C_2  and  C_4
REMARK    3  A    between atoms: C_8  and  N_9
REMARK    4  A    between atoms: C_16  and  C_17
REMARK    5  A    between atoms: N_19  and  C_20
REMARK    6  A    between atoms: C_20  and  C_21
REMARK                            x       y       z     vdW  Elec       q    Type
REMARK                         _______ _______ _______ _____ _____    ______ ____
ROOT
ATOM      1  N   UNL     1       2.548   7.254  18.942  0.00  0.00    +0.000 N 
ATOM      2  C   UNL     1       1.999   8.420  18.461  0.00  0.00    +0.000 C 
ATOM      3  O   UNL     1       2.069   8.795  17.287  0.00  0.00    +0.000 OA
ATOM      4  N   UNL     1       1.291   9.182  19.357  0.00  0.00    +0.000 N 
ATOM      5  C   UNL     1       1.041   8.999  20.772  0.00  0.00    +0.000 C 
ATOM      6  C   UNL     1      -0.342   9.602  20.946  0.00  0.00    +0.000 C 
ATOM      7  C   UNL     1      -0.359  10.783  19.976  0.00  0.00    +0.000 C 
ATOM      8  C   UNL     1       0.649  10.409  18.882  0.00  0.00    +0.000 C 
ATOM      9  H   UNL     1       2.238   6.939  19.845  0.00  0.00    +0.000 HD
ENDROOT
BRANCH   1  14
ATOM     10  C   UNL     1       5.505   5.869  17.140  0.00  0.00    +0.000 A 
ATOM     11  C   UNL     1       5.033   4.609  16.758  0.00  0.00    +0.000 A 
ATOM     12  C   UNL     1       3.736   4.231  17.078  0.00  0.00    +0.000 A 
ATOM     13  C   UNL     1       2.906   5.101  17.785  0.00  0.00    +0.000 A 
ATOM     14  C   UNL     1       3.360   6.353  18.206  0.00  0.00    +0.000 A 
ATOM     15  C   UNL     1       4.666   6.739  17.866  0.00  0.00    +0.000 A 
BRANCH  10  17
ATOM     16  C   UNL     1       7.520   7.431  17.575  0.00  0.00    +0.000 C 
ATOM     17  C   UNL     1       6.886   6.312  16.781  0.00  0.00    +0.000 C 
ATOM     18  O   UNL     1       7.490   5.757  15.865  0.00  0.00    +0.000 OA
ENDBRANCH  10  17
ENDBRANCH   1  14
BRANCH   8  19
ATOM     19  C   UNL     1       1.652  11.574  18.706  0.00  0.00    +0.000 C 
ATOM     20  O   UNL     1       2.572  11.548  17.890  0.00  0.00    +0.000 OA
ATOM     21  N   UNL     1       1.504  12.579  19.642  0.00  0.00    +0.000 N 
ATOM     22  H   UNL     1       0.669  12.609  20.209  0.00  0.00    +0.000 HD
BRANCH  21  23
ATOM     23  C   UNL     1       2.397  13.714  19.705  0.00  0.00    +0.000 C 
BRANCH  23  24
ATOM     24  C   UNL     1       1.743  14.948  19.136  0.00  0.00    +0.000 A 
ATOM     25  C   UNL     1       0.346  15.080  19.161  0.00  0.00    +0.000 A 
ATOM     26  C   UNL     1      -0.270  16.224  18.649  0.00  0.00    +0.000 A 
ATOM     27  C   UNL     1       0.501  17.244  18.096  0.00  0.00    +0.000 A 
ATOM     28  C   UNL     1       1.890  17.118  18.049  0.00  0.00    +0.000 A 
ATOM     29  C   UNL     1       2.508  15.975  18.562  0.00  0.00    +0.000 A 
ENDBRANCH  23  24
ENDBRANCH  21  23
ENDBRANCH   8  19
TORSDOF 5
ENDMDL
