MODEL 1
REMARK VINA RESULT:      -7.7      0.000      0.000
REMARK  Name = 
REMARK  8 active torsions:
REMARK  status: ('A' for Active; 'I' for Inactive)
REMARK    1  A    between atoms: O_1  and  C_2
REMARK    2  A    between atoms: C_2  and  C_3
REMARK    3  A    between atoms: C_3  and  N_4
REMARK    4  A    between atoms: N_4  and  C_5
REMARK    5  A    between atoms: C_5  and  C_6
REMARK    6  A    between atoms: C_6  and  O_7
REMARK    7  A    between atoms: N_11  and  C_12
REMARK    8  A    between atoms: C_12  and  C_13
REMARK                            x       y       z     vdW  Elec       q    Type
REMARK                         _______ _______ _______ _____ _____    ______ ____
ROOT
ATOM      1  N   UNL     1       5.993   5.778  16.841  0.00  0.00    +0.000 N 
ATOM      2  C   UNL     1       4.765   5.335  17.290  0.00  0.00    +0.000 A 
ATOM      3  N   UNL     1       3.837   6.242  17.612  0.00  0.00    +0.000 NA
ATOM      4  C   UNL     1       2.649   5.841  18.101  0.00  0.00    +0.000 A 
ATOM      5  N   UNL     1       1.675   6.838  18.337  0.00  0.00    +0.000 N 
ATOM      6  C   UNL     1       2.363   4.473  18.282  0.00  0.00    +0.000 A 
ATOM      7  C   UNL     1       1.166   3.911  18.795  0.00  0.00    +0.000 A 
ATOM      8  C   UNL     1       1.046   2.532  18.993  0.00  0.00    +0.000 A 
ATOM      9  C   UNL     1       2.105   1.696  18.665  0.00  0.00    +0.000 A 
ATOM     10  C   UNL     1       3.269   2.243  18.134  0.00  0.00    +0.000 A 
ATOM     11  C   UNL     1       3.409   3.609  17.936  0.00  0.00    +0.000 A 
ATOM     12  N   UNL     1       4.569   4.027  17.441  0.00  0.00    +0.000 NA
ATOM     13  H   UNL     1       0.966   6.530  18.990  0.00  0.00    +0.000 HD
ENDROOT
BRANCH   1  14
ATOM     14  C   UNL     1       7.016   4.796  16.491  0.00  0.00    +0.000 C 
BRANCH  14  15
ATOM     15  C   UNL     1       7.065   4.533  14.979  0.00  0.00    +0.000 C 
BRANCH  15  16
ATOM     16  O   UNL     1       7.817   5.558  14.327  0.00  0.00    +0.000 OA
ATOM     17  H   UNL     1       8.558   5.782  14.918  0.00  0.00    +0.000 HD
ENDBRANCH  15  16
ENDBRANCH  14  15
ENDBRANCH   1  14
BRANCH   1  18
ATOM     18  C   UNL     1       6.369   7.168  17.094  0.00  0.00    +0.000 C 
BRANCH  18  19
ATOM     19  C   UNL     1       7.736   7.301  17.789  0.00  0.00    +0.000 C 
BRANCH  19  20
ATOM     20  O   UNL     1       8.128   8.664  17.933  0.00  0.00    +0.000 OA
ATOM     21  H   UNL     1       8.274   8.799  18.888  0.00  0.00    +0.000 HD
ENDBRANCH  19  20
ENDBRANCH  18  19
ENDBRANCH   1  18
BRANCH   5  22
ATOM     22  C   UNL     1       2.242   8.115  18.787  0.00  0.00    +0.000 C 
BRANCH  22  23
ATOM     23  C   UNL     1       1.392   8.774  19.857  0.00  0.00    +0.000 A 
ATOM     24  C   UNL     1       1.311   8.197  21.138  0.00  0.00    +0.000 A 
ATOM     25  C   UNL     1       0.643   8.853  22.176  0.00  0.00    +0.000 A 
ATOM     26  C   UNL     1       0.060  10.092  21.939  0.00  0.00    +0.000 A 
ATOM     27  F   UNL     1      -0.564  10.729  22.939  0.00  0.00    +0.000 F 
ATOM     28  C   UNL     1       0.133  10.686  20.686  0.00  0.00    +0.000 A 
ATOM     29  C   UNL     1       0.803  10.032  19.648  0.00  0.00    +0.000 A 
ENDBRANCH  22  23
ENDBRANCH   5  22
TORSDOF 8
ENDMDL
MODEL 2
REMARK VINA RESULT:      -7.6      4.275      7.842
REMARK  Name = 
REMARK  8 active torsions:
REMARK  status: ('A' for Active; 'I' for Inactive)
REMARK    1  A    between atoms: O_1  and  C_2
REMARK    2  A    between atoms: C_2  and  C_3
REMARK    3  A    between atoms: C_3  and  N_4
REMARK    4  A    between atoms: N_4  and  C_5
REMARK    5  A    between atoms: C_5  and  C_6
REMARK    6  A    between atoms: C_6  and  O_7
REMARK    7  A    between atoms: N_11  and  C_12
REMARK    8  A    between atoms: C_12  and  C_13
REMARK                            x       y       z     vdW  Elec       q    Type
REMARK                         _______ _______ _______ _____ _____    ______ ____
ROOT
ATOM      1  N   UNL     1       3.240   3.505  20.238  0.00  0.00    +0.000 N 
ATOM      2  C   UNL     1       3.128   4.693  19.546  0.00  0.00    +0.000 A 
ATOM      3  N   UNL     1       3.810   4.836  18.405  0.00  0.00    +0.000 NA
ATOM      4  C   UNL     1       3.759   6.002  17.734  0.00  0.00    +0.000 A 
ATOM      5  N   UNL     1       4.427   6.064  16.490  0.00  0.00    +0.000 N 
ATOM      6  C   UNL     1       2.995   7.084  18.217  0.00  0.00    +0.000 A 
ATOM      7  C   UNL     1       2.861   8.365  17.625  0.00  0.00    +0.000 A 
ATOM      8  C   UNL     1       2.126   9.375  18.254  0.00  0.00    +0.000 A 
ATOM      9  C   UNL     1       1.503   9.116  19.468  0.00  0.00    +0.000 A 
ATOM     10  C   UNL     1       1.610   7.851  20.036  0.00  0.00    +0.000 A 
ATOM     11  C   UNL     1       2.338   6.838  19.429  0.00  0.00    +0.000 A 
ATOM     12  N   UNL     1       2.391   5.673  20.065  0.00  0.00    +0.000 NA
ATOM     13  H   UNL     1       4.628   7.017  16.213  0.00  0.00    +0.000 HD
ENDROOT
BRANCH   1  14
ATOM     14  C   UNL     1       2.503   3.339  21.488  0.00  0.00    +0.000 C 
BRANCH  14  15
ATOM     15  C   UNL     1       1.209   2.538  21.288  0.00  0.00    +0.000 C 
BRANCH  15  16
ATOM     16  O   UNL     1       0.372   3.189  20.332  0.00  0.00    +0.000 OA
ATOM     17  H   UNL     1      -0.108   3.889  20.809  0.00  0.00    +0.000 HD
ENDBRANCH  15  16
ENDBRANCH  14  15
ENDBRANCH   1  14
BRANCH   1  18
ATOM     18  C   UNL     1       4.364   2.620  19.927  0.00  0.00    +0.000 C 
BRANCH  18  19
ATOM     19  C   UNL     1       3.949   1.400  19.086  0.00  0.00    +0.000 C 
BRANCH  19  20
ATOM     20  O   UNL     1       2.851   1.697  18.226  0.00  0.00    +0.000 OA
ATOM     21  H   UNL     1       2.049   1.458  18.728  0.00  0.00    +0.000 HD
ENDBRANCH  19  20
ENDBRANCH  18  19
ENDBRANCH   1  18
BRANCH   5  22
ATOM     22  C   UNL     1       5.656   5.264  16.443  0.00  0.00    +0.000 C 
BRANCH  22  23
ATOM     23  C   UNL     1       6.052   4.903  15.025  0.00  0.00    +0.000 A 
ATOM     24  C   UNL     1       7.273   5.369  14.501  0.00  0.00    +0.000 A 
ATOM     25  C   UNL     1       7.720   4.944  13.247  0.00  0.00    +0.000 A 
ATOM     26  C   UNL     1       6.953   4.046  12.515  0.00  0.00    +0.000 A 
ATOM     27  F   UNL     1       7.391   3.625  11.321  0.00  0.00    +0.000 F 
ATOM     28  C   UNL     1       5.749   3.566  13.013  0.00  0.00    +0.000 A 
ATOM     29  C   UNL     1       5.302   3.988  14.267  0.00  0.00    +0.000 A 
ENDBRANCH  22  23
ENDBRANCH   5  22
TORSDOF 8
ENDMDL
MODEL 3
REMARK VINA RESULT:      -7.6      4.130      7.689
REMARK  Name = 
REMARK  8 active torsions:
REMARK  status: ('A' for Active; 'I' for Inactive)
REMARK    1  A    between atoms: O_1  and  C_2
REMARK    2  A    between atoms: C_2  and  C_3
REMARK    3  A    between atoms: C_3  and  N_4
REMARK    4  A    between atoms: N_4  and  C_5
REMARK    5  A    between atoms: C_5  and  C_6
REMARK    6  A    between atoms: C_6  and  O_7
REMARK    7  A    between atoms: N_11  and  C_12
REMARK    8  A    between atoms: C_12  and  C_13
REMARK                            x       y       z     vdW  Elec       q    Type
REMARK                         _______ _______ _______ _____ _____    ______ ____
ROOT
ATOM      1  N   UNL     1       3.230   3.757  20.299  0.00  0.00    +0.000 N 
ATOM      2  C   UNL     1       3.115   4.935  19.590  0.00  0.00    +0.000 A 
ATOM      3  N   UNL     1       3.871   5.102  18.500  0.00  0.00    +0.000 NA
ATOM      4  C   UNL     1       3.817   6.260  17.816  0.00  0.00    +0.000 A 
ATOM      5  N   UNL     1       4.569   6.345  16.623  0.00  0.00    +0.000 N 
ATOM      6  C   UNL     1       2.972   7.309  18.232  0.00  0.00    +0.000 A 
ATOM      7  C   UNL     1       2.824   8.579  17.620  0.00  0.00    +0.000 A 
ATOM      8  C   UNL     1       2.001   9.558  18.185  0.00  0.00    +0.000 A 
ATOM      9  C   UNL     1       1.303   9.279  19.353  0.00  0.00    +0.000 A 
ATOM     10  C   UNL     1       1.426   8.023  19.939  0.00  0.00    +0.000 A 
ATOM     11  C   UNL     1       2.241   7.041  19.396  0.00  0.00    +0.000 A 
ATOM     12  N   UNL     1       2.300   5.884  20.046  0.00  0.00    +0.000 NA
ATOM     13  H   UNL     1       4.747   7.304  16.353  0.00  0.00    +0.000 HD
ENDROOT
BRANCH   1  14
ATOM     14  C   UNL     1       2.413   3.566  21.494  0.00  0.00    +0.000 C 
BRANCH  14  15
ATOM     15  C   UNL     1       1.199   2.666  21.220  0.00  0.00    +0.000 C 
BRANCH  15  16
ATOM     16  O   UNL     1       0.350   3.273  20.245  0.00  0.00    +0.000 OA
ATOM     17  H   UNL     1      -0.270   2.585  19.945  0.00  0.00    +0.000 HD
ENDBRANCH  15  16
ENDBRANCH  14  15
ENDBRANCH   1  14
BRANCH   1  18
ATOM     18  C   UNL     1       4.412   2.923  20.079  0.00  0.00    +0.000 C 
BRANCH  18  19
ATOM     19  C   UNL     1       4.131   1.719  19.162  0.00  0.00    +0.000 C 
BRANCH  19  20
ATOM     20  O   UNL     1       4.110   2.094  17.786  0.00  0.00    +0.000 OA
ATOM     21  H   UNL     1       4.414   3.020  17.759  0.00  0.00    +0.000 HD
ENDBRANCH  19  20
ENDBRANCH  18  19
ENDBRANCH   1  18
BRANCH   5  22
ATOM     22  C   UNL     1       5.833   5.601  16.673  0.00  0.00    +0.000 C 
BRANCH  22  23
ATOM     23  C   UNL     1       6.184   4.975  15.337  0.00  0.00    +0.000 A 
ATOM     24  C   UNL     1       5.255   4.135  14.694  0.00  0.00    +0.000 A 
ATOM     25  C   UNL     1       5.501   3.653  13.405  0.00  0.00    +0.000 A 
ATOM     26  C   UNL     1       6.672   4.015  12.751  0.00  0.00    +0.000 A 
ATOM     27  F   UNL     1       6.899   3.568  11.508  0.00  0.00    +0.000 F 
ATOM     28  C   UNL     1       7.600   4.849  13.361  0.00  0.00    +0.000 A 
ATOM     29  C   UNL     1       7.355   5.333  14.648  0.00  0.00    +0.000 A 
ENDBRANCH  22  23
ENDBRANCH   5  22
TORSDOF 8
ENDMDL
MODEL 4
REMARK VINA RESULT:      -7.6      1.036      1.485
REMARK  Name = 
REMARK  8 active torsions:
REMARK  status: ('A' for Active; 'I' for Inactive)
REMARK    1  A    between atoms: O_1  and  C_2
REMARK    2  A    between atoms: C_2  and  C_3
REMARK    3  A    between atoms: C_3  and  N_4
REMARK    4  A    between atoms: N_4  and  C_5
REMARK    5  A    between atoms: C_5  and  C_6
REMARK    6  A    between atoms: C_6  and  O_7
REMARK    7  A    between atoms: N_11  and  C_12
REMARK    8  A    between atoms: C_12  and  C_13
REMARK                            x       y       z     vdW  Elec       q    Type
REMARK                         _______ _______ _______ _____ _____    ______ ____
ROOT
ATOM      1  N   UNL     1       6.090   5.785  16.701  0.00  0.00    +0.000 N 
ATOM      2  C   UNL     1       4.869   5.326  17.150  0.00  0.00    +0.000 A 
ATOM      3  N   UNL     1       3.945   6.219  17.518  0.00  0.00    +0.000 NA
ATOM      4  C   UNL     1       2.763   5.801  18.008  0.00  0.00    +0.000 A 
ATOM      5  N   UNL     1       1.793   6.788  18.294  0.00  0.00    +0.000 N 
ATOM      6  C   UNL     1       2.479   4.426  18.141  0.00  0.00    +0.000 A 
ATOM      7  C   UNL     1       1.289   3.846  18.648  0.00  0.00    +0.000 A 
ATOM      8  C   UNL     1       1.170   2.460  18.795  0.00  0.00    +0.000 A 
ATOM      9  C   UNL     1       2.225   1.637  18.422  0.00  0.00    +0.000 A 
ATOM     10  C   UNL     1       3.382   2.204  17.897  0.00  0.00    +0.000 A 
ATOM     11  C   UNL     1       3.520   3.576  17.748  0.00  0.00    +0.000 A 
ATOM     12  N   UNL     1       4.674   4.012  17.255  0.00  0.00    +0.000 NA
ATOM     13  H   UNL     1       1.092   6.455  18.944  0.00  0.00    +0.000 HD
ENDROOT
BRANCH   1  14
ATOM     14  C   UNL     1       7.109   4.817  16.301  0.00  0.00    +0.000 C 
BRANCH  14  15
ATOM     15  C   UNL     1       7.107   4.578  14.784  0.00  0.00    +0.000 C 
BRANCH  15  16
ATOM     16  O   UNL     1       6.274   3.463  14.465  0.00  0.00    +0.000 OA
ATOM     17  H   UNL     1       6.073   3.013  15.304  0.00  0.00    +0.000 HD
ENDBRANCH  15  16
ENDBRANCH  14  15
ENDBRANCH   1  14
BRANCH   1  18
ATOM     18  C   UNL     1       6.470   7.165  17.003  0.00  0.00    +0.000 C 
BRANCH  18  19
ATOM     19  C   UNL     1       7.748   7.260  17.856  0.00  0.00    +0.000 C 
BRANCH  19  20
ATOM     20  O   UNL     1       8.167   8.612  18.033  0.00  0.00    +0.000 OA
ATOM     21  H   UNL     1       7.752   8.911  18.863  0.00  0.00    +0.000 HD
ENDBRANCH  19  20
ENDBRANCH  18  19
ENDBRANCH   1  18
BRANCH   5  22
ATOM     22  C   UNL     1       2.366   8.047  18.784  0.00  0.00    +0.000 C 
BRANCH  22  23
ATOM     23  C   UNL     1       1.298   9.059  19.151  0.00  0.00    +0.000 A 
ATOM     24  C   UNL     1       0.664   9.804  18.139  0.00  0.00    +0.000 A 
ATOM     25  C   UNL     1      -0.411  10.645  18.438  0.00  0.00    +0.000 A 
ATOM     26  C   UNL     1      -0.863  10.738  19.749  0.00  0.00    +0.000 A 
ATOM     27  F   UNL     1      -1.905  11.530  20.033  0.00  0.00    +0.000 F 
ATOM     28  C   UNL     1      -0.259  10.007  20.764  0.00  0.00    +0.000 A 
ATOM     29  C   UNL     1       0.814   9.165  20.466  0.00  0.00    +0.000 A 
ENDBRANCH  22  23
ENDBRANCH   5  22
TORSDOF 8
ENDMDL
MODEL 5
REMARK VINA RESULT:      -7.6      3.462      6.658
REMARK  Name = 
REMARK  8 active torsions:
REMARK  status: ('A' for Active; 'I' for Inactive)
REMARK    1  A    between atoms: O_1  and  C_2
REMARK    2  A    between atoms: C_2  and  C_3
REMARK    3  A    between atoms: C_3  and  N_4
REMARK    4  A    between atoms: N_4  and  C_5
REMARK    5  A    between atoms: C_5  and  C_6
REMARK    6  A    between atoms: C_6  and  O_7
REMARK    7  A    between atoms: N_11  and  C_12
REMARK    8  A    between atoms: C_12  and  C_13
REMARK                            x       y       z     vdW  Elec       q    Type
REMARK                         _______ _______ _______ _____ _____    ______ ____
ROOT
ATOM      1  N   UNL     1       3.141   3.742  20.385  0.00  0.00    +0.000 N 
ATOM      2  C   UNL     1       2.948   4.929  19.708  0.00  0.00    +0.000 A 
ATOM      3  N   UNL     1       3.584   5.114  18.547  0.00  0.00    +0.000 NA
ATOM      4  C   UNL     1       3.454   6.281  17.889  0.00  0.00    +0.000 A 
ATOM      5  N   UNL     1       4.075   6.386  16.624  0.00  0.00    +0.000 N 
ATOM      6  C   UNL     1       2.654   7.321  18.406  0.00  0.00    +0.000 A 
ATOM      7  C   UNL     1       2.438   8.598  17.831  0.00  0.00    +0.000 A 
ATOM      8  C   UNL     1       1.676   9.566  18.493  0.00  0.00    +0.000 A 
ATOM      9  C   UNL     1       1.107   9.267  19.725  0.00  0.00    +0.000 A 
ATOM     10  C   UNL     1       1.295   8.004  20.277  0.00  0.00    +0.000 A 
ATOM     11  C   UNL     1       2.051   7.033  19.637  0.00  0.00    +0.000 A 
ATOM     12  N   UNL     1       2.182   5.868  20.261  0.00  0.00    +0.000 NA
ATOM     13  H   UNL     1       4.221   7.349  16.350  0.00  0.00    +0.000 HD
ENDROOT
BRANCH   1  14
ATOM     14  C   UNL     1       2.456   3.531  21.657  0.00  0.00    +0.000 C 
BRANCH  14  15
ATOM     15  C   UNL     1       1.223   2.629  21.501  0.00  0.00    +0.000 C 
BRANCH  15  16
ATOM     16  O   UNL     1       0.403   3.101  20.431  0.00  0.00    +0.000 OA
ATOM     17  H   UNL     1      -0.069   3.885  20.763  0.00  0.00    +0.000 HD
ENDBRANCH  15  16
ENDBRANCH  14  15
ENDBRANCH   1  14
BRANCH   1  18
ATOM     18  C   UNL     1       4.296   2.917  20.030  0.00  0.00    +0.000 C 
BRANCH  18  19
ATOM     19  C   UNL     1       3.940   1.779  19.056  0.00  0.00    +0.000 C 
BRANCH  19  20
ATOM     20  O   UNL     1       4.116   2.169  17.696  0.00  0.00    +0.000 OA
ATOM     21  H   UNL     1       4.935   2.698  17.676  0.00  0.00    +0.000 HD
ENDBRANCH  19  20
ENDBRANCH  18  19
ENDBRANCH   1  18
BRANCH   5  22
ATOM     22  C   UNL     1       5.340   5.647  16.530  0.00  0.00    +0.000 C 
BRANCH  22  23
ATOM     23  C   UNL     1       6.484   6.379  17.203  0.00  0.00    +0.000 A 
ATOM     24  C   UNL     1       6.737   7.726  16.881  0.00  0.00    +0.000 A 
ATOM     25  C   UNL     1       7.699   8.459  17.581  0.00  0.00    +0.000 A 
ATOM     26  C   UNL     1       8.406   7.852  18.612  0.00  0.00    +0.000 A 
ATOM     27  F   UNL     1       9.315   8.561  19.295  0.00  0.00    +0.000 F 
ATOM     28  C   UNL     1       8.169   6.527  18.954  0.00  0.00    +0.000 A 
ATOM     29  C   UNL     1       7.206   5.794  18.256  0.00  0.00    +0.000 A 
ENDBRANCH  22  23
ENDBRANCH   5  22
TORSDOF 8
ENDMDL
MODEL 6
REMARK VINA RESULT:      -7.4      1.385      1.683
REMARK  Name = 
REMARK  8 active torsions:
REMARK  status: ('A' for Active; 'I' for Inactive)
REMARK    1  A    between atoms: O_1  and  C_2
REMARK    2  A    between atoms: C_2  and  C_3
REMARK    3  A    between atoms: C_3  and  N_4
REMARK    4  A    between atoms: N_4  and  C_5
REMARK    5  A    between atoms: C_5  and  C_6
REMARK    6  A    between atoms: C_6  and  O_7
REMARK    7  A    between atoms: N_11  and  C_12
REMARK    8  A    between atoms: C_12  and  C_13
REMARK                            x       y       z     vdW  Elec       q    Type
REMARK                         _______ _______ _______ _____ _____    ______ ____
ROOT
ATOM      1  N   UNL     1       5.376   5.443  17.096  0.00  0.00    +0.000 N 
ATOM      2  C   UNL     1       4.459   5.093  18.066  0.00  0.00    +0.000 A 
ATOM      3  N   UNL     1       3.516   5.978  18.403  0.00  0.00    +0.000 NA
ATOM      4  C   UNL     1       2.639   5.685  19.381  0.00  0.00    +0.000 A 
ATOM      5  N   UNL     1       1.609   6.620  19.631  0.00  0.00    +0.000 N 
ATOM      6  C   UNL     1       2.698   4.452  20.063  0.00  0.00    +0.000 A 
ATOM      7  C   UNL     1       1.853   4.017  21.114  0.00  0.00    +0.000 A 
ATOM      8  C   UNL     1       2.073   2.793  21.754  0.00  0.00    +0.000 A 
ATOM      9  C   UNL     1       3.123   1.982  21.344  0.00  0.00    +0.000 A 
ATOM     10  C   UNL     1       3.935   2.395  20.293  0.00  0.00    +0.000 A 
ATOM     11  C   UNL     1       3.735   3.607  19.649  0.00  0.00    +0.000 A 
ATOM     12  N   UNL     1       4.581   3.913  18.670  0.00  0.00    +0.000 NA
ATOM     13  H   UNL     1       1.210   6.508  20.555  0.00  0.00    +0.000 HD
ENDROOT
BRANCH   1  14
ATOM     14  C   UNL     1       6.415   4.486  16.723  0.00  0.00    +0.000 C 
BRANCH  14  15
ATOM     15  C   UNL     1       6.600   4.406  15.200  0.00  0.00    +0.000 C 
BRANCH  15  16
ATOM     16  O   UNL     1       7.678   5.249  14.792  0.00  0.00    +0.000 OA
ATOM     17  H   UNL     1       8.501   4.792  15.039  0.00  0.00    +0.000 HD
ENDBRANCH  15  16
ENDBRANCH  14  15
ENDBRANCH   1  14
BRANCH   1  18
ATOM     18  C   UNL     1       5.530   6.858  16.759  0.00  0.00    +0.000 C 
BRANCH  18  19
ATOM     19  C   UNL     1       6.733   7.512  17.463  0.00  0.00    +0.000 C 
BRANCH  19  20
ATOM     20  O   UNL     1       7.916   7.438  16.670  0.00  0.00    +0.000 OA
ATOM     21  H   UNL     1       8.511   8.128  17.018  0.00  0.00    +0.000 HD
ENDBRANCH  19  20
ENDBRANCH  18  19
ENDBRANCH   1  18
BRANCH   5  22
ATOM     22  C   UNL     1       2.023   8.014  19.435  0.00  0.00    +0.000 C 
BRANCH  22  23
ATOM     23  C   UNL     1       1.338   8.958  20.404  0.00  0.00    +0.000 A 
ATOM     24  C   UNL     1       0.772  10.156  19.930  0.00  0.00    +0.000 A 
ATOM     25  C   UNL     1       0.024  10.977  20.777  0.00  0.00    +0.000 A 
ATOM     26  C   UNL     1      -0.169  10.600  22.101  0.00  0.00    +0.000 A 
ATOM     27  F   UNL     1      -0.902  11.378  22.908  0.00  0.00    +0.000 F 
ATOM     28  C   UNL     1       0.373   9.419  22.590  0.00  0.00    +0.000 A 
ATOM     29  C   UNL     1       1.119   8.596  21.744  0.00  0.00    +0.000 A 
ENDBRANCH  22  23
ENDBRANCH   5  22
TORSDOF 8
ENDMDL
MODEL 7
REMARK VINA RESULT:      -7.4      1.642      1.973
REMARK  Name = 
REMARK  8 active torsions:
REMARK  status: ('A' for Active; 'I' for Inactive)
REMARK    1  A    between atoms: O_1  and  C_2
REMARK    2  A    between atoms: C_2  and  C_3
REMARK    3  A    between atoms: C_3  and  N_4
REMARK    4  A    between atoms: N_4  and  C_5
REMARK    5  A    between atoms: C_5  and  C_6
REMARK    6  A    between atoms: C_6  and  O_7
REMARK    7  A    between atoms: N_11  and  C_12
REMARK    8  A    between atoms: C_12  and  C_13
REMARK                            x       y       z     vdW  Elec       q    Type
REMARK                         _______ _______ _______ _____ _____    ______ ____
ROOT
ATOM      1  N   UNL     1       5.236   5.343  16.837  0.00  0.00    +0.000 N 
ATOM      2  C   UNL     1       4.340   5.101  17.858  0.00  0.00    +0.000 A 
ATOM      3  N   UNL     1       3.480   6.067  18.196  0.00  0.00    +0.000 NA
ATOM      4  C   UNL     1       2.628   5.878  19.221  0.00  0.00    +0.000 A 
ATOM      5  N   UNL     1       1.681   6.897  19.474  0.00  0.00    +0.000 N 
ATOM      6  C   UNL     1       2.627   4.672  19.951  0.00  0.00    +0.000 A 
ATOM      7  C   UNL     1       1.799   4.343  21.054  0.00  0.00    +0.000 A 
ATOM      8  C   UNL     1       1.957   3.132  21.736  0.00  0.00    +0.000 A 
ATOM      9  C   UNL     1       2.926   2.229  21.317  0.00  0.00    +0.000 A 
ATOM     10  C   UNL     1       3.719   2.539  20.216  0.00  0.00    +0.000 A 
ATOM     11  C   UNL     1       3.580   3.737  19.531  0.00  0.00    +0.000 A 
ATOM     12  N   UNL     1       4.401   3.940  18.506  0.00  0.00    +0.000 NA
ATOM     13  H   UNL     1       1.316   6.851  20.417  0.00  0.00    +0.000 HD
ENDROOT
BRANCH   1  14
ATOM     14  C   UNL     1       6.184   4.298  16.462  0.00  0.00    +0.000 C 
BRANCH  14  15
ATOM     15  C   UNL     1       6.518   4.338  14.964  0.00  0.00    +0.000 C 
BRANCH  15  16
ATOM     16  O   UNL     1       7.686   5.130  14.743  0.00  0.00    +0.000 OA
ATOM     17  H   UNL     1       7.394   5.943  14.295  0.00  0.00    +0.000 HD
ENDBRANCH  15  16
ENDBRANCH  14  15
ENDBRANCH   1  14
BRANCH   1  18
ATOM     18  C   UNL     1       5.478   6.729  16.435  0.00  0.00    +0.000 C 
BRANCH  18  19
ATOM     19  C   UNL     1       6.586   7.406  17.262  0.00  0.00    +0.000 C 
BRANCH  19  20
ATOM     20  O   UNL     1       7.862   7.289  16.637  0.00  0.00    +0.000 OA
ATOM     21  H   UNL     1       8.514   7.548  17.314  0.00  0.00    +0.000 HD
ENDBRANCH  19  20
ENDBRANCH  18  19
ENDBRANCH   1  18
BRANCH   5  22
ATOM     22  C   UNL     1       2.187   8.247  19.202  0.00  0.00    +0.000 C 
BRANCH  22  23
ATOM     23  C   UNL     1       1.111   9.305  19.356  0.00  0.00    +0.000 A 
ATOM     24  C   UNL     1       0.412   9.760  18.222  0.00  0.00    +0.000 A 
ATOM     25  C   UNL     1      -0.670  10.635  18.354  0.00  0.00    +0.000 A 
ATOM     26  C   UNL     1      -1.062  11.052  19.620  0.00  0.00    +0.000 A 
ATOM     27  F   UNL     1      -2.111  11.876  19.747  0.00  0.00    +0.000 F 
ATOM     28  C   UNL     1      -0.394  10.611  20.754  0.00  0.00    +0.000 A 
ATOM     29  C   UNL     1       0.686   9.735  20.624  0.00  0.00    +0.000 A 
ENDBRANCH  22  23
ENDBRANCH   5  22
TORSDOF 8
ENDMDL
MODEL 8
REMARK VINA RESULT:      -7.1      1.071      1.263
REMARK  Name = 
REMARK  8 active torsions:
REMARK  status: ('A' for Active; 'I' for Inactive)
REMARK    1  A    between atoms: O_1  and  C_2
REMARK    2  A    between atoms: C_2  and  C_3
REMARK    3  A    between atoms: C_3  and  N_4
REMARK    4  A    between atoms: N_4  and  C_5
REMARK    5  A    between atoms: C_5  and  C_6
REMARK    6  A    between atoms: C_6  and  O_7
REMARK    7  A    between atoms: N_11  and  C_12
REMARK    8  A    between atoms: C_12  and  C_13
REMARK                            x       y       z     vdW  Elec       q    Type
REMARK                         _______ _______ _______ _____ _____    ______ ____
ROOT
ATOM      1  N   UNL     1       6.181   6.040  16.823  0.00  0.00    +0.000 N 
ATOM      2  C   UNL     1       4.955   5.535  17.205  0.00  0.00    +0.000 A 
ATOM      3  N   UNL     1       3.996   6.393  17.568  0.00  0.00    +0.000 NA
ATOM      4  C   UNL     1       2.806   5.928  17.993  0.00  0.00    +0.000 A 
ATOM      5  N   UNL     1       1.801   6.881  18.276  0.00  0.00    +0.000 N 
ATOM      6  C   UNL     1       2.551   4.544  18.065  0.00  0.00    +0.000 A 
ATOM      7  C   UNL     1       1.357   3.917  18.502  0.00  0.00    +0.000 A 
ATOM      8  C   UNL     1       1.268   2.525  18.594  0.00  0.00    +0.000 A 
ATOM      9  C   UNL     1       2.357   1.741  18.235  0.00  0.00    +0.000 A 
ATOM     10  C   UNL     1       3.519   2.354  17.778  0.00  0.00    +0.000 A 
ATOM     11  C   UNL     1       3.628   3.733  17.684  0.00  0.00    +0.000 A 
ATOM     12  N   UNL     1       4.789   4.215  17.254  0.00  0.00    +0.000 NA
ATOM     13  H   UNL     1       1.084   6.508  18.884  0.00  0.00    +0.000 HD
ENDROOT
BRANCH   1  14
ATOM     14  C   UNL     1       7.239   5.112  16.429  0.00  0.00    +0.000 C 
BRANCH  14  15
ATOM     15  C   UNL     1       7.167   4.762  14.936  0.00  0.00    +0.000 C 
BRANCH  15  16
ATOM     16  O   UNL     1       6.301   3.644  14.736  0.00  0.00    +0.000 OA
ATOM     17  H   UNL     1       6.670   2.906  15.253  0.00  0.00    +0.000 HD
ENDBRANCH  15  16
ENDBRANCH  14  15
ENDBRANCH   1  14
BRANCH   1  18
ATOM     18  C   UNL     1       6.514   7.416  17.189  0.00  0.00    +0.000 C 
BRANCH  18  19
ATOM     19  C   UNL     1       8.008   7.604  17.511  0.00  0.00    +0.000 C 
BRANCH  19  20
ATOM     20  O   UNL     1       8.311   7.231  18.854  0.00  0.00    +0.000 OA
ATOM     21  H   UNL     1       9.114   6.680  18.801  0.00  0.00    +0.000 HD
ENDBRANCH  19  20
ENDBRANCH  18  19
ENDBRANCH   1  18
BRANCH   5  22
ATOM     22  C   UNL     1       2.323   8.134  18.834  0.00  0.00    +0.000 C 
BRANCH  22  23
ATOM     23  C   UNL     1       1.215   9.100  19.209  0.00  0.00    +0.000 A 
ATOM     24  C   UNL     1       1.101   9.550  20.538  0.00  0.00    +0.000 A 
ATOM     25  C   UNL     1       0.173  10.537  20.880  0.00  0.00    +0.000 A 
ATOM     26  C   UNL     1      -0.639  11.084  19.894  0.00  0.00    +0.000 A 
ATOM     27  F   UNL     1      -1.516  12.044  20.220  0.00  0.00    +0.000 F 
ATOM     28  C   UNL     1      -0.540  10.663  18.575  0.00  0.00    +0.000 A 
ATOM     29  C   UNL     1       0.388   9.678  18.231  0.00  0.00    +0.000 A 
ENDBRANCH  22  23
ENDBRANCH   5  22
TORSDOF 8
ENDMDL
MODEL 9
REMARK VINA RESULT:      -7.1      2.057      2.198
REMARK  Name = 
REMARK  8 active torsions:
REMARK  status: ('A' for Active; 'I' for Inactive)
REMARK    1  A    between atoms: O_1  and  C_2
REMARK    2  A    between atoms: C_2  and  C_3
REMARK    3  A    between atoms: C_3  and  N_4
REMARK    4  A    between atoms: N_4  and  C_5
REMARK    5  A    between atoms: C_5  and  C_6
REMARK    6  A    between atoms: C_6  and  O_7
REMARK    7  A    between atoms: N_11  and  C_12
REMARK    8  A    between atoms: C_12  and  C_13
REMARK                            x       y       z     vdW  Elec       q    Type
REMARK                         _______ _______ _______ _____ _____    ______ ____
ROOT
ATOM      1  N   UNL     1       6.038   5.921  17.369  0.00  0.00    +0.000 N 
ATOM      2  C   UNL     1       4.835   5.676  17.999  0.00  0.00    +0.000 A 
ATOM      3  N   UNL     1       3.899   6.630  17.984  0.00  0.00    +0.000 NA
ATOM      4  C   UNL     1       2.735   6.438  18.633  0.00  0.00    +0.000 A 
ATOM      5  N   UNL     1       1.749   7.443  18.506  0.00  0.00    +0.000 N 
ATOM      6  C   UNL     1       2.484   5.241  19.334  0.00  0.00    +0.000 A 
ATOM      7  C   UNL     1       1.316   4.911  20.067  0.00  0.00    +0.000 A 
ATOM      8  C   UNL     1       1.230   3.712  20.781  0.00  0.00    +0.000 A 
ATOM      9  C   UNL     1       2.296   2.822  20.759  0.00  0.00    +0.000 A 
ATOM     10  C   UNL     1       3.431   3.132  20.016  0.00  0.00    +0.000 A 
ATOM     11  C   UNL     1       3.536   4.318  19.306  0.00  0.00    +0.000 A 
ATOM     12  N   UNL     1       4.671   4.523  18.646  0.00  0.00    +0.000 NA
ATOM     13  H   UNL     1       1.067   7.402  19.252  0.00  0.00    +0.000 HD
ENDROOT
BRANCH   1  14
ATOM     14  C   UNL     1       7.071   4.888  17.383  0.00  0.00    +0.000 C 
BRANCH  14  15
ATOM     15  C   UNL     1       7.154   4.143  16.043  0.00  0.00    +0.000 C 
BRANCH  15  16
ATOM     16  O   UNL     1       6.022   3.287  15.887  0.00  0.00    +0.000 OA
ATOM     17  H   UNL     1       5.670   3.446  14.994  0.00  0.00    +0.000 HD
ENDBRANCH  15  16
ENDBRANCH  14  15
ENDBRANCH   1  14
BRANCH   1  18
ATOM     18  C   UNL     1       6.393   7.306  17.058  0.00  0.00    +0.000 C 
BRANCH  18  19
ATOM     19  C   UNL     1       7.730   7.736  17.686  0.00  0.00    +0.000 C 
BRANCH  19  20
ATOM     20  O   UNL     1       7.849   9.155  17.762  0.00  0.00    +0.000 OA
ATOM     21  H   UNL     1       8.363   9.336  18.570  0.00  0.00    +0.000 HD
ENDBRANCH  19  20
ENDBRANCH  18  19
ENDBRANCH   1  18
BRANCH   5  22
ATOM     22  C   UNL     1       2.302   8.799  18.412  0.00  0.00    +0.000 C 
BRANCH  22  23
ATOM     23  C   UNL     1       1.219   9.859  18.369  0.00  0.00    +0.000 A 
ATOM     24  C   UNL     1      -0.084   9.510  17.968  0.00  0.00    +0.000 A 
ATOM     25  C   UNL     1      -1.127  10.437  18.046  0.00  0.00    +0.000 A 
ATOM     26  C   UNL     1      -0.874  11.713  18.533  0.00  0.00    +0.000 A 
ATOM     27  F   UNL     1      -1.878  12.595  18.625  0.00  0.00    +0.000 F 
ATOM     28  C   UNL     1       0.401  12.079  18.943  0.00  0.00    +0.000 A 
ATOM     29  C   UNL     1       1.444  11.153  18.867  0.00  0.00    +0.000 A 
ENDBRANCH  22  23
ENDBRANCH   5  22
TORSDOF 8
ENDMDL
