MODEL 1
REMARK VINA RESULT:      -8.1      0.000      0.000
REMARK  Name = 
REMARK  2 active torsions:
REMARK  status: ('A' for Active; 'I' for Inactive)
REMARK    1  A    between atoms: N_1  and  C_2
REMARK    2  A    between atoms: C_7  and  C_8
REMARK                            x       y       z     vdW  Elec       q    Type
REMARK                         _______ _______ _______ _____ _____    ______ ____
ROOT
ATOM      1  C   UNL     1       4.542   3.976  18.627  0.00  0.00    +0.000 A 
ATOM      2  N   UNL     1       5.718   4.411  19.112  0.00  0.00    +0.000 NA
ATOM      3  C   UNL     1       6.669   4.702  18.216  0.00  0.00    +0.000 A 
ATOM      4  N   UNL     1       7.869   5.169  18.763  0.00  0.00    +0.000 N 
ATOM      5  C   UNL     1       6.478   4.610  16.833  0.00  0.00    +0.000 A 
ATOM      6  C   UNL     1       7.450   4.926  15.853  0.00  0.00    +0.000 A 
ATOM      7  C   UNL     1       7.154   4.815  14.496  0.00  0.00    +0.000 A 
ATOM      8  C   UNL     1       5.887   4.400  14.108  0.00  0.00    +0.000 A 
ATOM      9  C   UNL     1       4.933   4.083  15.078  0.00  0.00    +0.000 A 
ATOM     10  C   UNL     1       5.209   4.173  16.439  0.00  0.00    +0.000 A 
ATOM     11  N   UNL     1       4.254   3.846  17.314  0.00  0.00    +0.000 NA
ATOM     12  H   UNL     1       7.782   5.092  19.775  0.00  0.00    +0.000 HD
ATOM     13  H   UNL     1       8.666   4.646  18.418  0.00  0.00    +0.000 HD
ENDROOT
BRANCH   1  19
ATOM     14  C   UNL     1       3.561   2.615  20.542  0.00  0.00    +0.000 A 
ATOM     15  C   UNL     1       2.508   2.396  21.447  0.00  0.00    +0.000 A 
ATOM     16  C   UNL     1       1.333   3.144  21.381  0.00  0.00    +0.000 A 
ATOM     17  C   UNL     1       1.214   4.157  20.440  0.00  0.00    +0.000 A 
ATOM     18  C   UNL     1       2.272   4.420  19.567  0.00  0.00    +0.000 A 
ATOM     19  C   UNL     1       3.469   3.666  19.596  0.00  0.00    +0.000 A 
BRANCH  14  20
ATOM     20  N   UNL     1       4.774   1.923  20.771  0.00  0.00    +0.000 N 
ATOM     21  H   UNL     1       5.381   2.380  21.444  0.00  0.00    +0.000 HD
ATOM     22  H   UNL     1       4.593   0.946  21.018  0.00  0.00    +0.000 HD
ENDBRANCH  14  20
ENDBRANCH   1  19
TORSDOF 2
ENDMDL
MODEL 2
REMARK VINA RESULT:      -7.9      0.765      1.640
REMARK  Name = 
REMARK  2 active torsions:
REMARK  status: ('A' for Active; 'I' for Inactive)
REMARK    1  A    between atoms: N_1  and  C_2
REMARK    2  A    between atoms: C_7  and  C_8
REMARK                            x       y       z     vdW  Elec       q    Type
REMARK                         _______ _______ _______ _____ _____    ______ ____
ROOT
ATOM      1  C   UNL     1       4.407   3.885  18.547  0.00  0.00    +0.000 A 
ATOM      2  N   UNL     1       5.547   4.334  19.100  0.00  0.00    +0.000 NA
ATOM      3  C   UNL     1       6.544   4.642  18.262  0.00  0.00    +0.000 A 
ATOM      4  N   UNL     1       7.704   5.122  18.879  0.00  0.00    +0.000 N 
ATOM      5  C   UNL     1       6.433   4.556  16.870  0.00  0.00    +0.000 A 
ATOM      6  C   UNL     1       7.455   4.892  15.948  0.00  0.00    +0.000 A 
ATOM      7  C   UNL     1       7.238   4.785  14.576  0.00  0.00    +0.000 A 
ATOM      8  C   UNL     1       6.002   4.355  14.114  0.00  0.00    +0.000 A 
ATOM      9  C   UNL     1       4.998   4.020  15.027  0.00  0.00    +0.000 A 
ATOM     10  C   UNL     1       5.195   4.104  16.401  0.00  0.00    +0.000 A 
ATOM     11  N   UNL     1       4.196   3.760  17.218  0.00  0.00    +0.000 NA
ATOM     12  H   UNL     1       7.561   5.038  19.884  0.00  0.00    +0.000 HD
ATOM     13  H   UNL     1       8.527   4.612  18.577  0.00  0.00    +0.000 HD
ENDROOT
BRANCH   1  19
ATOM     14  C   UNL     1       1.954   3.987  19.220  0.00  0.00    +0.000 A 
ATOM     15  C   UNL     1       0.935   3.613  20.112  0.00  0.00    +0.000 A 
ATOM     16  C   UNL     1       1.219   2.891  21.271  0.00  0.00    +0.000 A 
ATOM     17  C   UNL     1       2.522   2.487  21.528  0.00  0.00    +0.000 A 
ATOM     18  C   UNL     1       3.537   2.807  20.625  0.00  0.00    +0.000 A 
ATOM     19  C   UNL     1       3.285   3.556  19.451  0.00  0.00    +0.000 A 
BRANCH  14  20
ATOM     20  N   UNL     1       1.565   4.582  17.996  0.00  0.00    +0.000 N 
ATOM     21  H   UNL     1       1.520   3.927  17.223  0.00  0.00    +0.000 HD
ATOM     22  H   UNL     1       0.692   5.105  18.109  0.00  0.00    +0.000 HD
ENDBRANCH  14  20
ENDBRANCH   1  19
TORSDOF 2
ENDMDL
MODEL 3
REMARK VINA RESULT:      -7.9      0.770      5.812
REMARK  Name = 
REMARK  2 active torsions:
REMARK  status: ('A' for Active; 'I' for Inactive)
REMARK    1  A    between atoms: N_1  and  C_2
REMARK    2  A    between atoms: C_7  and  C_8
REMARK                            x       y       z     vdW  Elec       q    Type
REMARK                         _______ _______ _______ _____ _____    ______ ____
ROOT
ATOM      1  C   UNL     1       4.733   3.741  18.052  0.00  0.00    +0.000 A 
ATOM      2  N   UNL     1       5.311   2.898  18.926  0.00  0.00    +0.000 NA
ATOM      3  C   UNL     1       4.583   2.537  19.989  0.00  0.00    +0.000 A 
ATOM      4  N   UNL     1       5.217   1.646  20.861  0.00  0.00    +0.000 N 
ATOM      5  C   UNL     1       3.265   2.960  20.198  0.00  0.00    +0.000 A 
ATOM      6  C   UNL     1       2.454   2.585  21.298  0.00  0.00    +0.000 A 
ATOM      7  C   UNL     1       1.146   3.050  21.407  0.00  0.00    +0.000 A 
ATOM      8  C   UNL     1       0.634   3.880  20.418  0.00  0.00    +0.000 A 
ATOM      9  C   UNL     1       1.439   4.251  19.338  0.00  0.00    +0.000 A 
ATOM     10  C   UNL     1       2.753   3.812  19.215  0.00  0.00    +0.000 A 
ATOM     11  N   UNL     1       3.471   4.212  18.162  0.00  0.00    +0.000 NA
ATOM     12  H   UNL     1       6.173   1.536  20.528  0.00  0.00    +0.000 HD
ATOM     13  H   UNL     1       5.193   1.978  21.818  0.00  0.00    +0.000 HD
ENDROOT
BRANCH   1  19
ATOM     14  C   UNL     1       6.861   4.566  16.925  0.00  0.00    +0.000 A 
ATOM     15  C   UNL     1       7.542   4.907  15.744  0.00  0.00    +0.000 A 
ATOM     16  C   UNL     1       6.891   4.914  14.511  0.00  0.00    +0.000 A 
ATOM     17  C   UNL     1       5.559   4.528  14.434  0.00  0.00    +0.000 A 
ATOM     18  C   UNL     1       4.883   4.138  15.592  0.00  0.00    +0.000 A 
ATOM     19  C   UNL     1       5.510   4.140  16.860  0.00  0.00    +0.000 A 
BRANCH  14  20
ATOM     20  N   UNL     1       7.627   4.435  18.107  0.00  0.00    +0.000 N 
ATOM     21  H   UNL     1       7.545   5.228  18.735  0.00  0.00    +0.000 HD
ATOM     22  H   UNL     1       7.420   3.550  18.577  0.00  0.00    +0.000 HD
ENDBRANCH  14  20
ENDBRANCH   1  19
TORSDOF 2
ENDMDL
MODEL 4
REMARK VINA RESULT:      -7.8      2.147      5.801
REMARK  Name = 
REMARK  2 active torsions:
REMARK  status: ('A' for Active; 'I' for Inactive)
REMARK    1  A    between atoms: N_1  and  C_2
REMARK    2  A    between atoms: C_7  and  C_8
REMARK                            x       y       z     vdW  Elec       q    Type
REMARK                         _______ _______ _______ _____ _____    ______ ____
ROOT
ATOM      1  C   UNL     1       5.159   4.982  19.131  0.00  0.00    +0.000 A 
ATOM      2  N   UNL     1       5.547   3.703  19.273  0.00  0.00    +0.000 NA
ATOM      3  C   UNL     1       4.635   2.844  19.742  0.00  0.00    +0.000 A 
ATOM      4  N   UNL     1       5.076   1.521  19.856  0.00  0.00    +0.000 N 
ATOM      5  C   UNL     1       3.318   3.208  20.042  0.00  0.00    +0.000 A 
ATOM      6  C   UNL     1       2.317   2.327  20.521  0.00  0.00    +0.000 A 
ATOM      7  C   UNL     1       1.027   2.787  20.777  0.00  0.00    +0.000 A 
ATOM      8  C   UNL     1       0.724   4.122  20.547  0.00  0.00    +0.000 A 
ATOM      9  C   UNL     1       1.716   4.990  20.081  0.00  0.00    +0.000 A 
ATOM     10  C   UNL     1       3.014   4.557  19.832  0.00  0.00    +0.000 A 
ATOM     11  N   UNL     1       3.916   5.440  19.396  0.00  0.00    +0.000 NA
ATOM     12  H   UNL     1       6.071   1.521  19.635  0.00  0.00    +0.000 HD
ATOM     13  H   UNL     1       4.901   1.147  20.782  0.00  0.00    +0.000 HD
ENDROOT
BRANCH   1  19
ATOM     14  C   UNL     1       7.424   6.142  19.172  0.00  0.00    +0.000 A 
ATOM     15  C   UNL     1       8.315   7.062  18.593  0.00  0.00    +0.000 A 
ATOM     16  C   UNL     1       7.936   7.850  17.508  0.00  0.00    +0.000 A 
ATOM     17  C   UNL     1       6.674   7.693  16.952  0.00  0.00    +0.000 A 
ATOM     18  C   UNL     1       5.795   6.748  17.484  0.00  0.00    +0.000 A 
ATOM     19  C   UNL     1       6.143   5.947  18.597  0.00  0.00    +0.000 A 
BRANCH  14  20
ATOM     20  N   UNL     1       7.934   5.275  20.167  0.00  0.00    +0.000 N 
ATOM     21  H   UNL     1       8.018   4.311  19.862  0.00  0.00    +0.000 HD
ATOM     22  H   UNL     1       8.814   5.636  20.546  0.00  0.00    +0.000 HD
ENDBRANCH  14  20
ENDBRANCH   1  19
TORSDOF 2
ENDMDL
MODEL 5
REMARK VINA RESULT:      -7.7      0.989      1.484
REMARK  Name = 
REMARK  2 active torsions:
REMARK  status: ('A' for Active; 'I' for Inactive)
REMARK    1  A    between atoms: N_1  and  C_2
REMARK    2  A    between atoms: C_7  and  C_8
REMARK                            x       y       z     vdW  Elec       q    Type
REMARK                         _______ _______ _______ _____ _____    ______ ____
ROOT
ATOM      1  C   UNL     1       4.409   3.977  18.318  0.00  0.00    +0.000 A 
ATOM      2  N   UNL     1       5.577   4.337  18.880  0.00  0.00    +0.000 NA
ATOM      3  C   UNL     1       6.591   4.599  18.047  0.00  0.00    +0.000 A 
ATOM      4  N   UNL     1       7.781   4.987  18.673  0.00  0.00    +0.000 N 
ATOM      5  C   UNL     1       6.475   4.553  16.653  0.00  0.00    +0.000 A 
ATOM      6  C   UNL     1       7.517   4.841  15.738  0.00  0.00    +0.000 A 
ATOM      7  C   UNL     1       7.294   4.781  14.364  0.00  0.00    +0.000 A 
ATOM      8  C   UNL     1       6.031   4.444  13.895  0.00  0.00    +0.000 A 
ATOM      9  C   UNL     1       5.007   4.154  14.801  0.00  0.00    +0.000 A 
ATOM     10  C   UNL     1       5.210   4.194  16.177  0.00  0.00    +0.000 A 
ATOM     11  N   UNL     1       4.191   3.896  16.987  0.00  0.00    +0.000 NA
ATOM     12  H   UNL     1       7.632   4.890  19.676  0.00  0.00    +0.000 HD
ATOM     13  H   UNL     1       8.568   4.431  18.358  0.00  0.00    +0.000 HD
ENDROOT
BRANCH   1  19
ATOM     14  C   UNL     1       2.753   4.657  20.127  0.00  0.00    +0.000 A 
ATOM     15  C   UNL     1       1.649   4.328  20.932  0.00  0.00    +0.000 A 
ATOM     16  C   UNL     1       1.097   3.048  20.913  0.00  0.00    +0.000 A 
ATOM     17  C   UNL     1       1.610   2.090  20.049  0.00  0.00    +0.000 A 
ATOM     18  C   UNL     1       2.674   2.416  19.206  0.00  0.00    +0.000 A 
ATOM     19  C   UNL     1       3.268   3.700  19.216  0.00  0.00    +0.000 A 
BRANCH  14  20
ATOM     20  N   UNL     1       3.154   6.013  20.090  0.00  0.00    +0.000 N 
ATOM     21  H   UNL     1       2.868   6.543  20.906  0.00  0.00    +0.000 HD
ATOM     22  H   UNL     1       4.160   6.088  19.916  0.00  0.00    +0.000 HD
ENDBRANCH  14  20
ENDBRANCH   1  19
TORSDOF 2
ENDMDL
MODEL 6
REMARK VINA RESULT:      -7.5      1.472      1.977
REMARK  Name = 
REMARK  2 active torsions:
REMARK  status: ('A' for Active; 'I' for Inactive)
REMARK    1  A    between atoms: N_1  and  C_2
REMARK    2  A    between atoms: C_7  and  C_8
REMARK                            x       y       z     vdW  Elec       q    Type
REMARK                         _______ _______ _______ _____ _____    ______ ____
ROOT
ATOM      1  C   UNL     1       4.799   4.358  16.782  0.00  0.00    +0.000 A 
ATOM      2  N   UNL     1       5.705   5.283  17.146  0.00  0.00    +0.000 NA
ATOM      3  C   UNL     1       6.633   5.608  16.239  0.00  0.00    +0.000 A 
ATOM      4  N   UNL     1       7.543   6.587  16.653  0.00  0.00    +0.000 N 
ATOM      5  C   UNL     1       6.671   5.067  14.949  0.00  0.00    +0.000 A 
ATOM      6  C   UNL     1       7.623   5.398  13.954  0.00  0.00    +0.000 A 
ATOM      7  C   UNL     1       7.566   4.812  12.691  0.00  0.00    +0.000 A 
ATOM      8  C   UNL     1       6.555   3.902  12.409  0.00  0.00    +0.000 A 
ATOM      9  C   UNL     1       5.621   3.574  13.396  0.00  0.00    +0.000 A 
ATOM     10  C   UNL     1       5.667   4.135  14.668  0.00  0.00    +0.000 A 
ATOM     11  N   UNL     1       4.749   3.770  15.567  0.00  0.00    +0.000 NA
ATOM     12  H   UNL     1       7.345   6.777  17.634  0.00  0.00    +0.000 HD
ATOM     13  H   UNL     1       8.502   6.287  16.518  0.00  0.00    +0.000 HD
ENDROOT
BRANCH   1  19
ATOM     14  C   UNL     1       4.032   3.336  18.984  0.00  0.00    +0.000 A 
ATOM     15  C   UNL     1       2.985   3.045  19.875  0.00  0.00    +0.000 A 
ATOM     16  C   UNL     1       1.658   3.319  19.544  0.00  0.00    +0.000 A 
ATOM     17  C   UNL     1       1.364   3.936  18.336  0.00  0.00    +0.000 A 
ATOM     18  C   UNL     1       2.398   4.277  17.462  0.00  0.00    +0.000 A 
ATOM     19  C   UNL     1       3.752   3.995  17.760  0.00  0.00    +0.000 A 
BRANCH  14  20
ATOM     20  N   UNL     1       5.356   3.172  19.456  0.00  0.00    +0.000 N 
ATOM     21  H   UNL     1       5.416   3.045  20.460  0.00  0.00    +0.000 HD
ATOM     22  H   UNL     1       5.832   2.423  18.944  0.00  0.00    +0.000 HD
ENDBRANCH  14  20
ENDBRANCH   1  19
TORSDOF 2
ENDMDL
MODEL 7
REMARK VINA RESULT:      -7.4      1.916      6.226
REMARK  Name = 
REMARK  2 active torsions:
REMARK  status: ('A' for Active; 'I' for Inactive)
REMARK    1  A    between atoms: N_1  and  C_2
REMARK    2  A    between atoms: C_7  and  C_8
REMARK                            x       y       z     vdW  Elec       q    Type
REMARK                         _______ _______ _______ _____ _____    ______ ____
ROOT
ATOM      1  C   UNL     1       5.015   4.422  16.098  0.00  0.00    +0.000 A 
ATOM      2  N   UNL     1       4.817   3.260  16.743  0.00  0.00    +0.000 NA
ATOM      3  C   UNL     1       4.115   3.314  17.881  0.00  0.00    +0.000 A 
ATOM      4  N   UNL     1       3.918   2.079  18.510  0.00  0.00    +0.000 N 
ATOM      5  C   UNL     1       3.561   4.494  18.389  0.00  0.00    +0.000 A 
ATOM      6  C   UNL     1       2.797   4.591  19.578  0.00  0.00    +0.000 A 
ATOM      7  C   UNL     1       2.276   5.815  19.990  0.00  0.00    +0.000 A 
ATOM      8  C   UNL     1       2.503   6.946  19.218  0.00  0.00    +0.000 A 
ATOM      9  C   UNL     1       3.263   6.848  18.049  0.00  0.00    +0.000 A 
ATOM     10  C   UNL     1       3.805   5.639  17.624  0.00  0.00    +0.000 A 
ATOM     11  N   UNL     1       4.530   5.617  16.502  0.00  0.00    +0.000 NA
ATOM     12  H   UNL     1       4.457   1.392  17.986  0.00  0.00    +0.000 HD
ATOM     13  H   UNL     1       4.196   2.106  19.484  0.00  0.00    +0.000 HD
ENDROOT
BRANCH   1  19
ATOM     14  C   UNL     1       6.937   5.159  14.601  0.00  0.00    +0.000 A 
ATOM     15  C   UNL     1       7.616   5.053  13.375  0.00  0.00    +0.000 A 
ATOM     16  C   UNL     1       7.119   4.263  12.340  0.00  0.00    +0.000 A 
ATOM     17  C   UNL     1       5.961   3.523  12.535  0.00  0.00    +0.000 A 
ATOM     18  C   UNL     1       5.302   3.578  13.765  0.00  0.00    +0.000 A 
ATOM     19  C   UNL     1       5.771   4.386  14.828  0.00  0.00    +0.000 A 
BRANCH  14  20
ATOM     20  N   UNL     1       7.585   5.856  15.649  0.00  0.00    +0.000 N 
ATOM     21  H   UNL     1       7.932   5.251  16.385  0.00  0.00    +0.000 HD
ATOM     22  H   UNL     1       8.316   6.469  15.278  0.00  0.00    +0.000 HD
ENDBRANCH  14  20
ENDBRANCH   1  19
TORSDOF 2
ENDMDL
MODEL 8
REMARK VINA RESULT:      -7.3      2.217      5.427
REMARK  Name = 
REMARK  2 active torsions:
REMARK  status: ('A' for Active; 'I' for Inactive)
REMARK    1  A    between atoms: N_1  and  C_2
REMARK    2  A    between atoms: C_7  and  C_8
REMARK                            x       y       z     vdW  Elec       q    Type
REMARK                         _______ _______ _______ _____ _____    ______ ____
ROOT
ATOM      1  C   UNL     1       5.186   4.938  18.647  0.00  0.00    +0.000 A 
ATOM      2  N   UNL     1       5.610   3.828  19.276  0.00  0.00    +0.000 NA
ATOM      3  C   UNL     1       4.688   2.895  19.541  0.00  0.00    +0.000 A 
ATOM      4  N   UNL     1       5.176   1.750  20.180  0.00  0.00    +0.000 N 
ATOM      5  C   UNL     1       3.346   3.010  19.162  0.00  0.00    +0.000 A 
ATOM      6  C   UNL     1       2.344   2.038  19.406  0.00  0.00    +0.000 A 
ATOM      7  C   UNL     1       1.036   2.243  18.973  0.00  0.00    +0.000 A 
ATOM      8  C   UNL     1       0.720   3.408  18.288  0.00  0.00    +0.000 A 
ATOM      9  C   UNL     1       1.710   4.367  18.055  0.00  0.00    +0.000 A 
ATOM     10  C   UNL     1       3.019   4.192  18.490  0.00  0.00    +0.000 A 
ATOM     11  N   UNL     1       3.915   5.152  18.242  0.00  0.00    +0.000 NA
ATOM     12  H   UNL     1       6.156   1.928  20.397  0.00  0.00    +0.000 HD
ATOM     13  H   UNL     1       4.644   1.532  21.015  0.00  0.00    +0.000 HD
ENDROOT
BRANCH   1  19
ATOM     14  C   UNL     1       7.366   6.174  19.090  0.00  0.00    +0.000 A 
ATOM     15  C   UNL     1       8.285   7.167  18.709  0.00  0.00    +0.000 A 
ATOM     16  C   UNL     1       8.025   8.019  17.637  0.00  0.00    +0.000 A 
ATOM     17  C   UNL     1       6.862   7.857  16.896  0.00  0.00    +0.000 A 
ATOM     18  C   UNL     1       5.962   6.843  17.232  0.00  0.00    +0.000 A 
ATOM     19  C   UNL     1       6.189   5.975  18.326  0.00  0.00    +0.000 A 
BRANCH  14  20
ATOM     20  N   UNL     1       7.772   5.255  20.086  0.00  0.00    +0.000 N 
ATOM     21  H   UNL     1       8.690   5.453  20.471  0.00  0.00    +0.000 HD
ATOM     22  H   UNL     1       7.059   5.173  20.816  0.00  0.00    +0.000 HD
ENDBRANCH  14  20
ENDBRANCH   1  19
TORSDOF 2
ENDMDL
MODEL 9
REMARK VINA RESULT:      -7.3      1.525      6.056
REMARK  Name = 
REMARK  2 active torsions:
REMARK  status: ('A' for Active; 'I' for Inactive)
REMARK    1  A    between atoms: N_1  and  C_2
REMARK    2  A    between atoms: C_7  and  C_8
REMARK                            x       y       z     vdW  Elec       q    Type
REMARK                         _______ _______ _______ _____ _____    ______ ____
ROOT
ATOM      1  C   UNL     1       5.244   4.284  16.114  0.00  0.00    +0.000 A 
ATOM      2  N   UNL     1       6.052   4.460  17.174  0.00  0.00    +0.000 NA
ATOM      3  C   UNL     1       5.472   4.467  18.380  0.00  0.00    +0.000 A 
ATOM      4  N   UNL     1       6.352   4.635  19.455  0.00  0.00    +0.000 N 
ATOM      5  C   UNL     1       4.102   4.263  18.576  0.00  0.00    +0.000 A 
ATOM      6  C   UNL     1       3.452   4.243  19.835  0.00  0.00    +0.000 A 
ATOM      7  C   UNL     1       2.081   4.017  19.924  0.00  0.00    +0.000 A 
ATOM      8  C   UNL     1       1.351   3.798  18.763  0.00  0.00    +0.000 A 
ATOM      9  C   UNL     1       1.994   3.824  17.523  0.00  0.00    +0.000 A 
ATOM     10  C   UNL     1       3.359   4.063  17.408  0.00  0.00    +0.000 A 
ATOM     11  N   UNL     1       3.910   4.084  16.191  0.00  0.00    +0.000 NA
ATOM     12  H   UNL     1       7.272   4.817  19.057  0.00  0.00    +0.000 HD
ATOM     13  H   UNL     1       6.056   5.386  20.067  0.00  0.00    +0.000 HD
ENDROOT
BRANCH   1  19
ATOM     14  C   UNL     1       6.975   5.057  14.416  0.00  0.00    +0.000 A 
ATOM     15  C   UNL     1       7.524   4.955  13.126  0.00  0.00    +0.000 A 
ATOM     16  C   UNL     1       6.945   4.137  12.157  0.00  0.00    +0.000 A 
ATOM     17  C   UNL     1       5.837   3.366  12.480  0.00  0.00    +0.000 A 
ATOM     18  C   UNL     1       5.310   3.418  13.772  0.00  0.00    +0.000 A 
ATOM     19  C   UNL     1       5.863   4.254  14.772  0.00  0.00    +0.000 A 
BRANCH  14  20
ATOM     20  N   UNL     1       7.707   5.786  15.382  0.00  0.00    +0.000 N 
ATOM     21  H   UNL     1       7.143   6.446  15.906  0.00  0.00    +0.000 HD
ATOM     22  H   UNL     1       8.229   5.153  15.995  0.00  0.00    +0.000 HD
ENDBRANCH  14  20
ENDBRANCH   1  19
TORSDOF 2
ENDMDL
