MODEL 1
REMARK VINA RESULT:      -6.4      0.000      0.000
REMARK  Name = 
REMARK  9 active torsions:
REMARK  status: ('A' for Active; 'I' for Inactive)
REMARK    1  A    between atoms: C_1  and  C_2
REMARK    2  A    between atoms: C_4  and  C_5
REMARK    3  A    between atoms: N_6  and  C_7
REMARK    4  A    between atoms: C_7  and  C_8
REMARK    5  A    between atoms: N_11  and  C_12
REMARK    6  A    between atoms: C_12  and  C_13
REMARK    7  A    between atoms: C_13  and  O_14
REMARK    8  A    between atoms: C_13  and  C_15
REMARK    9  A    between atoms: C_15  and  N_16
REMARK                            x       y       z     vdW  Elec       q    Type
REMARK                         _______ _______ _______ _____ _____    ______ ____
ROOT
ATOM      1  C   UNL     1       2.649   7.082  19.433  0.00  0.00    +0.000 C 
ATOM      2  C   UNL     1       2.102   7.552  18.084  0.00  0.00    +0.000 C 
ATOM      3  C   UNL     1       1.866   9.062  18.131  0.00  0.00    +0.000 C 
ATOM      4  N   UNL     1       0.977   9.501  19.226  0.00  0.00    +0.000 NA
ATOM      5  C   UNL     1       1.335   8.901  20.527  0.00  0.00    +0.000 C 
ATOM      6  C   UNL     1       1.570   7.386  20.474  0.00  0.00    +0.000 C 
ENDROOT
BRANCH   1   7
ATOM      7  C   UNL     1       3.077   5.611  19.438  0.00  0.00    +0.000 C 
BRANCH   7  13
ATOM      8  C   UNL     1       7.070   5.880  16.719  0.00  0.00    +0.000 C 
ATOM      9  C   UNL     1       5.730   5.414  17.149  0.00  0.00    +0.000 A 
ATOM     10  C   UNL     1       4.913   4.433  16.546  0.00  0.00    +0.000 A 
ATOM     11  C   UNL     1       3.781   4.364  17.331  0.00  0.00    +0.000 A 
ATOM     12  C   UNL     1       2.578   3.509  17.203  0.00  0.00    +0.000 C 
ATOM     13  N   UNL     1       3.970   5.281  18.332  0.00  0.00    +0.000 N 
ATOM     14  N   UNL     1       5.154   5.925  18.243  0.00  0.00    +0.000 NA
ENDBRANCH   7  13
ENDBRANCH   1   7
BRANCH   4  15
ATOM     15  C   UNL     1       1.010  10.983  19.344  0.00  0.00    +0.000 C 
BRANCH  15  16
ATOM     16  C   UNL     1      -0.337  11.694  19.043  0.00  0.00    +0.000 C 
BRANCH  16  17
ATOM     17  O   UNL     1      -0.280  12.331  17.757  0.00  0.00    +0.000 OA
ATOM     18  H   UNL     1      -0.965  13.019  17.729  0.00  0.00    +0.000 HD
ENDBRANCH  16  17
BRANCH  16  19
ATOM     19  C   UNL     1      -1.484  10.680  19.054  0.00  0.00    +0.000 C 
BRANCH  19  20
ATOM     20  N   UNL     1      -2.168  10.624  17.772  0.00  0.00    +0.000 N 
ATOM     21  C   UNL     1      -1.937   9.724  16.768  0.00  0.00    +0.000 A 
ATOM     22  C   UNL     1      -2.778  10.079  15.740  0.00  0.00    +0.000 A 
ATOM     23  C   UNL     1      -3.491  11.188  16.228  0.00  0.00    +0.000 A 
ATOM     24  N   UNL     1      -3.141  11.511  17.476  0.00  0.00    +0.000 NA
ENDBRANCH  19  20
ENDBRANCH  16  19
ENDBRANCH  15  16
ENDBRANCH   4  15
TORSDOF 7
ENDMDL
MODEL 2
REMARK VINA RESULT:      -6.4      0.918      1.180
REMARK  Name = 
REMARK  9 active torsions:
REMARK  status: ('A' for Active; 'I' for Inactive)
REMARK    1  A    between atoms: C_1  and  C_2
REMARK    2  A    between atoms: C_4  and  C_5
REMARK    3  A    between atoms: N_6  and  C_7
REMARK    4  A    between atoms: C_7  and  C_8
REMARK    5  A    between atoms: N_11  and  C_12
REMARK    6  A    between atoms: C_12  and  C_13
REMARK    7  A    between atoms: C_13  and  O_14
REMARK    8  A    between atoms: C_13  and  C_15
REMARK    9  A    between atoms: C_15  and  N_16
REMARK                            x       y       z     vdW  Elec       q    Type
REMARK                         _______ _______ _______ _____ _____    ______ ____
ROOT
ATOM      1  C   UNL     1       2.666   6.876  19.513  0.00  0.00    +0.000 C 
ATOM      2  C   UNL     1       2.187   7.378  18.150  0.00  0.00    +0.000 C 
ATOM      3  C   UNL     1       1.966   8.891  18.216  0.00  0.00    +0.000 C 
ATOM      4  N   UNL     1       1.032   9.318  19.278  0.00  0.00    +0.000 NA
ATOM      5  C   UNL     1       1.323   8.690  20.582  0.00  0.00    +0.000 C 
ATOM      6  C   UNL     1       1.543   7.173  20.509  0.00  0.00    +0.000 C 
ENDROOT
BRANCH   1   7
ATOM      7  C   UNL     1       3.076   5.400  19.508  0.00  0.00    +0.000 C 
BRANCH   7  13
ATOM      8  C   UNL     1       7.887   5.746  19.124  0.00  0.00    +0.000 C 
ATOM      9  C   UNL     1       6.505   5.348  18.762  0.00  0.00    +0.000 A 
ATOM     10  C   UNL     1       6.081   4.577  17.659  0.00  0.00    +0.000 A 
ATOM     11  C   UNL     1       4.710   4.483  17.781  0.00  0.00    +0.000 A 
ATOM     12  C   UNL     1       3.718   3.789  16.928  0.00  0.00    +0.000 C 
ATOM     13  N   UNL     1       4.392   5.184  18.916  0.00  0.00    +0.000 N 
ATOM     14  N   UNL     1       5.473   5.711  19.532  0.00  0.00    +0.000 NA
ENDBRANCH   7  13
ENDBRANCH   1   7
BRANCH   4  15
ATOM     15  C   UNL     1       1.077  10.798  19.427  0.00  0.00    +0.000 C 
BRANCH  15  16
ATOM     16  C   UNL     1      -0.261  11.526  19.129  0.00  0.00    +0.000 C 
BRANCH  16  17
ATOM     17  O   UNL     1      -0.213  12.129  17.826  0.00  0.00    +0.000 OA
ATOM     18  H   UNL     1       0.527  11.731  17.336  0.00  0.00    +0.000 HD
ENDBRANCH  16  17
BRANCH  16  19
ATOM     19  C   UNL     1      -1.427  10.535  19.184  0.00  0.00    +0.000 C 
BRANCH  19  20
ATOM     20  N   UNL     1      -2.217  10.561  17.964  0.00  0.00    +0.000 N 
ATOM     21  C   UNL     1      -3.380  11.252  17.766  0.00  0.00    +0.000 A 
ATOM     22  C   UNL     1      -3.791  10.947  16.489  0.00  0.00    +0.000 A 
ATOM     23  C   UNL     1      -2.798  10.086  15.991  0.00  0.00    +0.000 A 
ATOM     24  N   UNL     1      -1.822   9.865  16.877  0.00  0.00    +0.000 NA
ENDBRANCH  19  20
ENDBRANCH  16  19
ENDBRANCH  15  16
ENDBRANCH   4  15
TORSDOF 7
ENDMDL
MODEL 3
REMARK VINA RESULT:      -6.3      2.693      8.294
REMARK  Name = 
REMARK  9 active torsions:
REMARK  status: ('A' for Active; 'I' for Inactive)
REMARK    1  A    between atoms: C_1  and  C_2
REMARK    2  A    between atoms: C_4  and  C_5
REMARK    3  A    between atoms: N_6  and  C_7
REMARK    4  A    between atoms: C_7  and  C_8
REMARK    5  A    between atoms: N_11  and  C_12
REMARK    6  A    between atoms: C_12  and  C_13
REMARK    7  A    between atoms: C_13  and  O_14
REMARK    8  A    between atoms: C_13  and  C_15
REMARK    9  A    between atoms: C_15  and  N_16
REMARK                            x       y       z     vdW  Elec       q    Type
REMARK                         _______ _______ _______ _____ _____    ______ ____
ROOT
ATOM      1  C   UNL     1       1.681   8.522  18.547  0.00  0.00    +0.000 C 
ATOM      2  C   UNL     1       2.934   7.948  17.882  0.00  0.00    +0.000 C 
ATOM      3  C   UNL     1       2.976   6.435  18.103  0.00  0.00    +0.000 C 
ATOM      4  N   UNL     1       2.917   6.030  19.523  0.00  0.00    +0.000 NA
ATOM      5  C   UNL     1       1.849   6.723  20.270  0.00  0.00    +0.000 C 
ATOM      6  C   UNL     1       1.811   8.240  20.046  0.00  0.00    +0.000 C 
ENDROOT
BRANCH   1   7
ATOM      7  C   UNL     1       1.456  10.006  18.243  0.00  0.00    +0.000 C 
BRANCH   7  13
ATOM      8  C   UNL     1      -3.313  10.114  17.436  0.00  0.00    +0.000 C 
ATOM      9  C   UNL     1      -2.020  10.456  18.077  0.00  0.00    +0.000 A 
ATOM     10  C   UNL     1      -1.787  11.338  19.153  0.00  0.00    +0.000 A 
ATOM     11  C   UNL     1      -0.426  11.296  19.376  0.00  0.00    +0.000 A 
ATOM     12  C   UNL     1       0.403  12.001  20.381  0.00  0.00    +0.000 C 
ATOM     13  N   UNL     1       0.072  10.419  18.446  0.00  0.00    +0.000 N 
ATOM     14  N   UNL     1      -0.884   9.891  17.652  0.00  0.00    +0.000 NA
ENDBRANCH   7  13
ENDBRANCH   1   7
BRANCH   4  15
ATOM     15  C   UNL     1       2.711   4.560  19.623  0.00  0.00    +0.000 C 
BRANCH  15  16
ATOM     16  C   UNL     1       4.006   3.710  19.530  0.00  0.00    +0.000 C 
BRANCH  16  17
ATOM     17  O   UNL     1       3.874   2.525  20.331  0.00  0.00    +0.000 OA
ATOM     18  H   UNL     1       3.291   1.905  19.861  0.00  0.00    +0.000 HD
ENDBRANCH  16  17
BRANCH  16  19
ATOM     19  C   UNL     1       4.273   3.310  18.076  0.00  0.00    +0.000 C 
BRANCH  19  20
ATOM     20  N   UNL     1       5.487   3.923  17.561  0.00  0.00    +0.000 N 
ATOM     21  C   UNL     1       5.811   4.100  16.245  0.00  0.00    +0.000 A 
ATOM     22  C   UNL     1       7.060   4.674  16.235  0.00  0.00    +0.000 A 
ATOM     23  C   UNL     1       7.394   4.826  17.592  0.00  0.00    +0.000 A 
ATOM     24  N   UNL     1       6.428   4.391  18.407  0.00  0.00    +0.000 NA
ENDBRANCH  19  20
ENDBRANCH  16  19
ENDBRANCH  15  16
ENDBRANCH   4  15
TORSDOF 7
ENDMDL
MODEL 4
REMARK VINA RESULT:      -6.3      2.396      8.305
REMARK  Name = 
REMARK  9 active torsions:
REMARK  status: ('A' for Active; 'I' for Inactive)
REMARK    1  A    between atoms: C_1  and  C_2
REMARK    2  A    between atoms: C_4  and  C_5
REMARK    3  A    between atoms: N_6  and  C_7
REMARK    4  A    between atoms: C_7  and  C_8
REMARK    5  A    between atoms: N_11  and  C_12
REMARK    6  A    between atoms: C_12  and  C_13
REMARK    7  A    between atoms: C_13  and  O_14
REMARK    8  A    between atoms: C_13  and  C_15
REMARK    9  A    between atoms: C_15  and  N_16
REMARK                            x       y       z     vdW  Elec       q    Type
REMARK                         _______ _______ _______ _____ _____    ______ ____
ROOT
ATOM      1  C   UNL     1       0.989   9.198  19.037  0.00  0.00    +0.000 C 
ATOM      2  C   UNL     1       2.188   9.203  18.086  0.00  0.00    +0.000 C 
ATOM      3  C   UNL     1       2.599   7.762  17.782  0.00  0.00    +0.000 C 
ATOM      4  N   UNL     1       2.899   6.953  18.981  0.00  0.00    +0.000 NA
ATOM      5  C   UNL     1       1.866   7.080  20.028  0.00  0.00    +0.000 C 
ATOM      6  C   UNL     1       1.458   8.528  20.331  0.00  0.00    +0.000 C 
ENDROOT
BRANCH   1   7
ATOM      7  C   UNL     1       0.393  10.588  19.273  0.00  0.00    +0.000 C 
BRANCH   7  13
ATOM      8  C   UNL     1      -2.978   9.886  15.875  0.00  0.00    +0.000 C 
ATOM      9  C   UNL     1      -2.352  10.458  17.091  0.00  0.00    +0.000 A 
ATOM     10  C   UNL     1      -2.893  11.406  17.986  0.00  0.00    +0.000 A 
ATOM     11  C   UNL     1      -1.925  11.595  18.951  0.00  0.00    +0.000 A 
ATOM     12  C   UNL     1      -1.926  12.462  20.152  0.00  0.00    +0.000 C 
ATOM     13  N   UNL     1      -0.884  10.777  18.594  0.00  0.00    +0.000 N 
ATOM     14  N   UNL     1      -1.128  10.071  17.469  0.00  0.00    +0.000 NA
ENDBRANCH   7  13
ENDBRANCH   1   7
BRANCH   4  15
ATOM     15  C   UNL     1       3.040   5.520  18.605  0.00  0.00    +0.000 C 
BRANCH  15  16
ATOM     16  C   UNL     1       3.606   4.603  19.722  0.00  0.00    +0.000 C 
BRANCH  16  17
ATOM     17  O   UNL     1       2.572   3.740  20.219  0.00  0.00    +0.000 OA
ATOM     18  H   UNL     1       2.983   2.904  20.499  0.00  0.00    +0.000 HD
ENDBRANCH  16  17
BRANCH  16  19
ATOM     19  C   UNL     1       4.756   3.753  19.176  0.00  0.00    +0.000 C 
BRANCH  19  20
ATOM     20  N   UNL     1       5.890   4.570  18.776  0.00  0.00    +0.000 N 
ATOM     21  C   UNL     1       6.349   4.753  17.502  0.00  0.00    +0.000 A 
ATOM     22  C   UNL     1       7.457   5.560  17.608  0.00  0.00    +0.000 A 
ATOM     23  C   UNL     1       7.570   5.831  18.983  0.00  0.00    +0.000 A 
ATOM     24  N   UNL     1       6.603   5.249  19.699  0.00  0.00    +0.000 NA
ENDBRANCH  19  20
ENDBRANCH  16  19
ENDBRANCH  15  16
ENDBRANCH   4  15
TORSDOF 7
ENDMDL
MODEL 5
REMARK VINA RESULT:      -6.2      3.536      8.486
REMARK  Name = 
REMARK  9 active torsions:
REMARK  status: ('A' for Active; 'I' for Inactive)
REMARK    1  A    between atoms: C_1  and  C_2
REMARK    2  A    between atoms: C_4  and  C_5
REMARK    3  A    between atoms: N_6  and  C_7
REMARK    4  A    between atoms: C_7  and  C_8
REMARK    5  A    between atoms: N_11  and  C_12
REMARK    6  A    between atoms: C_12  and  C_13
REMARK    7  A    between atoms: C_13  and  O_14
REMARK    8  A    between atoms: C_13  and  C_15
REMARK    9  A    between atoms: C_15  and  N_16
REMARK                            x       y       z     vdW  Elec       q    Type
REMARK                         _______ _______ _______ _____ _____    ______ ____
ROOT
ATOM      1  C   UNL     1       2.565   7.809  18.423  0.00  0.00    +0.000 C 
ATOM      2  C   UNL     1       2.215   6.331  18.608  0.00  0.00    +0.000 C 
ATOM      3  C   UNL     1       3.495   5.535  18.865  0.00  0.00    +0.000 C 
ATOM      4  N   UNL     1       4.524   5.691  17.817  0.00  0.00    +0.000 NA
ATOM      5  C   UNL     1       4.751   7.102  17.445  0.00  0.00    +0.000 C 
ATOM      6  C   UNL     1       3.463   7.895  17.188  0.00  0.00    +0.000 C 
ENDROOT
BRANCH   1   7
ATOM      7  C   UNL     1       1.336   8.718  18.326  0.00  0.00    +0.000 C 
BRANCH   7  13
ATOM      8  C   UNL     1       0.276   9.388  22.999  0.00  0.00    +0.000 C 
ATOM      9  C   UNL     1       0.628   9.750  21.605  0.00  0.00    +0.000 A 
ATOM     10  C   UNL     1       0.853  11.036  21.068  0.00  0.00    +0.000 A 
ATOM     11  C   UNL     1       1.157  10.831  19.738  0.00  0.00    +0.000 A 
ATOM     12  C   UNL     1       1.497  11.803  18.673  0.00  0.00    +0.000 C 
ATOM     13  N   UNL     1       1.097   9.474  19.551  0.00  0.00    +0.000 N 
ATOM     14  N   UNL     1       0.785   8.798  20.678  0.00  0.00    +0.000 NA
ENDBRANCH   7  13
ENDBRANCH   1   7
BRANCH   4  15
ATOM     15  C   UNL     1       5.808   5.093  18.272  0.00  0.00    +0.000 C 
BRANCH  15  16
ATOM     16  C   UNL     1       6.821   4.778  17.139  0.00  0.00    +0.000 C 
BRANCH  16  17
ATOM     17  O   UNL     1       7.950   4.069  17.673  0.00  0.00    +0.000 OA
ATOM     18  H   UNL     1       8.344   3.543  16.957  0.00  0.00    +0.000 HD
ENDBRANCH  16  17
BRANCH  16  19
ATOM     19  C   UNL     1       6.154   3.924  16.056  0.00  0.00    +0.000 C 
BRANCH  19  20
ATOM     20  N   UNL     1       6.637   4.264  14.727  0.00  0.00    +0.000 N 
ATOM     21  C   UNL     1       6.200   3.733  13.546  0.00  0.00    +0.000 A 
ATOM     22  C   UNL     1       6.964   4.314  12.562  0.00  0.00    +0.000 A 
ATOM     23  C   UNL     1       7.816   5.199  13.247  0.00  0.00    +0.000 A 
ATOM     24  N   UNL     1       7.605   5.190  14.567  0.00  0.00    +0.000 NA
ENDBRANCH  19  20
ENDBRANCH  16  19
ENDBRANCH  15  16
ENDBRANCH   4  15
TORSDOF 7
ENDMDL
MODEL 6
REMARK VINA RESULT:      -6.2      4.668      6.719
REMARK  Name = 
REMARK  9 active torsions:
REMARK  status: ('A' for Active; 'I' for Inactive)
REMARK    1  A    between atoms: C_1  and  C_2
REMARK    2  A    between atoms: C_4  and  C_5
REMARK    3  A    between atoms: N_6  and  C_7
REMARK    4  A    between atoms: C_7  and  C_8
REMARK    5  A    between atoms: N_11  and  C_12
REMARK    6  A    between atoms: C_12  and  C_13
REMARK    7  A    between atoms: C_13  and  O_14
REMARK    8  A    between atoms: C_13  and  C_15
REMARK    9  A    between atoms: C_15  and  N_16
REMARK                            x       y       z     vdW  Elec       q    Type
REMARK                         _______ _______ _______ _____ _____    ______ ____
ROOT
ATOM      1  C   UNL     1       5.950   5.120  16.240  0.00  0.00    +0.000 C 
ATOM      2  C   UNL     1       5.976   4.610  17.682  0.00  0.00    +0.000 C 
ATOM      3  C   UNL     1       4.601   4.820  18.319  0.00  0.00    +0.000 C 
ATOM      4  N   UNL     1       4.123   6.217  18.277  0.00  0.00    +0.000 NA
ATOM      5  C   UNL     1       4.275   6.833  16.944  0.00  0.00    +0.000 C 
ATOM      6  C   UNL     1       5.656   6.621  16.310  0.00  0.00    +0.000 C 
ENDROOT
BRANCH   1   7
ATOM      7  C   UNL     1       7.229   4.805  15.460  0.00  0.00    +0.000 C 
BRANCH   7  13
ATOM      8  C   UNL     1       4.999   2.708  11.713  0.00  0.00    +0.000 C 
ATOM      9  C   UNL     1       5.981   3.560  12.425  0.00  0.00    +0.000 A 
ATOM     10  C   UNL     1       6.998   4.367  11.871  0.00  0.00    +0.000 A 
ATOM     11  C   UNL     1       7.624   4.961  12.947  0.00  0.00    +0.000 A 
ATOM     12  C   UNL     1       8.754   5.918  12.990  0.00  0.00    +0.000 C 
ATOM     13  N   UNL     1       6.971   4.491  14.058  0.00  0.00    +0.000 N 
ATOM     14  N   UNL     1       5.963   3.644  13.760  0.00  0.00    +0.000 NA
ENDBRANCH   7  13
ENDBRANCH   1   7
BRANCH   4  15
ATOM     15  C   UNL     1       2.693   6.277  18.684  0.00  0.00    +0.000 C 
BRANCH  15  16
ATOM     16  C   UNL     1       2.434   6.059  20.198  0.00  0.00    +0.000 C 
BRANCH  16  17
ATOM     17  O   UNL     1       2.099   7.307  20.824  0.00  0.00    +0.000 OA
ATOM     18  H   UNL     1       1.735   7.117  21.705  0.00  0.00    +0.000 HD
ENDBRANCH  16  17
BRANCH  16  19
ATOM     19  C   UNL     1       1.284   5.068  20.401  0.00  0.00    +0.000 C 
BRANCH  19  20
ATOM     20  N   UNL     1       1.582   3.769  19.818  0.00  0.00    +0.000 N 
ATOM     21  C   UNL     1       0.956   3.199  18.744  0.00  0.00    +0.000 A 
ATOM     22  C   UNL     1       1.533   1.962  18.581  0.00  0.00    +0.000 A 
ATOM     23  C   UNL     1       2.512   1.888  19.588  0.00  0.00    +0.000 A 
ATOM     24  N   UNL     1       2.562   2.997  20.332  0.00  0.00    +0.000 NA
ENDBRANCH  19  20
ENDBRANCH  16  19
ENDBRANCH  15  16
ENDBRANCH   4  15
TORSDOF 7
ENDMDL
MODEL 7
REMARK VINA RESULT:      -6.2      2.633      8.228
REMARK  Name = 
REMARK  9 active torsions:
REMARK  status: ('A' for Active; 'I' for Inactive)
REMARK    1  A    between atoms: C_1  and  C_2
REMARK    2  A    between atoms: C_4  and  C_5
REMARK    3  A    between atoms: N_6  and  C_7
REMARK    4  A    between atoms: C_7  and  C_8
REMARK    5  A    between atoms: N_11  and  C_12
REMARK    6  A    between atoms: C_12  and  C_13
REMARK    7  A    between atoms: C_13  and  O_14
REMARK    8  A    between atoms: C_13  and  C_15
REMARK    9  A    between atoms: C_15  and  N_16
REMARK                            x       y       z     vdW  Elec       q    Type
REMARK                         _______ _______ _______ _____ _____    ______ ____
ROOT
ATOM      1  C   UNL     1       0.460  10.166  18.856  0.00  0.00    +0.000 C 
ATOM      2  C   UNL     1       1.622   9.753  17.951  0.00  0.00    +0.000 C 
ATOM      3  C   UNL     1       1.949   8.278  18.188  0.00  0.00    +0.000 C 
ATOM      4  N   UNL     1       2.251   7.944  19.595  0.00  0.00    +0.000 NA
ATOM      5  C   UNL     1       1.265   8.506  20.539  0.00  0.00    +0.000 C 
ATOM      6  C   UNL     1       0.941   9.986  20.298  0.00  0.00    +0.000 C 
ENDROOT
BRANCH   1   7
ATOM      7  C   UNL     1      -0.056  11.581  18.577  0.00  0.00    +0.000 C 
BRANCH   7  13
ATOM      8  C   UNL     1      -4.402  11.157  16.494  0.00  0.00    +0.000 C 
ATOM      9  C   UNL     1      -3.411  11.452  17.557  0.00  0.00    +0.000 A 
ATOM     10  C   UNL     1      -3.652  11.895  18.875  0.00  0.00    +0.000 A 
ATOM     11  C   UNL     1      -2.408  12.009  19.459  0.00  0.00    +0.000 A 
ATOM     12  C   UNL     1      -2.027  12.419  20.830  0.00  0.00    +0.000 C 
ATOM     13  N   UNL     1      -1.511  11.642  18.488  0.00  0.00    +0.000 N 
ATOM     14  N   UNL     1      -2.103  11.292  17.326  0.00  0.00    +0.000 NA
ENDBRANCH   7  13
ENDBRANCH   1   7
BRANCH   4  15
ATOM     15  C   UNL     1       2.306   6.467  19.767  0.00  0.00    +0.000 C 
BRANCH  15  16
ATOM     16  C   UNL     1       3.207   5.723  18.745  0.00  0.00    +0.000 C 
BRANCH  16  17
ATOM     17  O   UNL     1       4.534   5.578  19.276  0.00  0.00    +0.000 OA
ATOM     18  H   UNL     1       4.485   5.014  20.066  0.00  0.00    +0.000 HD
ENDBRANCH  16  17
BRANCH  16  19
ATOM     19  C   UNL     1       2.630   4.338  18.442  0.00  0.00    +0.000 C 
BRANCH  19  20
ATOM     20  N   UNL     1       2.321   3.603  19.658  0.00  0.00    +0.000 N 
ATOM     21  C   UNL     1       1.074   3.352  20.159  0.00  0.00    +0.000 A 
ATOM     22  C   UNL     1       1.268   2.671  21.337  0.00  0.00    +0.000 A 
ATOM     23  C   UNL     1       2.663   2.538  21.448  0.00  0.00    +0.000 A 
ATOM     24  N   UNL     1       3.311   3.084  20.414  0.00  0.00    +0.000 NA
ENDBRANCH  19  20
ENDBRANCH  16  19
ENDBRANCH  15  16
ENDBRANCH   4  15
TORSDOF 7
ENDMDL
MODEL 8
REMARK VINA RESULT:      -6.1      2.648      8.212
REMARK  Name = 
REMARK  9 active torsions:
REMARK  status: ('A' for Active; 'I' for Inactive)
REMARK    1  A    between atoms: C_1  and  C_2
REMARK    2  A    between atoms: C_4  and  C_5
REMARK    3  A    between atoms: N_6  and  C_7
REMARK    4  A    between atoms: C_7  and  C_8
REMARK    5  A    between atoms: N_11  and  C_12
REMARK    6  A    between atoms: C_12  and  C_13
REMARK    7  A    between atoms: C_13  and  O_14
REMARK    8  A    between atoms: C_13  and  C_15
REMARK    9  A    between atoms: C_15  and  N_16
REMARK                            x       y       z     vdW  Elec       q    Type
REMARK                         _______ _______ _______ _____ _____    ______ ____
ROOT
ATOM      1  C   UNL     1       1.346   8.602  19.129  0.00  0.00    +0.000 C 
ATOM      2  C   UNL     1       2.529   8.251  18.226  0.00  0.00    +0.000 C 
ATOM      3  C   UNL     1       2.669   6.730  18.143  0.00  0.00    +0.000 C 
ATOM      4  N   UNL     1       2.809   6.064  19.453  0.00  0.00    +0.000 NA
ATOM      5  C   UNL     1       1.813   6.528  20.439  0.00  0.00    +0.000 C 
ATOM      6  C   UNL     1       1.677   8.054  20.519  0.00  0.00    +0.000 C 
ENDROOT
BRANCH   1   7
ATOM      7  C   UNL     1       1.016  10.098  19.146  0.00  0.00    +0.000 C 
BRANCH   7  13
ATOM      8  C   UNL     1      -2.827   9.848  16.217  0.00  0.00    +0.000 C 
ATOM      9  C   UNL     1      -2.017  10.261  17.389  0.00  0.00    +0.000 A 
ATOM     10  C   UNL     1      -2.397  11.098  18.460  0.00  0.00    +0.000 A 
ATOM     11  C   UNL     1      -1.296  11.159  19.288  0.00  0.00    +0.000 A 
ATOM     12  C   UNL     1      -1.101  11.874  20.571  0.00  0.00    +0.000 C 
ATOM     13  N   UNL     1      -0.340  10.380  18.688  0.00  0.00    +0.000 N 
ATOM     14  N   UNL     1      -0.764   9.819  17.535  0.00  0.00    +0.000 NA
ENDBRANCH   7  13
ENDBRANCH   1   7
BRANCH   4  15
ATOM     15  C   UNL     1       2.685   4.590  19.290  0.00  0.00    +0.000 C 
BRANCH  15  16
ATOM     16  C   UNL     1       4.031   3.834  19.127  0.00  0.00    +0.000 C 
BRANCH  16  17
ATOM     17  O   UNL     1       4.028   2.646  19.933  0.00  0.00    +0.000 OA
ATOM     18  H   UNL     1       4.629   2.001  19.524  0.00  0.00    +0.000 HD
ENDBRANCH  16  17
BRANCH  16  19
ATOM     19  C   UNL     1       4.247   3.449  17.661  0.00  0.00    +0.000 C 
BRANCH  19  20
ATOM     20  N   UNL     1       5.401   4.125  17.089  0.00  0.00    +0.000 N 
ATOM     21  C   UNL     1       6.144   5.105  17.685  0.00  0.00    +0.000 A 
ATOM     22  C   UNL     1       7.096   5.474  16.763  0.00  0.00    +0.000 A 
ATOM     23  C   UNL     1       6.859   4.643  15.654  0.00  0.00    +0.000 A 
ATOM     24  N   UNL     1       5.841   3.801  15.855  0.00  0.00    +0.000 NA
ENDBRANCH  19  20
ENDBRANCH  16  19
ENDBRANCH  15  16
ENDBRANCH   4  15
TORSDOF 7
ENDMDL
MODEL 9
REMARK VINA RESULT:      -6.1      2.125      2.999
REMARK  Name = 
REMARK  9 active torsions:
REMARK  status: ('A' for Active; 'I' for Inactive)
REMARK    1  A    between atoms: C_1  and  C_2
REMARK    2  A    between atoms: C_4  and  C_5
REMARK    3  A    between atoms: N_6  and  C_7
REMARK    4  A    between atoms: C_7  and  C_8
REMARK    5  A    between atoms: N_11  and  C_12
REMARK    6  A    between atoms: C_12  and  C_13
REMARK    7  A    between atoms: C_13  and  O_14
REMARK    8  A    between atoms: C_13  and  C_15
REMARK    9  A    between atoms: C_15  and  N_16
REMARK                            x       y       z     vdW  Elec       q    Type
REMARK                         _______ _______ _______ _____ _____    ______ ____
ROOT
ATOM      1  C   UNL     1       2.784   6.579  19.618  0.00  0.00    +0.000 C 
ATOM      2  C   UNL     1       2.345   6.986  18.211  0.00  0.00    +0.000 C 
ATOM      3  C   UNL     1       2.148   8.502  18.160  0.00  0.00    +0.000 C 
ATOM      4  N   UNL     1       1.198   9.022  19.164  0.00  0.00    +0.000 NA
ATOM      5  C   UNL     1       1.448   8.487  20.518  0.00  0.00    +0.000 C 
ATOM      6  C   UNL     1       1.644   6.966  20.563  0.00  0.00    +0.000 C 
ENDROOT
BRANCH   1   7
ATOM      7  C   UNL     1       3.170   5.101  19.732  0.00  0.00    +0.000 C 
BRANCH   7  13
ATOM      8  C   UNL     1       7.480   4.745  17.565  0.00  0.00    +0.000 C 
ATOM      9  C   UNL     1       6.026   4.544  17.771  0.00  0.00    +0.000 A 
ATOM     10  C   UNL     1       5.121   3.825  16.961  0.00  0.00    +0.000 A 
ATOM     11  C   UNL     1       3.899   3.930  17.590  0.00  0.00    +0.000 A 
ATOM     12  C   UNL     1       2.578   3.373  17.217  0.00  0.00    +0.000 C 
ATOM     13  N   UNL     1       4.126   4.688  18.711  0.00  0.00    +0.000 N 
ATOM     14  N   UNL     1       5.416   5.064  18.842  0.00  0.00    +0.000 NA
ENDBRANCH   7  13
ENDBRANCH   1   7
BRANCH   4  15
ATOM     15  C   UNL     1       1.263  10.507  19.205  0.00  0.00    +0.000 C 
BRANCH  15  16
ATOM     16  C   UNL     1      -0.105  11.227  19.069  0.00  0.00    +0.000 C 
BRANCH  16  17
ATOM     17  O   UNL     1      -1.173  10.307  19.343  0.00  0.00    +0.000 OA
ATOM     18  H   UNL     1      -0.809   9.562  19.850  0.00  0.00    +0.000 HD
ENDBRANCH  16  17
BRANCH  16  19
ATOM     19  C   UNL     1      -0.185  12.401  20.049  0.00  0.00    +0.000 C 
BRANCH  19  20
ATOM     20  N   UNL     1      -0.887  12.038  21.270  0.00  0.00    +0.000 N 
ATOM     21  C   UNL     1      -2.048  12.591  21.733  0.00  0.00    +0.000 A 
ATOM     22  C   UNL     1      -2.312  11.972  22.932  0.00  0.00    +0.000 A 
ATOM     23  C   UNL     1      -1.267  11.046  23.094  0.00  0.00    +0.000 A 
ATOM     24  N   UNL     1      -0.407  11.064  22.071  0.00  0.00    +0.000 NA
ENDBRANCH  19  20
ENDBRANCH  16  19
ENDBRANCH  15  16
ENDBRANCH   4  15
TORSDOF 7
ENDMDL
