MODEL 1
REMARK VINA RESULT:      -6.7      0.000      0.000
REMARK  Name = 
REMARK  9 active torsions:
REMARK  status: ('A' for Active; 'I' for Inactive)
REMARK    1  A    between atoms: C_1  and  O_2
REMARK    2  A    between atoms: O_2  and  C_3
REMARK    3  A    between atoms: C_8  and  C_9
REMARK    4  A    between atoms: C_9  and  C_10
REMARK    5  A    between atoms: C_10  and  C_11
REMARK    6  A    between atoms: C_11  and  N_12
REMARK    7  A    between atoms: N_12  and  C_13
REMARK    8  A    between atoms: C_19  and  C_20
REMARK    9  A    between atoms: N_21  and  O_22
REMARK                            x       y       z     vdW  Elec       q    Type
REMARK                         _______ _______ _______ _____ _____    ______ ____
ROOT
ATOM      1  N   UNL     1       4.567   2.733  17.372  0.00  0.00    +0.000 N 
ATOM      2  H   UNL     1       4.212   2.919  16.428  0.00  0.00    +0.000 HD
ENDROOT
BRANCH   1   3
ATOM      3  C   UNL     1       5.198   3.876  17.871  0.00  0.00    +0.000 A 
ATOM      4  N   UNL     1       5.300   4.031  19.207  0.00  0.00    +0.000 NA
ATOM      5  C   UNL     1       6.019   5.072  19.658  0.00  0.00    +0.000 A 
ATOM      6  N   UNL     1       6.669   5.963  18.907  0.00  0.00    +0.000 NA
ATOM      7  C   UNL     1       6.554   5.775  17.580  0.00  0.00    +0.000 A 
ATOM      8 CL   UNL     1       7.418   6.972  16.686  0.00  0.00    +0.000 Cl
ATOM      9  C   UNL     1       5.818   4.765  16.993  0.00  0.00    +0.000 A 
BRANCH   9  10
ATOM     10  C   UNL     1       5.696   4.665  15.529  0.00  0.00    +0.000 C 
ATOM     11  N   UNL     1       6.240   3.696  14.858  0.00  0.00    +0.000 NA
BRANCH  11  12
ATOM     12  O   UNL     1       5.942   3.864  13.502  0.00  0.00    +0.000 OA
ATOM     13  H   UNL     1       6.731   4.328  13.163  0.00  0.00    +0.000 HD
ENDBRANCH  11  12
ENDBRANCH   9  10
ENDBRANCH   1   3
BRANCH   1  14
ATOM     14  C   UNL     1       3.638   1.983  18.209  0.00  0.00    +0.000 C 
BRANCH  14  15
ATOM     15  C   UNL     1       2.254   2.066  17.549  0.00  0.00    +0.000 C 
BRANCH  15  16
ATOM     16  C   UNL     1       1.159   2.659  18.444  0.00  0.00    +0.000 C 
BRANCH  16  22
ATOM     17  C   UNL     1       1.671   4.436  20.231  0.00  0.00    +0.000 A 
ATOM     18  C   UNL     1       2.219   5.684  20.561  0.00  0.00    +0.000 A 
ATOM     19  C   UNL     1       2.525   6.611  19.566  0.00  0.00    +0.000 A 
ATOM     20  C   UNL     1       2.317   6.285  18.233  0.00  0.00    +0.000 A 
ATOM     21  C   UNL     1       1.853   5.011  17.894  0.00  0.00    +0.000 A 
ATOM     22  C   UNL     1       1.541   4.062  18.880  0.00  0.00    +0.000 A 
BRANCH  17  24
ATOM     23  C   UNL     1       2.357   2.795  21.775  0.00  0.00    +0.000 C 
ATOM     24  O   UNL     1       1.285   3.536  21.184  0.00  0.00    +0.000 OA
ENDBRANCH  17  24
ENDBRANCH  16  22
ENDBRANCH  15  16
ENDBRANCH  14  15
ENDBRANCH   1  14
TORSDOF 8
ENDMDL
MODEL 2
REMARK VINA RESULT:      -6.6      2.645      3.777
REMARK  Name = 
REMARK  9 active torsions:
REMARK  status: ('A' for Active; 'I' for Inactive)
REMARK    1  A    between atoms: C_1  and  O_2
REMARK    2  A    between atoms: O_2  and  C_3
REMARK    3  A    between atoms: C_8  and  C_9
REMARK    4  A    between atoms: C_9  and  C_10
REMARK    5  A    between atoms: C_10  and  C_11
REMARK    6  A    between atoms: C_11  and  N_12
REMARK    7  A    between atoms: N_12  and  C_13
REMARK    8  A    between atoms: C_19  and  C_20
REMARK    9  A    between atoms: N_21  and  O_22
REMARK                            x       y       z     vdW  Elec       q    Type
REMARK                         _______ _______ _______ _____ _____    ______ ____
ROOT
ATOM      1  N   UNL     1       4.871   3.671  18.551  0.00  0.00    +0.000 N 
ATOM      2  H   UNL     1       5.001   2.739  18.142  0.00  0.00    +0.000 HD
ENDROOT
BRANCH   1   3
ATOM      3  C   UNL     1       5.374   4.641  17.679  0.00  0.00    +0.000 A 
ATOM      4  N   UNL     1       4.856   4.729  16.437  0.00  0.00    +0.000 NA
ATOM      5  C   UNL     1       5.267   5.747  15.664  0.00  0.00    +0.000 A 
ATOM      6  N   UNL     1       6.127   6.705  16.017  0.00  0.00    +0.000 NA
ATOM      7  C   UNL     1       6.617   6.593  17.265  0.00  0.00    +0.000 A 
ATOM      8 CL   UNL     1       7.722   7.866  17.635  0.00  0.00    +0.000 Cl
ATOM      9  C   UNL     1       6.300   5.576  18.142  0.00  0.00    +0.000 A 
BRANCH   9  10
ATOM     10  C   UNL     1       6.928   5.495  19.472  0.00  0.00    +0.000 C 
ATOM     11  N   UNL     1       8.164   5.130  19.627  0.00  0.00    +0.000 NA
BRANCH  11  12
ATOM     12  O   UNL     1       8.475   5.162  20.990  0.00  0.00    +0.000 OA
ATOM     13  H   UNL     1       9.160   4.472  21.072  0.00  0.00    +0.000 HD
ENDBRANCH  11  12
ENDBRANCH   9  10
ENDBRANCH   1   3
BRANCH   1  14
ATOM     14  C   UNL     1       3.570   3.855  19.184  0.00  0.00    +0.000 C 
BRANCH  14  15
ATOM     15  C   UNL     1       3.594   5.215  19.897  0.00  0.00    +0.000 C 
BRANCH  15  16
ATOM     16  C   UNL     1       2.209   5.771  20.250  0.00  0.00    +0.000 C 
BRANCH  16  22
ATOM     17  C   UNL     1       1.389   8.207  20.176  0.00  0.00    +0.000 A 
ATOM     18  C   UNL     1       1.390   9.456  19.537  0.00  0.00    +0.000 A 
ATOM     19  C   UNL     1       1.862   9.586  18.232  0.00  0.00    +0.000 A 
ATOM     20  C   UNL     1       2.367   8.476  17.568  0.00  0.00    +0.000 A 
ATOM     21  C   UNL     1       2.448   7.248  18.231  0.00  0.00    +0.000 A 
ATOM     22  C   UNL     1       1.981   7.096  19.546  0.00  0.00    +0.000 A 
BRANCH  17  24
ATOM     23  C   UNL     1       0.926   9.180  22.270  0.00  0.00    +0.000 C 
ATOM     24  O   UNL     1       0.860   8.029  21.423  0.00  0.00    +0.000 OA
ENDBRANCH  17  24
ENDBRANCH  16  22
ENDBRANCH  15  16
ENDBRANCH  14  15
ENDBRANCH   1  14
TORSDOF 8
ENDMDL
MODEL 3
REMARK VINA RESULT:      -6.6      5.777      8.321
REMARK  Name = 
REMARK  9 active torsions:
REMARK  status: ('A' for Active; 'I' for Inactive)
REMARK    1  A    between atoms: C_1  and  O_2
REMARK    2  A    between atoms: O_2  and  C_3
REMARK    3  A    between atoms: C_8  and  C_9
REMARK    4  A    between atoms: C_9  and  C_10
REMARK    5  A    between atoms: C_10  and  C_11
REMARK    6  A    between atoms: C_11  and  N_12
REMARK    7  A    between atoms: N_12  and  C_13
REMARK    8  A    between atoms: C_19  and  C_20
REMARK    9  A    between atoms: N_21  and  O_22
REMARK                            x       y       z     vdW  Elec       q    Type
REMARK                         _______ _______ _______ _____ _____    ______ ____
ROOT
ATOM      1  N   UNL     1       7.713   7.229  17.106  0.00  0.00    +0.000 N 
ATOM      2  H   UNL     1       8.513   6.753  17.538  0.00  0.00    +0.000 HD
ENDROOT
BRANCH   1   3
ATOM      3  C   UNL     1       6.693   6.305  16.862  0.00  0.00    +0.000 A 
ATOM      4  N   UNL     1       6.192   6.206  15.613  0.00  0.00    +0.000 NA
ATOM      5  C   UNL     1       5.303   5.227  15.377  0.00  0.00    +0.000 A 
ATOM      6  N   UNL     1       4.883   4.318  16.259  0.00  0.00    +0.000 NA
ATOM      7  C   UNL     1       5.408   4.440  17.491  0.00  0.00    +0.000 A 
ATOM      8 CL   UNL     1       4.807   3.231  18.566  0.00  0.00    +0.000 Cl
ATOM      9  C   UNL     1       6.302   5.421  17.868  0.00  0.00    +0.000 A 
BRANCH   9  10
ATOM     10  C   UNL     1       6.785   5.519  19.256  0.00  0.00    +0.000 C 
ATOM     11  N   UNL     1       8.002   5.208  19.584  0.00  0.00    +0.000 NA
BRANCH  11  12
ATOM     12  O   UNL     1       8.164   5.413  20.957  0.00  0.00    +0.000 OA
ATOM     13  H   UNL     1       7.862   4.568  21.340  0.00  0.00    +0.000 HD
ENDBRANCH  11  12
ENDBRANCH   9  10
ENDBRANCH   1   3
BRANCH   1  14
ATOM     14  C   UNL     1       7.405   8.520  17.710  0.00  0.00    +0.000 C 
BRANCH  14  15
ATOM     15  C   UNL     1       8.720   9.307  17.810  0.00  0.00    +0.000 C 
BRANCH  15  16
ATOM     16  C   UNL     1       9.022   9.864  19.206  0.00  0.00    +0.000 C 
BRANCH  16  22
ATOM     17  C   UNL     1      10.335  11.833  20.211  0.00  0.00    +0.000 A 
ATOM     18  C   UNL     1      11.374  12.769  20.094  0.00  0.00    +0.000 A 
ATOM     19  C   UNL     1      11.980  13.007  18.861  0.00  0.00    +0.000 A 
ATOM     20  C   UNL     1      11.576  12.288  17.744  0.00  0.00    +0.000 A 
ATOM     21  C   UNL     1      10.602  11.294  17.874  0.00  0.00    +0.000 A 
ATOM     22  C   UNL     1       9.981  11.036  19.106  0.00  0.00    +0.000 A 
BRANCH  17  24
ATOM     23  C   UNL     1       9.004  12.794  21.900  0.00  0.00    +0.000 C 
ATOM     24  O   UNL     1       9.665  11.634  21.385  0.00  0.00    +0.000 OA
ENDBRANCH  17  24
ENDBRANCH  16  22
ENDBRANCH  15  16
ENDBRANCH  14  15
ENDBRANCH   1  14
TORSDOF 8
ENDMDL
MODEL 4
REMARK VINA RESULT:      -6.5      2.106      2.829
REMARK  Name = 
REMARK  9 active torsions:
REMARK  status: ('A' for Active; 'I' for Inactive)
REMARK    1  A    between atoms: C_1  and  O_2
REMARK    2  A    between atoms: O_2  and  C_3
REMARK    3  A    between atoms: C_8  and  C_9
REMARK    4  A    between atoms: C_9  and  C_10
REMARK    5  A    between atoms: C_10  and  C_11
REMARK    6  A    between atoms: C_11  and  N_12
REMARK    7  A    between atoms: N_12  and  C_13
REMARK    8  A    between atoms: C_19  and  C_20
REMARK    9  A    between atoms: N_21  and  O_22
REMARK                            x       y       z     vdW  Elec       q    Type
REMARK                         _______ _______ _______ _____ _____    ______ ____
ROOT
ATOM      1  N   UNL     1       5.979   3.602  18.015  0.00  0.00    +0.000 N 
ATOM      2  H   UNL     1       6.246   2.860  17.359  0.00  0.00    +0.000 HD
ENDROOT
BRANCH   1   3
ATOM      3  C   UNL     1       6.057   4.843  17.378  0.00  0.00    +0.000 A 
ATOM      4  N   UNL     1       5.234   5.093  16.339  0.00  0.00    +0.000 NA
ATOM      5  C   UNL     1       5.241   6.334  15.826  0.00  0.00    +0.000 A 
ATOM      6  N   UNL     1       5.971   7.362  16.265  0.00  0.00    +0.000 NA
ATOM      7  C   UNL     1       6.773   7.081  17.308  0.00  0.00    +0.000 A 
ATOM      8 CL   UNL     1       7.683   8.461  17.806  0.00  0.00    +0.000 Cl
ATOM      9  C   UNL     1       6.881   5.840  17.901  0.00  0.00    +0.000 A 
BRANCH   9  10
ATOM     10  C   UNL     1       7.830   5.602  19.003  0.00  0.00    +0.000 C 
ATOM     11  N   UNL     1       7.431   5.275  20.194  0.00  0.00    +0.000 NA
BRANCH  11  12
ATOM     12  O   UNL     1       8.552   5.106  21.013  0.00  0.00    +0.000 OA
ATOM     13  H   UNL     1       8.720   4.146  20.954  0.00  0.00    +0.000 HD
ENDBRANCH  11  12
ENDBRANCH   9  10
ENDBRANCH   1   3
BRANCH   1  14
ATOM     14  C   UNL     1       4.819   3.268  18.834  0.00  0.00    +0.000 C 
BRANCH  14  15
ATOM     15  C   UNL     1       3.848   2.468  17.953  0.00  0.00    +0.000 C 
BRANCH  15  16
ATOM     16  C   UNL     1       2.368   2.805  18.170  0.00  0.00    +0.000 C 
BRANCH  16  22
ATOM     17  C   UNL     1       2.305   4.437  20.156  0.00  0.00    +0.000 A 
ATOM     18  C   UNL     1       2.371   5.756  20.630  0.00  0.00    +0.000 A 
ATOM     19  C   UNL     1       2.238   6.832  19.754  0.00  0.00    +0.000 A 
ATOM     20  C   UNL     1       2.073   6.598  18.395  0.00  0.00    +0.000 A 
ATOM     21  C   UNL     1       2.095   5.289  17.908  0.00  0.00    +0.000 A 
ATOM     22  C   UNL     1       2.230   4.191  18.772  0.00  0.00    +0.000 A 
BRANCH  17  24
ATOM     23  C   UNL     1       1.076   2.927  21.481  0.00  0.00    +0.000 C 
ATOM     24  O   UNL     1       2.351   3.360  20.996  0.00  0.00    +0.000 OA
ENDBRANCH  17  24
ENDBRANCH  16  22
ENDBRANCH  15  16
ENDBRANCH  14  15
ENDBRANCH   1  14
TORSDOF 8
ENDMDL
MODEL 5
REMARK VINA RESULT:      -6.4      5.687      8.210
REMARK  Name = 
REMARK  9 active torsions:
REMARK  status: ('A' for Active; 'I' for Inactive)
REMARK    1  A    between atoms: C_1  and  O_2
REMARK    2  A    between atoms: O_2  and  C_3
REMARK    3  A    between atoms: C_8  and  C_9
REMARK    4  A    between atoms: C_9  and  C_10
REMARK    5  A    between atoms: C_10  and  C_11
REMARK    6  A    between atoms: C_11  and  N_12
REMARK    7  A    between atoms: N_12  and  C_13
REMARK    8  A    between atoms: C_19  and  C_20
REMARK    9  A    between atoms: N_21  and  O_22
REMARK                            x       y       z     vdW  Elec       q    Type
REMARK                         _______ _______ _______ _____ _____    ______ ____
ROOT
ATOM      1  N   UNL     1       6.756   7.676  17.143  0.00  0.00    +0.000 N 
ATOM      2  H   UNL     1       6.621   8.409  16.438  0.00  0.00    +0.000 HD
ENDROOT
BRANCH   1   3
ATOM      3  C   UNL     1       6.398   6.437  16.606  0.00  0.00    +0.000 A 
ATOM      4  N   UNL     1       7.266   5.807  15.788  0.00  0.00    +0.000 NA
ATOM      5  C   UNL     1       6.952   4.565  15.387  0.00  0.00    +0.000 A 
ATOM      6  N   UNL     1       5.866   3.875  15.744  0.00  0.00    +0.000 NA
ATOM      7  C   UNL     1       5.026   4.528  16.567  0.00  0.00    +0.000 A 
ATOM      8 CL   UNL     1       3.650   3.567  16.971  0.00  0.00    +0.000 Cl
ATOM      9  C   UNL     1       5.219   5.817  17.021  0.00  0.00    +0.000 A 
BRANCH   9  10
ATOM     10  C   UNL     1       4.219   6.481  17.875  0.00  0.00    +0.000 C 
ATOM     11  N   UNL     1       3.522   7.492  17.456  0.00  0.00    +0.000 NA
BRANCH  11  12
ATOM     12  O   UNL     1       2.655   7.895  18.477  0.00  0.00    +0.000 OA
ATOM     13  H   UNL     1       2.227   7.058  18.741  0.00  0.00    +0.000 HD
ENDBRANCH  11  12
ENDBRANCH   9  10
ENDBRANCH   1   3
BRANCH   1  14
ATOM     14  C   UNL     1       7.993   7.817  17.903  0.00  0.00    +0.000 C 
BRANCH  14  15
ATOM     15  C   UNL     1       8.311   9.317  17.990  0.00  0.00    +0.000 C 
BRANCH  15  16
ATOM     16  C   UNL     1       8.991   9.748  19.295  0.00  0.00    +0.000 C 
BRANCH  16  22
ATOM     17  C   UNL     1      10.260  11.832  20.107  0.00  0.00    +0.000 A 
ATOM     18  C   UNL     1      11.196  12.845  19.849  0.00  0.00    +0.000 A 
ATOM     19  C   UNL     1      11.615  13.109  18.547  0.00  0.00    +0.000 A 
ATOM     20  C   UNL     1      11.128  12.342  17.497  0.00  0.00    +0.000 A 
ATOM     21  C   UNL     1      10.263  11.276  17.759  0.00  0.00    +0.000 A 
ATOM     22  C   UNL     1       9.831  10.991  19.063  0.00  0.00    +0.000 A 
BRANCH  17  24
ATOM     23  C   UNL     1       9.270  12.761  22.031  0.00  0.00    +0.000 C 
ATOM     24  O   UNL     1       9.766  11.599  21.360  0.00  0.00    +0.000 OA
ENDBRANCH  17  24
ENDBRANCH  16  22
ENDBRANCH  15  16
ENDBRANCH  14  15
ENDBRANCH   1  14
TORSDOF 8
ENDMDL
MODEL 6
REMARK VINA RESULT:      -6.3      2.301      3.507
REMARK  Name = 
REMARK  9 active torsions:
REMARK  status: ('A' for Active; 'I' for Inactive)
REMARK    1  A    between atoms: C_1  and  O_2
REMARK    2  A    between atoms: O_2  and  C_3
REMARK    3  A    between atoms: C_8  and  C_9
REMARK    4  A    between atoms: C_9  and  C_10
REMARK    5  A    between atoms: C_10  and  C_11
REMARK    6  A    between atoms: C_11  and  N_12
REMARK    7  A    between atoms: N_12  and  C_13
REMARK    8  A    between atoms: C_19  and  C_20
REMARK    9  A    between atoms: N_21  and  O_22
REMARK                            x       y       z     vdW  Elec       q    Type
REMARK                         _______ _______ _______ _____ _____    ______ ____
ROOT
ATOM      1  N   UNL     1       6.076   3.808  17.946  0.00  0.00    +0.000 N 
ATOM      2  H   UNL     1       6.552   3.110  17.364  0.00  0.00    +0.000 HD
ENDROOT
BRANCH   1   3
ATOM      3  C   UNL     1       6.207   5.073  17.365  0.00  0.00    +0.000 A 
ATOM      4  N   UNL     1       5.430   5.386  16.309  0.00  0.00    +0.000 NA
ATOM      5  C   UNL     1       5.486   6.647  15.850  0.00  0.00    +0.000 A 
ATOM      6  N   UNL     1       6.224   7.636  16.357  0.00  0.00    +0.000 NA
ATOM      7  C   UNL     1       6.981   7.292  17.415  0.00  0.00    +0.000 A 
ATOM      8 CL   UNL     1       7.905   8.626  18.001  0.00  0.00    +0.000 Cl
ATOM      9  C   UNL     1       7.037   6.025  17.957  0.00  0.00    +0.000 A 
BRANCH   9  10
ATOM     10  C   UNL     1       7.939   5.718  19.081  0.00  0.00    +0.000 C 
ATOM     11  N   UNL     1       7.493   5.293  20.223  0.00  0.00    +0.000 NA
BRANCH  11  12
ATOM     12  O   UNL     1       8.578   5.078  21.079  0.00  0.00    +0.000 OA
ATOM     13  H   UNL     1       8.373   5.657  21.838  0.00  0.00    +0.000 HD
ENDBRANCH  11  12
ENDBRANCH   9  10
ENDBRANCH   1   3
BRANCH   1  14
ATOM     14  C   UNL     1       4.783   3.364  18.453  0.00  0.00    +0.000 C 
BRANCH  14  15
ATOM     15  C   UNL     1       4.000   2.778  17.269  0.00  0.00    +0.000 C 
BRANCH  15  16
ATOM     16  C   UNL     1       2.478   2.782  17.450  0.00  0.00    +0.000 C 
BRANCH  16  22
ATOM     17  C   UNL     1       1.814   4.520  19.225  0.00  0.00    +0.000 A 
ATOM     18  C   UNL     1       1.298   4.798  20.501  0.00  0.00    +0.000 A 
ATOM     19  C   UNL     1       1.198   3.793  21.461  0.00  0.00    +0.000 A 
ATOM     20  C   UNL     1       1.582   2.496  21.144  0.00  0.00    +0.000 A 
ATOM     21  C   UNL     1       2.014   2.197  19.849  0.00  0.00    +0.000 A 
ATOM     22  C   UNL     1       2.119   3.193  18.866  0.00  0.00    +0.000 A 
BRANCH  17  24
ATOM     23  C   UNL     1       2.943   6.508  18.659  0.00  0.00    +0.000 C 
ATOM     24  O   UNL     1       2.001   5.496  18.288  0.00  0.00    +0.000 OA
ENDBRANCH  17  24
ENDBRANCH  16  22
ENDBRANCH  15  16
ENDBRANCH  14  15
ENDBRANCH   1  14
TORSDOF 8
ENDMDL
MODEL 7
REMARK VINA RESULT:      -6.2      1.199      1.341
REMARK  Name = 
REMARK  9 active torsions:
REMARK  status: ('A' for Active; 'I' for Inactive)
REMARK    1  A    between atoms: C_1  and  O_2
REMARK    2  A    between atoms: O_2  and  C_3
REMARK    3  A    between atoms: C_8  and  C_9
REMARK    4  A    between atoms: C_9  and  C_10
REMARK    5  A    between atoms: C_10  and  C_11
REMARK    6  A    between atoms: C_11  and  N_12
REMARK    7  A    between atoms: N_12  and  C_13
REMARK    8  A    between atoms: C_19  and  C_20
REMARK    9  A    between atoms: N_21  and  O_22
REMARK                            x       y       z     vdW  Elec       q    Type
REMARK                         _______ _______ _______ _____ _____    ______ ____
ROOT
ATOM      1  N   UNL     1       5.777   3.462  16.692  0.00  0.00    +0.000 N 
ATOM      2  H   UNL     1       6.409   3.366  15.890  0.00  0.00    +0.000 HD
ENDROOT
BRANCH   1   3
ATOM      3  C   UNL     1       6.209   4.511  17.509  0.00  0.00    +0.000 A 
ATOM      4  N   UNL     1       6.149   4.359  18.847  0.00  0.00    +0.000 NA
ATOM      5  C   UNL     1       6.685   5.328  19.607  0.00  0.00    +0.000 A 
ATOM      6  N   UNL     1       7.300   6.426  19.161  0.00  0.00    +0.000 NA
ATOM      7  C   UNL     1       7.350   6.542  17.822  0.00  0.00    +0.000 A 
ATOM      8 CL   UNL     1       8.155   7.988  17.335  0.00  0.00    +0.000 Cl
ATOM      9  C   UNL     1       6.808   5.633  16.937  0.00  0.00    +0.000 A 
BRANCH   9  10
ATOM     10  C   UNL     1       6.855   5.866  15.483  0.00  0.00    +0.000 C 
ATOM     11  N   UNL     1       7.611   5.160  14.698  0.00  0.00    +0.000 NA
BRANCH  11  12
ATOM     12  O   UNL     1       7.433   5.602  13.384  0.00  0.00    +0.000 OA
ATOM     13  H   UNL     1       8.299   5.999  13.170  0.00  0.00    +0.000 HD
ENDBRANCH  11  12
ENDBRANCH   9  10
ENDBRANCH   1   3
BRANCH   1  14
ATOM     14  C   UNL     1       4.366   3.336  16.343  0.00  0.00    +0.000 C 
BRANCH  14  15
ATOM     15  C   UNL     1       3.617   2.890  17.607  0.00  0.00    +0.000 C 
BRANCH  15  16
ATOM     16  C   UNL     1       2.155   3.348  17.674  0.00  0.00    +0.000 C 
BRANCH  16  22
ATOM     17  C   UNL     1       1.490   4.502  19.873  0.00  0.00    +0.000 A 
ATOM     18  C   UNL     1       1.585   5.614  20.723  0.00  0.00    +0.000 A 
ATOM     19  C   UNL     1       2.098   6.823  20.255  0.00  0.00    +0.000 A 
ATOM     20  C   UNL     1       2.550   6.919  18.946  0.00  0.00    +0.000 A 
ATOM     21  C   UNL     1       2.537   5.791  18.122  0.00  0.00    +0.000 A 
ATOM     22  C   UNL     1       2.028   4.563  18.574  0.00  0.00    +0.000 A 
BRANCH  17  24
ATOM     23  C   UNL     1       1.502   2.751  21.448  0.00  0.00    +0.000 C 
ATOM     24  O   UNL     1       0.919   3.327  20.275  0.00  0.00    +0.000 OA
ENDBRANCH  17  24
ENDBRANCH  16  22
ENDBRANCH  15  16
ENDBRANCH  14  15
ENDBRANCH   1  14
TORSDOF 8
ENDMDL
MODEL 8
REMARK VINA RESULT:      -6.1      5.417      8.427
REMARK  Name = 
REMARK  9 active torsions:
REMARK  status: ('A' for Active; 'I' for Inactive)
REMARK    1  A    between atoms: C_1  and  O_2
REMARK    2  A    between atoms: O_2  and  C_3
REMARK    3  A    between atoms: C_8  and  C_9
REMARK    4  A    between atoms: C_9  and  C_10
REMARK    5  A    between atoms: C_10  and  C_11
REMARK    6  A    between atoms: C_11  and  N_12
REMARK    7  A    between atoms: N_12  and  C_13
REMARK    8  A    between atoms: C_19  and  C_20
REMARK    9  A    between atoms: N_21  and  O_22
REMARK                            x       y       z     vdW  Elec       q    Type
REMARK                         _______ _______ _______ _____ _____    ______ ____
ROOT
ATOM      1  N   UNL     1       7.398   6.838  17.939  0.00  0.00    +0.000 N 
ATOM      2  H   UNL     1       7.091   6.679  18.905  0.00  0.00    +0.000 HD
ENDROOT
BRANCH   1   3
ATOM      3  C   UNL     1       6.833   5.872  17.101  0.00  0.00    +0.000 A 
ATOM      4  N   UNL     1       7.430   5.606  15.921  0.00  0.00    +0.000 NA
ATOM      5  C   UNL     1       6.941   4.589  15.194  0.00  0.00    +0.000 A 
ATOM      6  N   UNL     1       5.929   3.791  15.539  0.00  0.00    +0.000 NA
ATOM      7  C   UNL     1       5.362   4.077  16.725  0.00  0.00    +0.000 A 
ATOM      8 CL   UNL     1       4.061   3.003  17.089  0.00  0.00    +0.000 Cl
ATOM      9  C   UNL     1       5.750   5.115  17.548  0.00  0.00    +0.000 A 
BRANCH   9  10
ATOM     10  C   UNL     1       5.036   5.397  18.805  0.00  0.00    +0.000 C 
ATOM     11  N   UNL     1       3.835   5.887  18.818  0.00  0.00    +0.000 NA
BRANCH  11  12
ATOM     12  O   UNL     1       3.422   6.032  20.147  0.00  0.00    +0.000 OA
ATOM     13  H   UNL     1       4.150   5.616  20.646  0.00  0.00    +0.000 HD
ENDBRANCH  11  12
ENDBRANCH   9  10
ENDBRANCH   1   3
BRANCH   1  14
ATOM     14  C   UNL     1       7.393   8.243  17.547  0.00  0.00    +0.000 C 
BRANCH  14  15
ATOM     15  C   UNL     1       8.510   8.944  18.334  0.00  0.00    +0.000 C 
BRANCH  15  16
ATOM     16  C   UNL     1       8.843  10.357  17.841  0.00  0.00    +0.000 C 
BRANCH  16  22
ATOM     17  C   UNL     1      10.687  11.983  18.593  0.00  0.00    +0.000 A 
ATOM     18  C   UNL     1      11.234  12.798  19.596  0.00  0.00    +0.000 A 
ATOM     19  C   UNL     1      10.824  12.666  20.921  0.00  0.00    +0.000 A 
ATOM     20  C   UNL     1       9.840  11.743  21.249  0.00  0.00    +0.000 A 
ATOM     21  C   UNL     1       9.230  10.990  20.242  0.00  0.00    +0.000 A 
ATOM     22  C   UNL     1       9.626  11.110  18.901  0.00  0.00    +0.000 A 
BRANCH  17  24
ATOM     23  C   UNL     1      11.405  13.346  16.812  0.00  0.00    +0.000 C 
ATOM     24  O   UNL     1      11.123  12.030  17.299  0.00  0.00    +0.000 OA
ENDBRANCH  17  24
ENDBRANCH  16  22
ENDBRANCH  15  16
ENDBRANCH  14  15
ENDBRANCH   1  14
TORSDOF 8
ENDMDL
MODEL 9
REMARK VINA RESULT:      -6.0      4.060      5.493
REMARK  Name = 
REMARK  9 active torsions:
REMARK  status: ('A' for Active; 'I' for Inactive)
REMARK    1  A    between atoms: C_1  and  O_2
REMARK    2  A    between atoms: O_2  and  C_3
REMARK    3  A    between atoms: C_8  and  C_9
REMARK    4  A    between atoms: C_9  and  C_10
REMARK    5  A    between atoms: C_10  and  C_11
REMARK    6  A    between atoms: C_11  and  N_12
REMARK    7  A    between atoms: N_12  and  C_13
REMARK    8  A    between atoms: C_19  and  C_20
REMARK    9  A    between atoms: N_21  and  O_22
REMARK                            x       y       z     vdW  Elec       q    Type
REMARK                         _______ _______ _______ _____ _____    ______ ____
ROOT
ATOM      1  N   UNL     1       3.106   6.132  19.323  0.00  0.00    +0.000 N 
ATOM      2  H   UNL     1       3.064   6.687  20.184  0.00  0.00    +0.000 HD
ENDROOT
BRANCH   1   3
ATOM      3  C   UNL     1       2.695   4.823  19.586  0.00  0.00    +0.000 A 
ATOM      4  N   UNL     1       1.506   4.624  20.191  0.00  0.00    +0.000 NA
ATOM      5  C   UNL     1       1.078   3.357  20.319  0.00  0.00    +0.000 A 
ATOM      6  N   UNL     1       1.710   2.267  19.879  0.00  0.00    +0.000 NA
ATOM      7  C   UNL     1       2.888   2.501  19.273  0.00  0.00    +0.000 A 
ATOM      8 CL   UNL     1       3.637   1.039  18.744  0.00  0.00    +0.000 Cl
ATOM      9  C   UNL     1       3.450   3.750  19.111  0.00  0.00    +0.000 A 
BRANCH   9  10
ATOM     10  C   UNL     1       4.775   3.914  18.488  0.00  0.00    +0.000 C 
ATOM     11  N   UNL     1       5.818   4.266  19.174  0.00  0.00    +0.000 NA
BRANCH  11  12
ATOM     12  O   UNL     1       6.922   4.325  18.317  0.00  0.00    +0.000 OA
ATOM     13  H   UNL     1       7.279   3.418  18.363  0.00  0.00    +0.000 HD
ENDBRANCH  11  12
ENDBRANCH   9  10
ENDBRANCH   1   3
BRANCH   1  14
ATOM     14  C   UNL     1       2.604   6.837  18.148  0.00  0.00    +0.000 C 
BRANCH  14  15
ATOM     15  C   UNL     1       2.286   8.277  18.577  0.00  0.00    +0.000 C 
BRANCH  15  16
ATOM     16  C   UNL     1       1.610   8.397  19.947  0.00  0.00    +0.000 C 
BRANCH  16  22
ATOM     17  C   UNL     1       0.487  10.381  21.136  0.00  0.00    +0.000 A 
ATOM     18  C   UNL     1      -0.204  11.599  21.048  0.00  0.00    +0.000 A 
ATOM     19  C   UNL     1      -0.792  11.998  19.849  0.00  0.00    +0.000 A 
ATOM     20  C   UNL     1      -0.664  11.199  18.721  0.00  0.00    +0.000 A 
ATOM     21  C   UNL     1       0.096  10.028  18.781  0.00  0.00    +0.000 A 
ATOM     22  C   UNL     1       0.699   9.610  19.978  0.00  0.00    +0.000 A 
BRANCH  17  24
ATOM     23  C   UNL     1       0.029   9.491  23.268  0.00  0.00    +0.000 C 
ATOM     24  O   UNL     1       1.005   9.922  22.314  0.00  0.00    +0.000 OA
ENDBRANCH  17  24
ENDBRANCH  16  22
ENDBRANCH  15  16
ENDBRANCH  14  15
ENDBRANCH   1  14
TORSDOF 8
ENDMDL
