MODEL 1
REMARK VINA RESULT:      -6.6      0.000      0.000
REMARK  Name = 
REMARK  15 active torsions:
REMARK  status: ('A' for Active; 'I' for Inactive)
REMARK    1  A    between atoms: C_1  and  C_2
REMARK    2  A    between atoms: C_2  and  O_3
REMARK    3  A    between atoms: O_3  and  C_4
REMARK    4  A    between atoms: C_4  and  C_6
REMARK    5  A    between atoms: C_10  and  C_12
REMARK    6  A    between atoms: C_12  and  S_13
REMARK    7  A    between atoms: S_13  and  C_14
REMARK    8  A    between atoms: C_14  and  C_15
REMARK    9  A    between atoms: C_15  and  S_16
REMARK   10  A    between atoms: S_16  and  C_17
REMARK   11  A    between atoms: C_17  and  C_18
REMARK   12  A    between atoms: C_23  and  C_24
REMARK   13  A    between atoms: C_24  and  O_26
REMARK   14  A    between atoms: O_26  and  C_27
REMARK   15  A    between atoms: C_27  and  C_28
REMARK                            x       y       z     vdW  Elec       q    Type
REMARK                         _______ _______ _______ _____ _____    ______ ____
ROOT
ATOM      1  C   UNL     1       1.230   4.682  19.792  0.00  0.00    +0.000 C 
ENDROOT
BRANCH   1   2
ATOM      2  S   UNL     1       1.822   5.633  18.352  0.00  0.00    +0.000 S 
BRANCH   2   3
ATOM      3  C   UNL     1       2.502   7.109  19.189  0.00  0.00    +0.000 C 
BRANCH   3   8
ATOM      4  C   UNL     1       0.613  11.564  20.873  0.00  0.00    +0.000 C 
ATOM      5  C   UNL     1       1.102  11.664  19.419  0.00  0.00    +0.000 C 
ATOM      6  C   UNL     1       0.671  10.448  18.599  0.00  0.00    +0.000 C 
ATOM      7  N   UNL     1       1.142   9.227  19.244  0.00  0.00    +0.000 N 
ATOM      8  C   UNL     1       1.975   8.375  18.525  0.00  0.00    +0.000 C 
ATOM      9  O   UNL     1       2.294   8.616  17.356  0.00  0.00    +0.000 OA
ATOM     10  C   UNL     1       0.669   9.026  20.612  0.00  0.00    +0.000 C 
ATOM     11  C   UNL     1       1.024  10.222  21.495  0.00  0.00    +0.000 C 
BRANCH   4  12
ATOM     12  C   UNL     1      -0.891  11.770  20.922  0.00  0.00    +0.000 C 
ATOM     13  O   UNL     1      -1.556  12.358  20.082  0.00  0.00    +0.000 OA
BRANCH  12  14
ATOM     14  O   UNL     1      -1.369  11.262  22.089  0.00  0.00    +0.000 OA
BRANCH  14  16
ATOM     15  C   UNL     1      -3.172  12.245  23.303  0.00  0.00    +0.000 C 
ATOM     16  C   UNL     1      -1.665  12.215  23.119  0.00  0.00    +0.000 C 
ENDBRANCH  14  16
ENDBRANCH  12  14
ENDBRANCH   4  12
ENDBRANCH   3   8
ENDBRANCH   2   3
ENDBRANCH   1   2
BRANCH   1  17
ATOM     17  C   UNL     1       2.251   4.406  20.899  0.00  0.00    +0.000 C 
BRANCH  17  18
ATOM     18  S   UNL     1       2.505   2.622  21.212  0.00  0.00    +0.000 S 
BRANCH  18  19
ATOM     19  C   UNL     1       4.204   2.463  20.585  0.00  0.00    +0.000 C 
BRANCH  19  20
ATOM     20  C   UNL     1       4.231   2.524  19.065  0.00  0.00    +0.000 C 
ATOM     21  O   UNL     1       3.848   1.544  18.416  0.00  0.00    +0.000 OA
ATOM     22  N   UNL     1       4.685   3.685  18.447  0.00  0.00    +0.000 N 
ATOM     23  C   UNL     1       4.608   3.794  16.992  0.00  0.00    +0.000 C 
ATOM     24  C   UNL     1       5.986   4.075  16.392  0.00  0.00    +0.000 C 
ATOM     25  C   UNL     1       6.648   5.306  17.036  0.00  0.00    +0.000 C 
ATOM     26  C   UNL     1       6.684   5.112  18.563  0.00  0.00    +0.000 C 
ATOM     27  C   UNL     1       5.287   4.834  19.127  0.00  0.00    +0.000 C 
BRANCH  25  28
ATOM     28  C   UNL     1       5.945   6.620  16.699  0.00  0.00    +0.000 C 
ATOM     29  O   UNL     1       4.770   6.695  16.364  0.00  0.00    +0.000 OA
BRANCH  28  30
ATOM     30  O   UNL     1       6.790   7.681  16.797  0.00  0.00    +0.000 OA
BRANCH  30  31
ATOM     31  C   UNL     1       7.831   7.575  17.779  0.00  0.00    +0.000 C 
ATOM     32  C   UNL     1       8.372   8.940  18.148  0.00  0.00    +0.000 C 
ENDBRANCH  30  31
ENDBRANCH  28  30
ENDBRANCH  25  28
ENDBRANCH  19  20
ENDBRANCH  18  19
ENDBRANCH  17  18
ENDBRANCH   1  17
TORSDOF 13
ENDMDL
MODEL 2
REMARK VINA RESULT:      -6.6      1.753      2.549
REMARK  Name = 
REMARK  15 active torsions:
REMARK  status: ('A' for Active; 'I' for Inactive)
REMARK    1  A    between atoms: C_1  and  C_2
REMARK    2  A    between atoms: C_2  and  O_3
REMARK    3  A    between atoms: O_3  and  C_4
REMARK    4  A    between atoms: C_4  and  C_6
REMARK    5  A    between atoms: C_10  and  C_12
REMARK    6  A    between atoms: C_12  and  S_13
REMARK    7  A    between atoms: S_13  and  C_14
REMARK    8  A    between atoms: C_14  and  C_15
REMARK    9  A    between atoms: C_15  and  S_16
REMARK   10  A    between atoms: S_16  and  C_17
REMARK   11  A    between atoms: C_17  and  C_18
REMARK   12  A    between atoms: C_23  and  C_24
REMARK   13  A    between atoms: C_24  and  O_26
REMARK   14  A    between atoms: O_26  and  C_27
REMARK   15  A    between atoms: C_27  and  C_28
REMARK                            x       y       z     vdW  Elec       q    Type
REMARK                         _______ _______ _______ _____ _____    ______ ____
ROOT
ATOM      1  C   UNL     1       1.687   5.083  20.779  0.00  0.00    +0.000 C 
ENDROOT
BRANCH   1   2
ATOM      2  S   UNL     1       2.085   6.665  19.961  0.00  0.00    +0.000 S 
BRANCH   2   3
ATOM      3  C   UNL     1       1.350   7.844  21.149  0.00  0.00    +0.000 C 
BRANCH   3   8
ATOM      4  C   UNL     1      -1.107  12.123  22.526  0.00  0.00    +0.000 C 
ATOM      5  C   UNL     1      -0.407  12.279  21.167  0.00  0.00    +0.000 C 
ATOM      6  C   UNL     1      -0.612  11.046  20.287  0.00  0.00    +0.000 C 
ATOM      7  N   UNL     1      -0.157   9.855  20.995  0.00  0.00    +0.000 N 
ATOM      8  C   UNL     1       0.839   9.076  20.413  0.00  0.00    +0.000 C 
ATOM      9  O   UNL     1       1.318   9.356  19.309  0.00  0.00    +0.000 OA
ATOM     10  C   UNL     1      -0.820   9.600  22.272  0.00  0.00    +0.000 C 
ATOM     11  C   UNL     1      -0.698  10.807  23.203  0.00  0.00    +0.000 C 
BRANCH   4  12
ATOM     12  C   UNL     1      -2.611  12.216  22.340  0.00  0.00    +0.000 C 
ATOM     13  O   UNL     1      -3.181  12.576  21.320  0.00  0.00    +0.000 OA
BRANCH  12  14
ATOM     14  O   UNL     1      -3.222  11.911  23.515  0.00  0.00    +0.000 OA
BRANCH  14  16
ATOM     15  C   UNL     1      -3.595  14.023  24.560  0.00  0.00    +0.000 C 
ATOM     16  C   UNL     1      -4.259  12.805  23.942  0.00  0.00    +0.000 C 
ENDBRANCH  14  16
ENDBRANCH  12  14
ENDBRANCH   4  12
ENDBRANCH   3   8
ENDBRANCH   2   3
ENDBRANCH   1   2
BRANCH   1  17
ATOM     17  C   UNL     1       0.972   4.031  19.927  0.00  0.00    +0.000 C 
BRANCH  17  18
ATOM     18  S   UNL     1       1.544   2.326  20.264  0.00  0.00    +0.000 S 
BRANCH  18  19
ATOM     19  C   UNL     1       2.766   2.168  18.927  0.00  0.00    +0.000 C 
BRANCH  19  20
ATOM     20  C   UNL     1       4.085   2.817  19.316  0.00  0.00    +0.000 C 
ATOM     21  O   UNL     1       4.597   2.537  20.406  0.00  0.00    +0.000 OA
ATOM     22  N   UNL     1       4.683   3.709  18.431  0.00  0.00    +0.000 N 
ATOM     23  C   UNL     1       6.003   4.249  18.746  0.00  0.00    +0.000 C 
ATOM     24  C   UNL     1       5.975   5.778  18.774  0.00  0.00    +0.000 C 
ATOM     25  C   UNL     1       5.401   6.361  17.470  0.00  0.00    +0.000 C 
ATOM     26  C   UNL     1       4.018   5.738  17.210  0.00  0.00    +0.000 C 
ATOM     27  C   UNL     1       4.086   4.207  17.190  0.00  0.00    +0.000 C 
BRANCH  25  28
ATOM     28  C   UNL     1       6.303   6.139  16.257  0.00  0.00    +0.000 C 
ATOM     29  O   UNL     1       7.526   6.130  16.312  0.00  0.00    +0.000 OA
BRANCH  28  30
ATOM     30  O   UNL     1       5.580   5.977  15.116  0.00  0.00    +0.000 OA
BRANCH  30  31
ATOM     31  C   UNL     1       5.772   4.739  14.414  0.00  0.00    +0.000 C 
ATOM     32  C   UNL     1       7.102   4.725  13.691  0.00  0.00    +0.000 C 
ENDBRANCH  30  31
ENDBRANCH  28  30
ENDBRANCH  25  28
ENDBRANCH  19  20
ENDBRANCH  18  19
ENDBRANCH  17  18
ENDBRANCH   1  17
TORSDOF 13
ENDMDL
MODEL 3
REMARK VINA RESULT:      -6.6      1.855      9.372
REMARK  Name = 
REMARK  15 active torsions:
REMARK  status: ('A' for Active; 'I' for Inactive)
REMARK    1  A    between atoms: C_1  and  C_2
REMARK    2  A    between atoms: C_2  and  O_3
REMARK    3  A    between atoms: O_3  and  C_4
REMARK    4  A    between atoms: C_4  and  C_6
REMARK    5  A    between atoms: C_10  and  C_12
REMARK    6  A    between atoms: C_12  and  S_13
REMARK    7  A    between atoms: S_13  and  C_14
REMARK    8  A    between atoms: C_14  and  C_15
REMARK    9  A    between atoms: C_15  and  S_16
REMARK   10  A    between atoms: S_16  and  C_17
REMARK   11  A    between atoms: C_17  and  C_18
REMARK   12  A    between atoms: C_23  and  C_24
REMARK   13  A    between atoms: C_24  and  O_26
REMARK   14  A    between atoms: O_26  and  C_27
REMARK   15  A    between atoms: C_27  and  C_28
REMARK                            x       y       z     vdW  Elec       q    Type
REMARK                         _______ _______ _______ _____ _____    ______ ____
ROOT
ATOM      1  C   UNL     1       1.830   4.903  20.863  0.00  0.00    +0.000 C 
ENDROOT
BRANCH   1   2
ATOM      2  S   UNL     1       1.814   3.464  19.740  0.00  0.00    +0.000 S 
BRANCH   2   3
ATOM      3  C   UNL     1       3.588   3.022  19.747  0.00  0.00    +0.000 C 
BRANCH   3   8
ATOM      4  C   UNL     1       7.684   5.657  18.156  0.00  0.00    +0.000 C 
ATOM      5  C   UNL     1       7.193   4.665  17.089  0.00  0.00    +0.000 C 
ATOM      6  C   UNL     1       5.670   4.686  16.964  0.00  0.00    +0.000 C 
ATOM      7  N   UNL     1       5.065   4.423  18.265  0.00  0.00    +0.000 N 
ATOM      8  C   UNL     1       4.207   3.333  18.390  0.00  0.00    +0.000 C 
ATOM      9  O   UNL     1       3.930   2.613  17.425  0.00  0.00    +0.000 OA
ATOM     10  C   UNL     1       5.433   5.361  19.323  0.00  0.00    +0.000 C 
ATOM     11  C   UNL     1       6.952   5.432  19.487  0.00  0.00    +0.000 C 
BRANCH   4  12
ATOM     12  C   UNL     1       7.511   7.078  17.651  0.00  0.00    +0.000 C 
ATOM     13  O   UNL     1       6.799   7.420  16.718  0.00  0.00    +0.000 OA
BRANCH  12  14
ATOM     14  O   UNL     1       8.335   7.899  18.353  0.00  0.00    +0.000 OA
BRANCH  14  16
ATOM     15  C   UNL     1       9.099  10.053  19.040  0.00  0.00    +0.000 C 
ATOM     16  C   UNL     1       8.287   9.291  18.008  0.00  0.00    +0.000 C 
ENDBRANCH  14  16
ENDBRANCH  12  14
ENDBRANCH   4  12
ENDBRANCH   3   8
ENDBRANCH   2   3
ENDBRANCH   1   2
BRANCH   1  17
ATOM     17  C   UNL     1       2.014   6.277  20.214  0.00  0.00    +0.000 C 
BRANCH  17  18
ATOM     18  S   UNL     1       0.999   7.582  20.999  0.00  0.00    +0.000 S 
BRANCH  18  19
ATOM     19  C   UNL     1       1.689   9.030  20.144  0.00  0.00    +0.000 C 
BRANCH  19  20
ATOM     20  C   UNL     1       0.649   9.672  19.238  0.00  0.00    +0.000 C 
ATOM     21  O   UNL     1       0.696   9.459  18.021  0.00  0.00    +0.000 OA
ATOM     22  N   UNL     1      -0.329  10.483  19.805  0.00  0.00    +0.000 N 
ATOM     23  C   UNL     1      -1.396  11.011  18.959  0.00  0.00    +0.000 C 
ATOM     24  C   UNL     1      -1.443  12.537  19.028  0.00  0.00    +0.000 C 
ATOM     25  C   UNL     1      -1.547  13.039  20.480  0.00  0.00    +0.000 C 
ATOM     26  C   UNL     1      -0.394  12.434  21.301  0.00  0.00    +0.000 C 
ATOM     27  C   UNL     1      -0.380  10.905  21.207  0.00  0.00    +0.000 C 
BRANCH  25  28
ATOM     28  C   UNL     1      -2.882  12.707  21.143  0.00  0.00    +0.000 C 
ATOM     29  O   UNL     1      -3.002  12.433  22.331  0.00  0.00    +0.000 OA
BRANCH  28  30
ATOM     30  O   UNL     1      -3.908  12.734  20.250  0.00  0.00    +0.000 OA
BRANCH  30  31
ATOM     31  C   UNL     1      -4.878  13.777  20.429  0.00  0.00    +0.000 C 
ATOM     32  C   UNL     1      -6.130  13.499  19.625  0.00  0.00    +0.000 C 
ENDBRANCH  30  31
ENDBRANCH  28  30
ENDBRANCH  25  28
ENDBRANCH  19  20
ENDBRANCH  18  19
ENDBRANCH  17  18
ENDBRANCH   1  17
TORSDOF 13
ENDMDL
MODEL 4
REMARK VINA RESULT:      -6.6      4.898      9.865
REMARK  Name = 
REMARK  15 active torsions:
REMARK  status: ('A' for Active; 'I' for Inactive)
REMARK    1  A    between atoms: C_1  and  C_2
REMARK    2  A    between atoms: C_2  and  O_3
REMARK    3  A    between atoms: O_3  and  C_4
REMARK    4  A    between atoms: C_4  and  C_6
REMARK    5  A    between atoms: C_10  and  C_12
REMARK    6  A    between atoms: C_12  and  S_13
REMARK    7  A    between atoms: S_13  and  C_14
REMARK    8  A    between atoms: C_14  and  C_15
REMARK    9  A    between atoms: C_15  and  S_16
REMARK   10  A    between atoms: S_16  and  C_17
REMARK   11  A    between atoms: C_17  and  C_18
REMARK   12  A    between atoms: C_23  and  C_24
REMARK   13  A    between atoms: C_24  and  O_26
REMARK   14  A    between atoms: O_26  and  C_27
REMARK   15  A    between atoms: C_27  and  C_28
REMARK                            x       y       z     vdW  Elec       q    Type
REMARK                         _______ _______ _______ _____ _____    ______ ____
ROOT
ATOM      1  C   UNL     1       9.005   9.866  19.032  0.00  0.00    +0.000 C 
ENDROOT
BRANCH   1   2
ATOM      2  S   UNL     1       7.966   9.000  17.807  0.00  0.00    +0.000 S 
BRANCH   2   3
ATOM      3  C   UNL     1       8.043   7.294  18.457  0.00  0.00    +0.000 C 
BRANCH   3   8
ATOM      4  C   UNL     1       3.629   4.696  18.361  0.00  0.00    +0.000 C 
ATOM      5  C   UNL     1       4.240   4.835  16.957  0.00  0.00    +0.000 C 
ATOM      6  C   UNL     1       5.746   4.578  16.975  0.00  0.00    +0.000 C 
ATOM      7  N   UNL     1       6.387   5.471  17.935  0.00  0.00    +0.000 N 
ATOM      8  C   UNL     1       7.381   6.332  17.478  0.00  0.00    +0.000 C 
ATOM      9  O   UNL     1       7.746   6.333  16.298  0.00  0.00    +0.000 OA
ATOM     10  C   UNL     1       5.904   5.355  19.309  0.00  0.00    +0.000 C 
ATOM     11  C   UNL     1       4.390   5.560  19.376  0.00  0.00    +0.000 C 
BRANCH   4  12
ATOM     12  C   UNL     1       3.610   3.233  18.768  0.00  0.00    +0.000 C 
ATOM     13  O   UNL     1       3.693   2.281  18.005  0.00  0.00    +0.000 OA
BRANCH  12  14
ATOM     14  O   UNL     1       3.409   3.150  20.109  0.00  0.00    +0.000 OA
BRANCH  14  16
ATOM     15  C   UNL     1       1.100   3.598  20.506  0.00  0.00    +0.000 C 
ATOM     16  C   UNL     1       2.184   2.535  20.529  0.00  0.00    +0.000 C 
ENDBRANCH  14  16
ENDBRANCH  12  14
ENDBRANCH   4  12
ENDBRANCH   3   8
ENDBRANCH   2   3
ENDBRANCH   1   2
BRANCH   1  17
ATOM     17  C   UNL     1      10.228  10.611  18.490  0.00  0.00    +0.000 C 
BRANCH  17  18
ATOM     18  S   UNL     1      10.513  12.218  19.317  0.00  0.00    +0.000 S 
BRANCH  18  19
ATOM     19  C   UNL     1       9.078  13.127  18.672  0.00  0.00    +0.000 C 
BRANCH  19  20
ATOM     20  C   UNL     1       8.265  13.735  19.806  0.00  0.00    +0.000 C 
ATOM     21  O   UNL     1       8.546  13.442  20.973  0.00  0.00    +0.000 OA
ATOM     22  N   UNL     1       7.227  14.609  19.496  0.00  0.00    +0.000 N 
ATOM     23  C   UNL     1       6.516  15.284  20.579  0.00  0.00    +0.000 C 
ATOM     24  C   UNL     1       5.017  14.993  20.513  0.00  0.00    +0.000 C 
ATOM     25  C   UNL     1       4.431  15.331  19.130  0.00  0.00    +0.000 C 
ATOM     26  C   UNL     1       5.238  14.586  18.050  0.00  0.00    +0.000 C 
ATOM     27  C   UNL     1       6.733  14.903  18.149  0.00  0.00    +0.000 C 
BRANCH  25  28
ATOM     28  C   UNL     1       4.419  16.827  18.825  0.00  0.00    +0.000 C 
ATOM     29  O   UNL     1       5.057  17.656  19.462  0.00  0.00    +0.000 OA
BRANCH  28  30
ATOM     30  O   UNL     1       3.601  17.121  17.779  0.00  0.00    +0.000 OA
BRANCH  30  31
ATOM     31  C   UNL     1       2.205  16.839  17.967  0.00  0.00    +0.000 C 
ATOM     32  C   UNL     1       1.591  17.786  18.976  0.00  0.00    +0.000 C 
ENDBRANCH  30  31
ENDBRANCH  28  30
ENDBRANCH  25  28
ENDBRANCH  19  20
ENDBRANCH  18  19
ENDBRANCH  17  18
ENDBRANCH   1  17
TORSDOF 13
ENDMDL
MODEL 5
REMARK VINA RESULT:      -6.4      2.821      9.560
REMARK  Name = 
REMARK  15 active torsions:
REMARK  status: ('A' for Active; 'I' for Inactive)
REMARK    1  A    between atoms: C_1  and  C_2
REMARK    2  A    between atoms: C_2  and  O_3
REMARK    3  A    between atoms: O_3  and  C_4
REMARK    4  A    between atoms: C_4  and  C_6
REMARK    5  A    between atoms: C_10  and  C_12
REMARK    6  A    between atoms: C_12  and  S_13
REMARK    7  A    between atoms: S_13  and  C_14
REMARK    8  A    between atoms: C_14  and  C_15
REMARK    9  A    between atoms: C_15  and  S_16
REMARK   10  A    between atoms: S_16  and  C_17
REMARK   11  A    between atoms: C_17  and  C_18
REMARK   12  A    between atoms: C_23  and  C_24
REMARK   13  A    between atoms: C_24  and  O_26
REMARK   14  A    between atoms: O_26  and  C_27
REMARK   15  A    between atoms: C_27  and  C_28
REMARK                            x       y       z     vdW  Elec       q    Type
REMARK                         _______ _______ _______ _____ _____    ______ ____
ROOT
ATOM      1  C   UNL     1       3.385   6.157  18.918  0.00  0.00    +0.000 C 
ENDROOT
BRANCH   1   2
ATOM      2  S   UNL     1       3.043   4.767  20.050  0.00  0.00    +0.000 S 
BRANCH   2   3
ATOM      3  C   UNL     1       4.298   3.565  19.485  0.00  0.00    +0.000 C 
BRANCH   3   8
ATOM      4  C   UNL     1       5.956   5.669  15.117  0.00  0.00    +0.000 C 
ATOM      5  C   UNL     1       6.717   6.212  16.338  0.00  0.00    +0.000 C 
ATOM      6  C   UNL     1       7.089   5.092  17.309  0.00  0.00    +0.000 C 
ATOM      7  N   UNL     1       5.888   4.363  17.702  0.00  0.00    +0.000 N 
ATOM      8  C   UNL     1       5.564   4.297  19.055  0.00  0.00    +0.000 C 
ATOM      9  O   UNL     1       6.281   4.813  19.919  0.00  0.00    +0.000 OA
ATOM     10  C   UNL     1       5.138   3.761  16.602  0.00  0.00    +0.000 C 
ATOM     11  C   UNL     1       4.761   4.812  15.557  0.00  0.00    +0.000 C 
BRANCH   4  12
ATOM     12  C   UNL     1       6.908   4.892  14.225  0.00  0.00    +0.000 C 
ATOM     13  O   UNL     1       7.997   5.286  13.833  0.00  0.00    +0.000 OA
BRANCH  12  14
ATOM     14  O   UNL     1       6.321   3.719  13.869  0.00  0.00    +0.000 OA
BRANCH  14  16
ATOM     15  C   UNL     1       4.877   3.465  11.987  0.00  0.00    +0.000 C 
ATOM     16  C   UNL     1       6.317   3.413  12.468  0.00  0.00    +0.000 C 
ENDBRANCH  14  16
ENDBRANCH  12  14
ENDBRANCH   4  12
ENDBRANCH   3   8
ENDBRANCH   2   3
ENDBRANCH   1   2
BRANCH   1  17
ATOM     17  C   UNL     1       2.170   6.903  18.360  0.00  0.00    +0.000 C 
BRANCH  17  18
ATOM     18  S   UNL     1       2.563   8.605  17.815  0.00  0.00    +0.000 S 
BRANCH  18  19
ATOM     19  C   UNL     1       0.940   9.374  18.098  0.00  0.00    +0.000 C 
BRANCH  19  20
ATOM     20  C   UNL     1       0.877  10.022  19.473  0.00  0.00    +0.000 C 
ATOM     21  O   UNL     1       0.715   9.309  20.469  0.00  0.00    +0.000 OA
ATOM     22  N   UNL     1       1.006  11.405  19.572  0.00  0.00    +0.000 N 
ATOM     23  C   UNL     1       1.060  12.023  20.894  0.00  0.00    +0.000 C 
ATOM     24  C   UNL     1      -0.042  13.071  21.052  0.00  0.00    +0.000 C 
ATOM     25  C   UNL     1      -0.005  14.112  19.919  0.00  0.00    +0.000 C 
ATOM     26  C   UNL     1      -0.061  13.380  18.566  0.00  0.00    +0.000 C 
ATOM     27  C   UNL     1       1.057  12.339  18.445  0.00  0.00    +0.000 C 
BRANCH  25  28
ATOM     28  C   UNL     1       1.224  15.018  19.965  0.00  0.00    +0.000 C 
ATOM     29  O   UNL     1       1.771  15.472  18.968  0.00  0.00    +0.000 OA
BRANCH  28  30
ATOM     30  O   UNL     1       1.640  15.235  21.241  0.00  0.00    +0.000 OA
BRANCH  30  31
ATOM     31  C   UNL     1       3.009  15.636  21.402  0.00  0.00    +0.000 C 
ATOM     32  C   UNL     1       3.891  14.447  21.718  0.00  0.00    +0.000 C 
ENDBRANCH  30  31
ENDBRANCH  28  30
ENDBRANCH  25  28
ENDBRANCH  19  20
ENDBRANCH  18  19
ENDBRANCH  17  18
ENDBRANCH   1  17
TORSDOF 13
ENDMDL
MODEL 6
REMARK VINA RESULT:      -6.4      2.744      9.564
REMARK  Name = 
REMARK  15 active torsions:
REMARK  status: ('A' for Active; 'I' for Inactive)
REMARK    1  A    between atoms: C_1  and  C_2
REMARK    2  A    between atoms: C_2  and  O_3
REMARK    3  A    between atoms: O_3  and  C_4
REMARK    4  A    between atoms: C_4  and  C_6
REMARK    5  A    between atoms: C_10  and  C_12
REMARK    6  A    between atoms: C_12  and  S_13
REMARK    7  A    between atoms: S_13  and  C_14
REMARK    8  A    between atoms: C_14  and  C_15
REMARK    9  A    between atoms: C_15  and  S_16
REMARK   10  A    between atoms: S_16  and  C_17
REMARK   11  A    between atoms: C_17  and  C_18
REMARK   12  A    between atoms: C_23  and  C_24
REMARK   13  A    between atoms: C_24  and  O_26
REMARK   14  A    between atoms: O_26  and  C_27
REMARK   15  A    between atoms: C_27  and  C_28
REMARK                            x       y       z     vdW  Elec       q    Type
REMARK                         _______ _______ _______ _____ _____    ______ ____
ROOT
ATOM      1  C   UNL     1       3.287   5.827  18.985  0.00  0.00    +0.000 C 
ENDROOT
BRANCH   1   2
ATOM      2  S   UNL     1       2.772   4.219  19.678  0.00  0.00    +0.000 S 
BRANCH   2   3
ATOM      3  C   UNL     1       4.349   3.301  19.587  0.00  0.00    +0.000 C 
BRANCH   3   8
ATOM      4  C   UNL     1       5.561   5.552  15.148  0.00  0.00    +0.000 C 
ATOM      5  C   UNL     1       6.236   6.245  16.342  0.00  0.00    +0.000 C 
ATOM      6  C   UNL     1       6.807   5.227  17.330  0.00  0.00    +0.000 C 
ATOM      7  N   UNL     1       5.753   4.315  17.760  0.00  0.00    +0.000 N 
ATOM      8  C   UNL     1       5.465   4.226  19.119  0.00  0.00    +0.000 C 
ATOM      9  O   UNL     1       6.097   4.876  19.958  0.00  0.00    +0.000 OA
ATOM     10  C   UNL     1       5.101   3.568  16.686  0.00  0.00    +0.000 C 
ATOM     11  C   UNL     1       4.535   4.515  15.627  0.00  0.00    +0.000 C 
BRANCH   4  12
ATOM     12  C   UNL     1       6.618   4.928  14.254  0.00  0.00    +0.000 C 
ATOM     13  O   UNL     1       7.780   5.295  14.164  0.00  0.00    +0.000 OA
BRANCH  12  14
ATOM     14  O   UNL     1       6.044   3.944  13.513  0.00  0.00    +0.000 OA
BRANCH  14  16
ATOM     15  C   UNL     1       5.997   2.408  11.687  0.00  0.00    +0.000 C 
ATOM     16  C   UNL     1       6.695   3.621  12.277  0.00  0.00    +0.000 C 
ENDBRANCH  14  16
ENDBRANCH  12  14
ENDBRANCH   4  12
ENDBRANCH   3   8
ENDBRANCH   2   3
ENDBRANCH   1   2
BRANCH   1  17
ATOM     17  C   UNL     1       2.206   6.649  18.279  0.00  0.00    +0.000 C 
BRANCH  17  18
ATOM     18  S   UNL     1       2.751   8.346  17.864  0.00  0.00    +0.000 S 
BRANCH  18  19
ATOM     19  C   UNL     1       1.156   9.203  18.024  0.00  0.00    +0.000 C 
BRANCH  19  20
ATOM     20  C   UNL     1       0.999   9.806  19.412  0.00  0.00    +0.000 C 
ATOM     21  O   UNL     1       0.892   9.054  20.387  0.00  0.00    +0.000 OA
ATOM     22  N   UNL     1       0.983  11.190  19.546  0.00  0.00    +0.000 N 
ATOM     23  C   UNL     1       0.947  11.777  20.883  0.00  0.00    +0.000 C 
ATOM     24  C   UNL     1      -0.260  12.702  21.041  0.00  0.00    +0.000 C 
ATOM     25  C   UNL     1      -0.307  13.771  19.934  0.00  0.00    +0.000 C 
ATOM     26  C   UNL     1      -0.260  13.071  18.564  0.00  0.00    +0.000 C 
ATOM     27  C   UNL     1       0.961  12.154  18.443  0.00  0.00    +0.000 C 
BRANCH  25  28
ATOM     28  C   UNL     1       0.821  14.796  20.030  0.00  0.00    +0.000 C 
ATOM     29  O   UNL     1       1.484  14.984  21.043  0.00  0.00    +0.000 OA
BRANCH  28  30
ATOM     30  O   UNL     1       0.979  15.480  18.865  0.00  0.00    +0.000 OA
BRANCH  30  31
ATOM     31  C   UNL     1       2.248  16.123  18.675  0.00  0.00    +0.000 C 
ATOM     32  C   UNL     1       3.176  15.259  17.847  0.00  0.00    +0.000 C 
ENDBRANCH  30  31
ENDBRANCH  28  30
ENDBRANCH  25  28
ENDBRANCH  19  20
ENDBRANCH  18  19
ENDBRANCH  17  18
ENDBRANCH   1  17
TORSDOF 13
ENDMDL
MODEL 7
REMARK VINA RESULT:      -6.3      2.943      9.333
REMARK  Name = 
REMARK  15 active torsions:
REMARK  status: ('A' for Active; 'I' for Inactive)
REMARK    1  A    between atoms: C_1  and  C_2
REMARK    2  A    between atoms: C_2  and  O_3
REMARK    3  A    between atoms: O_3  and  C_4
REMARK    4  A    between atoms: C_4  and  C_6
REMARK    5  A    between atoms: C_10  and  C_12
REMARK    6  A    between atoms: C_12  and  S_13
REMARK    7  A    between atoms: S_13  and  C_14
REMARK    8  A    between atoms: C_14  and  C_15
REMARK    9  A    between atoms: C_15  and  S_16
REMARK   10  A    between atoms: S_16  and  C_17
REMARK   11  A    between atoms: C_17  and  C_18
REMARK   12  A    between atoms: C_23  and  C_24
REMARK   13  A    between atoms: C_24  and  O_26
REMARK   14  A    between atoms: O_26  and  C_27
REMARK   15  A    between atoms: C_27  and  C_28
REMARK                            x       y       z     vdW  Elec       q    Type
REMARK                         _______ _______ _______ _____ _____    ______ ____
ROOT
ATOM      1  C   UNL     1       1.852   7.189  20.089  0.00  0.00    +0.000 C 
ENDROOT
BRANCH   1   2
ATOM      2  S   UNL     1       1.120   5.608  20.635  0.00  0.00    +0.000 S 
BRANCH   2   3
ATOM      3  C   UNL     1       1.717   4.496  19.314  0.00  0.00    +0.000 C 
BRANCH   3   8
ATOM      4  C   UNL     1       6.331   6.064  17.732  0.00  0.00    +0.000 C 
ATOM      5  C   UNL     1       6.418   5.262  19.040  0.00  0.00    +0.000 C 
ATOM      6  C   UNL     1       5.528   4.020  18.995  0.00  0.00    +0.000 C 
ATOM      7  N   UNL     1       4.156   4.409  18.691  0.00  0.00    +0.000 N 
ATOM      8  C   UNL     1       3.154   4.073  19.597  0.00  0.00    +0.000 C 
ATOM      9  O   UNL     1       3.399   3.435  20.626  0.00  0.00    +0.000 OA
ATOM     10  C   UNL     1       3.978   5.124  17.429  0.00  0.00    +0.000 C 
ATOM     11  C   UNL     1       4.869   6.366  17.374  0.00  0.00    +0.000 C 
BRANCH   4  12
ATOM     12  C   UNL     1       7.040   5.309  16.621  0.00  0.00    +0.000 C 
ATOM     13  O   UNL     1       7.996   4.562  16.766  0.00  0.00    +0.000 OA
BRANCH  12  14
ATOM     14  O   UNL     1       6.488   5.658  15.429  0.00  0.00    +0.000 OA
BRANCH  14  16
ATOM     15  C   UNL     1       5.778   4.048  13.818  0.00  0.00    +0.000 C 
ATOM     16  C   UNL     1       6.933   4.917  14.285  0.00  0.00    +0.000 C 
ENDBRANCH  14  16
ENDBRANCH  12  14
ENDBRANCH   4  12
ENDBRANCH   3   8
ENDBRANCH   2   3
ENDBRANCH   1   2
BRANCH   1  17
ATOM     17  C   UNL     1       1.643   8.395  21.008  0.00  0.00    +0.000 C 
BRANCH  17  18
ATOM     18  S   UNL     1      -0.108   8.645  21.477  0.00  0.00    +0.000 S 
BRANCH  18  19
ATOM     19  C   UNL     1      -0.123  10.461  21.560  0.00  0.00    +0.000 C 
BRANCH  19  20
ATOM     20  C   UNL     1      -0.062  11.069  20.167  0.00  0.00    +0.000 C 
ATOM     21  O   UNL     1      -0.493  10.421  19.207  0.00  0.00    +0.000 OA
ATOM     22  N   UNL     1       0.476  12.344  20.012  0.00  0.00    +0.000 N 
ATOM     23  C   UNL     1       0.434  12.980  18.698  0.00  0.00    +0.000 C 
ATOM     24  C   UNL     1       1.838  13.369  18.236  0.00  0.00    +0.000 C 
ATOM     25  C   UNL     1       2.564  14.235  19.281  0.00  0.00    +0.000 C 
ATOM     26  C   UNL     1       2.558  13.497  20.632  0.00  0.00    +0.000 C 
ATOM     27  C   UNL     1       1.135  13.124  21.062  0.00  0.00    +0.000 C 
BRANCH  25  28
ATOM     28  C   UNL     1       1.951  15.624  19.450  0.00  0.00    +0.000 C 
ATOM     29  O   UNL     1       1.896  16.217  20.520  0.00  0.00    +0.000 OA
BRANCH  28  30
ATOM     30  O   UNL     1       1.461  16.104  18.275  0.00  0.00    +0.000 OA
BRANCH  30  31
ATOM     31  C   UNL     1       1.937  17.396  17.870  0.00  0.00    +0.000 C 
ATOM     32  C   UNL     1       0.906  18.114  17.025  0.00  0.00    +0.000 C 
ENDBRANCH  30  31
ENDBRANCH  28  30
ENDBRANCH  25  28
ENDBRANCH  19  20
ENDBRANCH  18  19
ENDBRANCH  17  18
ENDBRANCH   1  17
TORSDOF 13
ENDMDL
MODEL 8
REMARK VINA RESULT:      -6.3      1.509      2.010
REMARK  Name = 
REMARK  15 active torsions:
REMARK  status: ('A' for Active; 'I' for Inactive)
REMARK    1  A    between atoms: C_1  and  C_2
REMARK    2  A    between atoms: C_2  and  O_3
REMARK    3  A    between atoms: O_3  and  C_4
REMARK    4  A    between atoms: C_4  and  C_6
REMARK    5  A    between atoms: C_10  and  C_12
REMARK    6  A    between atoms: C_12  and  S_13
REMARK    7  A    between atoms: S_13  and  C_14
REMARK    8  A    between atoms: C_14  and  C_15
REMARK    9  A    between atoms: C_15  and  S_16
REMARK   10  A    between atoms: S_16  and  C_17
REMARK   11  A    between atoms: C_17  and  C_18
REMARK   12  A    between atoms: C_23  and  C_24
REMARK   13  A    between atoms: C_24  and  O_26
REMARK   14  A    between atoms: O_26  and  C_27
REMARK   15  A    between atoms: C_27  and  C_28
REMARK                            x       y       z     vdW  Elec       q    Type
REMARK                         _______ _______ _______ _____ _____    ______ ____
ROOT
ATOM      1  C   UNL     1       1.435   4.792  19.055  0.00  0.00    +0.000 C 
ENDROOT
BRANCH   1   2
ATOM      2  S   UNL     1       1.803   5.816  20.520  0.00  0.00    +0.000 S 
BRANCH   2   3
ATOM      3  C   UNL     1       1.981   7.458  19.737  0.00  0.00    +0.000 C 
BRANCH   3   8
ATOM      4  C   UNL     1      -1.266  11.408  19.411  0.00  0.00    +0.000 C 
ATOM      5  C   UNL     1      -0.999  11.007  20.871  0.00  0.00    +0.000 C 
ATOM      6  C   UNL     1       0.486  10.732  21.113  0.00  0.00    +0.000 C 
ATOM      7  N   UNL     1       0.956   9.715  20.179  0.00  0.00    +0.000 N 
ATOM      8  C   UNL     1       1.510   8.546  20.694  0.00  0.00    +0.000 C 
ATOM      9  O   UNL     1       1.635   8.370  21.911  0.00  0.00    +0.000 OA
ATOM     10  C   UNL     1       0.795  10.048  18.766  0.00  0.00    +0.000 C 
ATOM     11  C   UNL     1      -0.663  10.379  18.445  0.00  0.00    +0.000 C 
BRANCH   4  12
ATOM     12  C   UNL     1      -0.725  12.804  19.157  0.00  0.00    +0.000 C 
ATOM     13  O   UNL     1      -0.322  13.226  18.083  0.00  0.00    +0.000 OA
BRANCH  12  14
ATOM     14  O   UNL     1      -0.688  13.484  20.333  0.00  0.00    +0.000 OA
BRANCH  14  16
ATOM     15  C   UNL     1      -0.810  15.628  21.374  0.00  0.00    +0.000 C 
ATOM     16  C   UNL     1      -1.483  14.677  20.400  0.00  0.00    +0.000 C 
ENDBRANCH  14  16
ENDBRANCH  12  14
ENDBRANCH   4  12
ENDBRANCH   3   8
ENDBRANCH   2   3
ENDBRANCH   1   2
BRANCH   1  17
ATOM     17  C   UNL     1       1.482   3.274  19.250  0.00  0.00    +0.000 C 
BRANCH  17  18
ATOM     18  S   UNL     1       2.101   2.782  20.900  0.00  0.00    +0.000 S 
BRANCH  18  19
ATOM     19  C   UNL     1       3.856   2.551  20.486  0.00  0.00    +0.000 C 
BRANCH  19  20
ATOM     20  C   UNL     1       4.064   2.542  18.979  0.00  0.00    +0.000 C 
ATOM     21  O   UNL     1       3.750   1.537  18.333  0.00  0.00    +0.000 OA
ATOM     22  N   UNL     1       4.601   3.671  18.368  0.00  0.00    +0.000 N 
ATOM     23  C   UNL     1       4.698   3.715  16.911  0.00  0.00    +0.000 C 
ATOM     24  C   UNL     1       6.140   3.960  16.467  0.00  0.00    +0.000 C 
ATOM     25  C   UNL     1       6.735   5.215  17.129  0.00  0.00    +0.000 C 
ATOM     26  C   UNL     1       6.587   5.091  18.657  0.00  0.00    +0.000 C 
ATOM     27  C   UNL     1       5.131   4.847  19.062  0.00  0.00    +0.000 C 
BRANCH  25  28
ATOM     28  C   UNL     1       6.091   6.516  16.653  0.00  0.00    +0.000 C 
ATOM     29  O   UNL     1       5.311   6.584  15.711  0.00  0.00    +0.000 OA
BRANCH  28  30
ATOM     30  O   UNL     1       6.509   7.582  17.387  0.00  0.00    +0.000 OA
BRANCH  30  31
ATOM     31  C   UNL     1       7.865   8.005  17.176  0.00  0.00    +0.000 C 
ATOM     32  C   UNL     1       8.296   8.995  18.238  0.00  0.00    +0.000 C 
ENDBRANCH  30  31
ENDBRANCH  28  30
ENDBRANCH  25  28
ENDBRANCH  19  20
ENDBRANCH  18  19
ENDBRANCH  17  18
ENDBRANCH   1  17
TORSDOF 13
ENDMDL
MODEL 9
REMARK VINA RESULT:      -6.3      5.409      7.789
REMARK  Name = 
REMARK  15 active torsions:
REMARK  status: ('A' for Active; 'I' for Inactive)
REMARK    1  A    between atoms: C_1  and  C_2
REMARK    2  A    between atoms: C_2  and  O_3
REMARK    3  A    between atoms: O_3  and  C_4
REMARK    4  A    between atoms: C_4  and  C_6
REMARK    5  A    between atoms: C_10  and  C_12
REMARK    6  A    between atoms: C_12  and  S_13
REMARK    7  A    between atoms: S_13  and  C_14
REMARK    8  A    between atoms: C_14  and  C_15
REMARK    9  A    between atoms: C_15  and  S_16
REMARK   10  A    between atoms: S_16  and  C_17
REMARK   11  A    between atoms: C_17  and  C_18
REMARK   12  A    between atoms: C_23  and  C_24
REMARK   13  A    between atoms: C_24  and  O_26
REMARK   14  A    between atoms: O_26  and  C_27
REMARK   15  A    between atoms: C_27  and  C_28
REMARK                            x       y       z     vdW  Elec       q    Type
REMARK                         _______ _______ _______ _____ _____    ______ ____
ROOT
ATOM      1  C   UNL     1       8.992  11.039  18.654  0.00  0.00    +0.000 C 
ENDROOT
BRANCH   1   2
ATOM      2  S   UNL     1      10.671  11.738  18.502  0.00  0.00    +0.000 S 
BRANCH   2   3
ATOM      3  C   UNL     1      11.051  12.066  20.260  0.00  0.00    +0.000 C 
BRANCH   3   8
ATOM      4  C   UNL     1       8.236  13.405  24.325  0.00  0.00    +0.000 C 
ATOM      5  C   UNL     1       8.818  14.632  23.604  0.00  0.00    +0.000 C 
ATOM      6  C   UNL     1       8.689  14.502  22.086  0.00  0.00    +0.000 C 
ATOM      7  N   UNL     1       9.323  13.264  21.644  0.00  0.00    +0.000 N 
ATOM      8  C   UNL     1      10.356  13.343  20.714  0.00  0.00    +0.000 C 
ATOM      9  O   UNL     1      10.722  14.425  20.242  0.00  0.00    +0.000 OA
ATOM     10  C   UNL     1       8.783  12.043  22.238  0.00  0.00    +0.000 C 
ATOM     11  C   UNL     1       8.836  12.108  23.764  0.00  0.00    +0.000 C 
BRANCH   4  12
ATOM     12  C   UNL     1       6.722  13.418  24.217  0.00  0.00    +0.000 C 
ATOM     13  O   UNL     1       6.077  13.129  23.219  0.00  0.00    +0.000 OA
BRANCH  12  14
ATOM     14  O   UNL     1       6.199  13.878  25.384  0.00  0.00    +0.000 OA
BRANCH  14  16
ATOM     15  C   UNL     1       6.186  11.696  26.348  0.00  0.00    +0.000 C 
ATOM     16  C   UNL     1       5.376  12.959  26.116  0.00  0.00    +0.000 C 
ENDBRANCH  14  16
ENDBRANCH  12  14
ENDBRANCH   4  12
ENDBRANCH   3   8
ENDBRANCH   2   3
ENDBRANCH   1   2
BRANCH   1  17
ATOM     17  C   UNL     1       8.895   9.525  18.862  0.00  0.00    +0.000 C 
BRANCH  17  18
ATOM     18  S   UNL     1       7.806   8.702  17.644  0.00  0.00    +0.000 S 
BRANCH  18  19
ATOM     19  C   UNL     1       7.898   7.003  18.283  0.00  0.00    +0.000 C 
BRANCH  19  20
ATOM     20  C   UNL     1       7.181   6.034  17.355  0.00  0.00    +0.000 C 
ATOM     21  O   UNL     1       7.523   5.970  16.169  0.00  0.00    +0.000 OA
ATOM     22  N   UNL     1       6.159   5.241  17.870  0.00  0.00    +0.000 N 
ATOM     23  C   UNL     1       5.543   4.229  17.016  0.00  0.00    +0.000 C 
ATOM     24  C   UNL     1       4.033   4.443  16.916  0.00  0.00    +0.000 C 
ATOM     25  C   UNL     1       3.374   4.514  18.306  0.00  0.00    +0.000 C 
ATOM     26  C   UNL     1       4.083   5.596  19.140  0.00  0.00    +0.000 C 
ATOM     27  C   UNL     1       5.593   5.348  19.217  0.00  0.00    +0.000 C 
BRANCH  25  28
ATOM     28  C   UNL     1       3.400   3.184  19.058  0.00  0.00    +0.000 C 
ATOM     29  O   UNL     1       4.047   2.210  18.695  0.00  0.00    +0.000 OA
BRANCH  28  30
ATOM     30  O   UNL     1       2.601   3.214  20.159  0.00  0.00    +0.000 OA
BRANCH  30  31
ATOM     31  C   UNL     1       1.199   3.407  19.920  0.00  0.00    +0.000 C 
ATOM     32  C   UNL     1       0.675   2.401  18.916  0.00  0.00    +0.000 C 
ENDBRANCH  30  31
ENDBRANCH  28  30
ENDBRANCH  25  28
ENDBRANCH  19  20
ENDBRANCH  18  19
ENDBRANCH  17  18
ENDBRANCH   1  17
TORSDOF 13
ENDMDL
