MODEL 1
REMARK VINA RESULT:      -8.0      0.000      0.000
REMARK  Name = 
REMARK  7 active torsions:
REMARK  status: ('A' for Active; 'I' for Inactive)
REMARK    1  A    between atoms: C_1  and  C_2
REMARK    2  A    between atoms: C_2  and  C_3
REMARK    3  A    between atoms: C_6  and  C_7
REMARK    4  A    between atoms: C_8  and  C_9
REMARK    5  A    between atoms: C_9  and  N_10
REMARK    6  A    between atoms: N_13  and  C_14
REMARK    7  A    between atoms: C_19  and  C_20
REMARK                            x       y       z     vdW  Elec       q    Type
REMARK                         _______ _______ _______ _____ _____    ______ ____
ROOT
ATOM      1  N   UNL     1       4.732   5.699  19.259  0.00  0.00    +0.000 N 
ATOM      2  C   UNL     1       3.664   4.870  19.478  0.00  0.00    +0.000 C 
ATOM      3  O   UNL     1       3.749   3.649  19.512  0.00  0.00    +0.000 OA
ATOM      4  N   UNL     1       2.485   5.502  19.787  0.00  0.00    +0.000 N 
ATOM      5  H   UNL     1       4.669   6.597  19.719  0.00  0.00    +0.000 HD
ATOM      6  H   UNL     1       1.837   4.894  20.276  0.00  0.00    +0.000 HD
ENDROOT
BRANCH   4   7
ATOM      7  C   UNL     1       2.144   6.820  19.622  0.00  0.00    +0.000 A 
ATOM      8  C   UNL     1       2.327   7.370  18.282  0.00  0.00    +0.000 A 
ATOM      9  C   UNL     1       1.920   8.626  18.027  0.00  0.00    +0.000 A 
ATOM     10  N   UNL     1       1.409   9.395  19.069  0.00  0.00    +0.000 N 
ATOM     11  C   UNL     1       0.958  10.688  19.060  0.00  0.00    +0.000 A 
ATOM     12  C   UNL     1       0.620  10.975  20.367  0.00  0.00    +0.000 A 
ATOM     13  C   UNL     1       0.119  12.242  20.941  0.00  0.00    +0.000 C 
ATOM     14  N   UNL     1       0.816   9.874  21.169  0.00  0.00    +0.000 NA
ATOM     15  C   UNL     1       1.281   8.935  20.370  0.00  0.00    +0.000 A 
ATOM     16  C   UNL     1       1.649   7.583  20.621  0.00  0.00    +0.000 A 
ENDBRANCH   4   7
BRANCH   1  17
ATOM     17  C   UNL     1       6.052   5.134  19.134  0.00  0.00    +0.000 C 
BRANCH  17  23
ATOM     18  C   UNL     1       7.542   6.593  17.609  0.00  0.00    +0.000 A 
ATOM     19  O   UNL     1       7.805   6.667  16.278  0.00  0.00    +0.000 OA
ATOM     20  N   UNL     1       7.118   5.675  15.613  0.00  0.00    +0.000 NA
ATOM     21  C   UNL     1       6.429   5.015  16.550  0.00  0.00    +0.000 A 
ATOM     22  C   UNL     1       5.555   3.885  16.154  0.00  0.00    +0.000 C 
ATOM     23  C   UNL     1       6.658   5.558  17.848  0.00  0.00    +0.000 A 
BRANCH  18  25
ATOM     24  C   UNL     1       8.104   9.007  17.875  0.00  0.00    +0.000 C 
ATOM     25  C   UNL     1       8.212   7.608  18.461  0.00  0.00    +0.000 C 
ENDBRANCH  18  25
ENDBRANCH  17  23
ENDBRANCH   1  17
TORSDOF 4
ENDMDL
MODEL 2
REMARK VINA RESULT:      -7.7      1.177      1.545
REMARK  Name = 
REMARK  7 active torsions:
REMARK  status: ('A' for Active; 'I' for Inactive)
REMARK    1  A    between atoms: C_1  and  C_2
REMARK    2  A    between atoms: C_2  and  C_3
REMARK    3  A    between atoms: C_6  and  C_7
REMARK    4  A    between atoms: C_8  and  C_9
REMARK    5  A    between atoms: C_9  and  N_10
REMARK    6  A    between atoms: N_13  and  C_14
REMARK    7  A    between atoms: C_19  and  C_20
REMARK                            x       y       z     vdW  Elec       q    Type
REMARK                         _______ _______ _______ _____ _____    ______ ____
ROOT
ATOM      1  N   UNL     1       4.154   4.913  17.709  0.00  0.00    +0.000 N 
ATOM      2  C   UNL     1       4.022   4.569  19.028  0.00  0.00    +0.000 C 
ATOM      3  O   UNL     1       4.415   3.507  19.493  0.00  0.00    +0.000 OA
ATOM      4  N   UNL     1       3.524   5.554  19.843  0.00  0.00    +0.000 N 
ATOM      5  H   UNL     1       4.267   5.904  17.541  0.00  0.00    +0.000 HD
ATOM      6  H   UNL     1       3.766   5.409  20.818  0.00  0.00    +0.000 HD
ENDROOT
BRANCH   4   7
ATOM      7  C   UNL     1       2.871   6.710  19.500  0.00  0.00    +0.000 A 
ATOM      8  C   UNL     1       3.144   7.232  18.164  0.00  0.00    +0.000 A 
ATOM      9  C   UNL     1       2.463   8.306  17.728  0.00  0.00    +0.000 A 
ATOM     10  N   UNL     1       1.574   8.939  18.591  0.00  0.00    +0.000 N 
ATOM     11  C   UNL     1       0.795  10.046  18.385  0.00  0.00    +0.000 A 
ATOM     12  C   UNL     1       0.151  10.279  19.584  0.00  0.00    +0.000 A 
ATOM     13  C   UNL     1      -0.778  11.371  19.943  0.00  0.00    +0.000 C 
ATOM     14  N   UNL     1       0.488   9.316  20.507  0.00  0.00    +0.000 NA
ATOM     15  C   UNL     1       1.334   8.517  19.890  0.00  0.00    +0.000 A 
ATOM     16  C   UNL     1       2.007   7.341  20.325  0.00  0.00    +0.000 A 
ENDBRANCH   4   7
BRANCH   1  17
ATOM     17  C   UNL     1       4.857   4.029  16.813  0.00  0.00    +0.000 C 
BRANCH  17  23
ATOM     18  C   UNL     1       6.808   5.720  16.735  0.00  0.00    +0.000 A 
ATOM     19  O   UNL     1       7.690   6.155  15.796  0.00  0.00    +0.000 OA
ATOM     20  N   UNL     1       7.488   5.472  14.617  0.00  0.00    +0.000 NA
ATOM     21  C   UNL     1       6.469   4.636  14.848  0.00  0.00    +0.000 A 
ATOM     22  C   UNL     1       5.982   3.761  13.755  0.00  0.00    +0.000 C 
ATOM     23  C   UNL     1       5.991   4.750  16.185  0.00  0.00    +0.000 A 
BRANCH  18  25
ATOM     24  C   UNL     1       7.802   5.601  19.017  0.00  0.00    +0.000 C 
ATOM     25  C   UNL     1       6.902   6.372  18.065  0.00  0.00    +0.000 C 
ENDBRANCH  18  25
ENDBRANCH  17  23
ENDBRANCH   1  17
TORSDOF 4
ENDMDL
MODEL 3
REMARK VINA RESULT:      -7.6      0.808      1.501
REMARK  Name = 
REMARK  7 active torsions:
REMARK  status: ('A' for Active; 'I' for Inactive)
REMARK    1  A    between atoms: C_1  and  C_2
REMARK    2  A    between atoms: C_2  and  C_3
REMARK    3  A    between atoms: C_6  and  C_7
REMARK    4  A    between atoms: C_8  and  C_9
REMARK    5  A    between atoms: C_9  and  N_10
REMARK    6  A    between atoms: N_13  and  C_14
REMARK    7  A    between atoms: C_19  and  C_20
REMARK                            x       y       z     vdW  Elec       q    Type
REMARK                         _______ _______ _______ _____ _____    ______ ____
ROOT
ATOM      1  N   UNL     1       4.756   5.437  19.123  0.00  0.00    +0.000 N 
ATOM      2  C   UNL     1       3.712   4.570  18.941  0.00  0.00    +0.000 C 
ATOM      3  O   UNL     1       3.854   3.397  18.622  0.00  0.00    +0.000 OA
ATOM      4  N   UNL     1       2.474   5.068  19.262  0.00  0.00    +0.000 N 
ATOM      5  H   UNL     1       4.592   6.154  19.817  0.00  0.00    +0.000 HD
ATOM      6  H   UNL     1       1.801   4.334  19.457  0.00  0.00    +0.000 HD
ENDROOT
BRANCH   4   7
ATOM      7  C   UNL     1       2.091   6.370  19.453  0.00  0.00    +0.000 A 
ATOM      8  C   UNL     1       1.528   6.691  20.761  0.00  0.00    +0.000 A 
ATOM      9  C   UNL     1       1.223   7.969  21.049  0.00  0.00    +0.000 A 
ATOM     10  N   UNL     1       1.378   8.938  20.063  0.00  0.00    +0.000 N 
ATOM     11  C   UNL     1       1.115  10.282  20.110  0.00  0.00    +0.000 A 
ATOM     12  C   UNL     1       1.389  10.761  18.845  0.00  0.00    +0.000 A 
ATOM     13  C   UNL     1       1.239  12.134  18.319  0.00  0.00    +0.000 C 
ATOM     14  N   UNL     1       1.850   9.749  18.035  0.00  0.00    +0.000 NA
ATOM     15  C   UNL     1       1.844   8.667  18.786  0.00  0.00    +0.000 A 
ATOM     16  C   UNL     1       2.229   7.325  18.507  0.00  0.00    +0.000 A 
ENDBRANCH   4   7
BRANCH   1  17
ATOM     17  C   UNL     1       6.108   4.950  19.015  0.00  0.00    +0.000 C 
BRANCH  17  23
ATOM     18  C   UNL     1       7.558   6.568  17.617  0.00  0.00    +0.000 A 
ATOM     19  O   UNL     1       7.860   6.724  16.301  0.00  0.00    +0.000 OA
ATOM     20  N   UNL     1       7.257   5.728  15.565  0.00  0.00    +0.000 NA
ATOM     21  C   UNL     1       6.578   4.983  16.444  0.00  0.00    +0.000 A 
ATOM     22  C   UNL     1       5.787   3.825  15.962  0.00  0.00    +0.000 C 
ATOM     23  C   UNL     1       6.730   5.472  17.774  0.00  0.00    +0.000 A 
BRANCH  18  25
ATOM     24  C   UNL     1       8.171   8.965  17.920  0.00  0.00    +0.000 C 
ATOM     25  C   UNL     1       8.136   7.577  18.540  0.00  0.00    +0.000 C 
ENDBRANCH  18  25
ENDBRANCH  17  23
ENDBRANCH   1  17
TORSDOF 4
ENDMDL
MODEL 4
REMARK VINA RESULT:      -7.5      0.676      2.207
REMARK  Name = 
REMARK  7 active torsions:
REMARK  status: ('A' for Active; 'I' for Inactive)
REMARK    1  A    between atoms: C_1  and  C_2
REMARK    2  A    between atoms: C_2  and  C_3
REMARK    3  A    between atoms: C_6  and  C_7
REMARK    4  A    between atoms: C_8  and  C_9
REMARK    5  A    between atoms: C_9  and  N_10
REMARK    6  A    between atoms: N_13  and  C_14
REMARK    7  A    between atoms: C_19  and  C_20
REMARK                            x       y       z     vdW  Elec       q    Type
REMARK                         _______ _______ _______ _____ _____    ______ ____
ROOT
ATOM      1  N   UNL     1       4.618   5.477  19.174  0.00  0.00    +0.000 N 
ATOM      2  C   UNL     1       3.587   4.783  19.749  0.00  0.00    +0.000 C 
ATOM      3  O   UNL     1       3.637   3.588  20.008  0.00  0.00    +0.000 OA
ATOM      4  N   UNL     1       2.515   5.544  20.142  0.00  0.00    +0.000 N 
ATOM      5  H   UNL     1       4.677   6.448  19.450  0.00  0.00    +0.000 HD
ATOM      6  H   UNL     1       1.956   5.087  20.854  0.00  0.00    +0.000 HD
ENDROOT
BRANCH   4   7
ATOM      7  C   UNL     1       2.192   6.828  19.786  0.00  0.00    +0.000 A 
ATOM      8  C   UNL     1       2.456   7.198  18.399  0.00  0.00    +0.000 A 
ATOM      9  C   UNL     1       2.072   8.409  17.958  0.00  0.00    +0.000 A 
ATOM     10  N   UNL     1       1.506   9.307  18.858  0.00  0.00    +0.000 N 
ATOM     11  C   UNL     1       1.064  10.588  18.653  0.00  0.00    +0.000 A 
ATOM     12  C   UNL     1       0.652  11.043  19.890  0.00  0.00    +0.000 A 
ATOM     13  C   UNL     1       0.127  12.373  20.262  0.00  0.00    +0.000 C 
ATOM     14  N   UNL     1       0.794  10.057  20.839  0.00  0.00    +0.000 NA
ATOM     15  C   UNL     1       1.299   9.022  20.199  0.00  0.00    +0.000 A 
ATOM     16  C   UNL     1       1.644   7.716  20.645  0.00  0.00    +0.000 A 
ENDBRANCH   4   7
BRANCH   1  17
ATOM     17  C   UNL     1       5.868   4.807  18.918  0.00  0.00    +0.000 C 
BRANCH  17  23
ATOM     18  C   UNL     1       6.321   5.008  16.383  0.00  0.00    +0.000 A 
ATOM     19  O   UNL     1       7.136   5.752  15.590  0.00  0.00    +0.000 OA
ATOM     20  N   UNL     1       7.856   6.636  16.364  0.00  0.00    +0.000 NA
ATOM     21  C   UNL     1       7.480   6.408  17.627  0.00  0.00    +0.000 A 
ATOM     22  C   UNL     1       8.097   7.191  18.724  0.00  0.00    +0.000 C 
ATOM     23  C   UNL     1       6.501   5.375  17.703  0.00  0.00    +0.000 A 
BRANCH  18  25
ATOM     24  C   UNL     1       5.670   4.043  14.179  0.00  0.00    +0.000 C 
ATOM     25  C   UNL     1       5.481   4.001  15.687  0.00  0.00    +0.000 C 
ENDBRANCH  18  25
ENDBRANCH  17  23
ENDBRANCH   1  17
TORSDOF 4
ENDMDL
MODEL 5
REMARK VINA RESULT:      -7.3      1.753      2.676
REMARK  Name = 
REMARK  7 active torsions:
REMARK  status: ('A' for Active; 'I' for Inactive)
REMARK    1  A    between atoms: C_1  and  C_2
REMARK    2  A    between atoms: C_2  and  C_3
REMARK    3  A    between atoms: C_6  and  C_7
REMARK    4  A    between atoms: C_8  and  C_9
REMARK    5  A    between atoms: C_9  and  N_10
REMARK    6  A    between atoms: N_13  and  C_14
REMARK    7  A    between atoms: C_19  and  C_20
REMARK                            x       y       z     vdW  Elec       q    Type
REMARK                         _______ _______ _______ _____ _____    ______ ____
ROOT
ATOM      1  N   UNL     1       4.166   3.848  17.215  0.00  0.00    +0.000 N 
ATOM      2  C   UNL     1       3.603   3.008  18.138  0.00  0.00    +0.000 C 
ATOM      3  O   UNL     1       3.726   1.790  18.109  0.00  0.00    +0.000 OA
ATOM      4  N   UNL     1       2.981   3.628  19.192  0.00  0.00    +0.000 N 
ATOM      5  H   UNL     1       4.424   4.757  17.575  0.00  0.00    +0.000 HD
ATOM      6  H   UNL     1       2.897   3.023  20.002  0.00  0.00    +0.000 HD
ENDROOT
BRANCH   4   7
ATOM      7  C   UNL     1       2.584   4.935  19.312  0.00  0.00    +0.000 A 
ATOM      8  C   UNL     1       1.918   5.293  20.561  0.00  0.00    +0.000 A 
ATOM      9  C   UNL     1       1.591   6.578  20.785  0.00  0.00    +0.000 A 
ATOM     10  N   UNL     1       1.825   7.519  19.786  0.00  0.00    +0.000 N 
ATOM     11  C   UNL     1       1.560   8.862  19.772  0.00  0.00    +0.000 A 
ATOM     12  C   UNL     1       1.934   9.304  18.519  0.00  0.00    +0.000 A 
ATOM     13  C   UNL     1       1.828  10.661  17.942  0.00  0.00    +0.000 C 
ATOM     14  N   UNL     1       2.459   8.269  17.780  0.00  0.00    +0.000 NA
ATOM     15  C   UNL     1       2.392   7.210  18.560  0.00  0.00    +0.000 A 
ATOM     16  C   UNL     1       2.799   5.861  18.353  0.00  0.00    +0.000 A 
ENDBRANCH   4   7
BRANCH   1  17
ATOM     17  C   UNL     1       5.016   3.304  16.186  0.00  0.00    +0.000 C 
BRANCH  17  23
ATOM     18  C   UNL     1       6.723   5.180  16.675  0.00  0.00    +0.000 A 
ATOM     19  O   UNL     1       7.595   5.925  15.945  0.00  0.00    +0.000 OA
ATOM     20  N   UNL     1       7.560   5.523  14.628  0.00  0.00    +0.000 NA
ATOM     21  C   UNL     1       6.651   4.543  14.567  0.00  0.00    +0.000 A 
ATOM     22  C   UNL     1       6.354   3.902  13.264  0.00  0.00    +0.000 C 
ATOM     23  C   UNL     1       6.080   4.280  15.846  0.00  0.00    +0.000 A 
BRANCH  18  25
ATOM     24  C   UNL     1       7.798   6.385  18.573  0.00  0.00    +0.000 C 
ATOM     25  C   UNL     1       6.645   5.504  18.121  0.00  0.00    +0.000 C 
ENDBRANCH  18  25
ENDBRANCH  17  23
ENDBRANCH   1  17
TORSDOF 4
ENDMDL
MODEL 6
REMARK VINA RESULT:      -7.3      2.165      3.629
REMARK  Name = 
REMARK  7 active torsions:
REMARK  status: ('A' for Active; 'I' for Inactive)
REMARK    1  A    between atoms: C_1  and  C_2
REMARK    2  A    between atoms: C_2  and  C_3
REMARK    3  A    between atoms: C_6  and  C_7
REMARK    4  A    between atoms: C_8  and  C_9
REMARK    5  A    between atoms: C_9  and  N_10
REMARK    6  A    between atoms: N_13  and  C_14
REMARK    7  A    between atoms: C_19  and  C_20
REMARK                            x       y       z     vdW  Elec       q    Type
REMARK                         _______ _______ _______ _____ _____    ______ ____
ROOT
ATOM      1  N   UNL     1       4.342   3.458  17.321  0.00  0.00    +0.000 N 
ATOM      2  C   UNL     1       3.654   2.615  18.152  0.00  0.00    +0.000 C 
ATOM      3  O   UNL     1       3.727   1.395  18.090  0.00  0.00    +0.000 OA
ATOM      4  N   UNL     1       2.957   3.228  19.163  0.00  0.00    +0.000 N 
ATOM      5  H   UNL     1       4.601   4.342  17.739  0.00  0.00    +0.000 HD
ATOM      6  H   UNL     1       2.766   2.601  19.938  0.00  0.00    +0.000 HD
ENDROOT
BRANCH   4   7
ATOM      7  C   UNL     1       2.605   4.547  19.292  0.00  0.00    +0.000 A 
ATOM      8  C   UNL     1       2.014   4.934  20.569  0.00  0.00    +0.000 A 
ATOM      9  C   UNL     1       1.738   6.230  20.798  0.00  0.00    +0.000 A 
ATOM     10  N   UNL     1       1.949   7.156  19.781  0.00  0.00    +0.000 N 
ATOM     11  C   UNL     1       1.724   8.507  19.769  0.00  0.00    +0.000 A 
ATOM     12  C   UNL     1       2.049   8.929  18.495  0.00  0.00    +0.000 A 
ATOM     13  C   UNL     1       1.954  10.284  17.913  0.00  0.00    +0.000 C 
ATOM     14  N   UNL     1       2.504   7.873  17.739  0.00  0.00    +0.000 NA
ATOM     15  C   UNL     1       2.445   6.822  18.531  0.00  0.00    +0.000 A 
ATOM     16  C   UNL     1       2.800   5.460  18.315  0.00  0.00    +0.000 A 
ENDBRANCH   4   7
BRANCH   1  17
ATOM     17  C   UNL     1       5.267   2.909  16.362  0.00  0.00    +0.000 C 
BRANCH  17  23
ATOM     18  C   UNL     1       6.106   4.411  14.436  0.00  0.00    +0.000 A 
ATOM     19  O   UNL     1       7.014   5.414  14.300  0.00  0.00    +0.000 OA
ATOM     20  N   UNL     1       7.578   5.698  15.524  0.00  0.00    +0.000 NA
ATOM     21  C   UNL     1       7.015   4.851  16.393  0.00  0.00    +0.000 A 
ATOM     22  C   UNL     1       7.429   4.884  17.816  0.00  0.00    +0.000 C 
ATOM     23  C   UNL     1       6.066   4.001  15.755  0.00  0.00    +0.000 A 
BRANCH  18  25
ATOM     24  C   UNL     1       6.367   3.331  12.205  0.00  0.00    +0.000 C 
ATOM     25  C   UNL     1       5.416   3.988  13.192  0.00  0.00    +0.000 C 
ENDBRANCH  18  25
ENDBRANCH  17  23
ENDBRANCH   1  17
TORSDOF 4
ENDMDL
MODEL 7
REMARK VINA RESULT:      -7.2      1.072      2.678
REMARK  Name = 
REMARK  7 active torsions:
REMARK  status: ('A' for Active; 'I' for Inactive)
REMARK    1  A    between atoms: C_1  and  C_2
REMARK    2  A    between atoms: C_2  and  C_3
REMARK    3  A    between atoms: C_6  and  C_7
REMARK    4  A    between atoms: C_8  and  C_9
REMARK    5  A    between atoms: C_9  and  N_10
REMARK    6  A    between atoms: N_13  and  C_14
REMARK    7  A    between atoms: C_19  and  C_20
REMARK                            x       y       z     vdW  Elec       q    Type
REMARK                         _______ _______ _______ _____ _____    ______ ____
ROOT
ATOM      1  N   UNL     1       4.776   5.241  18.917  0.00  0.00    +0.000 N 
ATOM      2  C   UNL     1       3.737   4.368  18.731  0.00  0.00    +0.000 C 
ATOM      3  O   UNL     1       3.883   3.212  18.358  0.00  0.00    +0.000 OA
ATOM      4  N   UNL     1       2.505   4.834  19.113  0.00  0.00    +0.000 N 
ATOM      5  H   UNL     1       4.625   5.925  19.646  0.00  0.00    +0.000 HD
ATOM      6  H   UNL     1       1.847   4.084  19.297  0.00  0.00    +0.000 HD
ENDROOT
BRANCH   4   7
ATOM      7  C   UNL     1       2.111   6.122  19.371  0.00  0.00    +0.000 A 
ATOM      8  C   UNL     1       1.566   6.375  20.702  0.00  0.00    +0.000 A 
ATOM      9  C   UNL     1       1.253   7.634  21.055  0.00  0.00    +0.000 A 
ATOM     10  N   UNL     1       1.383   8.651  20.114  0.00  0.00    +0.000 N 
ATOM     11  C   UNL     1       1.108   9.988  20.229  0.00  0.00    +0.000 A 
ATOM     12  C   UNL     1       1.358  10.530  18.984  0.00  0.00    +0.000 A 
ATOM     13  C   UNL     1       1.187  11.925  18.527  0.00  0.00    +0.000 C 
ATOM     14  N   UNL     1       1.817   9.562  18.121  0.00  0.00    +0.000 NA
ATOM     15  C   UNL     1       1.833   8.446  18.819  0.00  0.00    +0.000 A 
ATOM     16  C   UNL     1       2.227   7.123  18.471  0.00  0.00    +0.000 A 
ENDBRANCH   4   7
BRANCH   1  17
ATOM     17  C   UNL     1       6.130   4.778  18.745  0.00  0.00    +0.000 C 
BRANCH  17  23
ATOM     18  C   UNL     1       6.638   4.962  16.219  0.00  0.00    +0.000 A 
ATOM     19  O   UNL     1       7.367   5.790  15.424  0.00  0.00    +0.000 OA
ATOM     20  N   UNL     1       7.928   6.790  16.187  0.00  0.00    +0.000 NA
ATOM     21  C   UNL     1       7.545   6.550  17.446  0.00  0.00    +0.000 A 
ATOM     22  C   UNL     1       8.006   7.447  18.533  0.00  0.00    +0.000 C 
ATOM     23  C   UNL     1       6.719   5.392  17.530  0.00  0.00    +0.000 A 
BRANCH  18  25
ATOM     24  C   UNL     1       5.992   3.977  14.022  0.00  0.00    +0.000 C 
ATOM     25  C   UNL     1       5.973   3.825  15.535  0.00  0.00    +0.000 C 
ENDBRANCH  18  25
ENDBRANCH  17  23
ENDBRANCH   1  17
TORSDOF 4
ENDMDL
MODEL 8
REMARK VINA RESULT:      -7.2      2.491      6.984
REMARK  Name = 
REMARK  7 active torsions:
REMARK  status: ('A' for Active; 'I' for Inactive)
REMARK    1  A    between atoms: C_1  and  C_2
REMARK    2  A    between atoms: C_2  and  C_3
REMARK    3  A    between atoms: C_6  and  C_7
REMARK    4  A    between atoms: C_8  and  C_9
REMARK    5  A    between atoms: C_9  and  N_10
REMARK    6  A    between atoms: N_13  and  C_14
REMARK    7  A    between atoms: C_19  and  C_20
REMARK                            x       y       z     vdW  Elec       q    Type
REMARK                         _______ _______ _______ _____ _____    ______ ____
ROOT
ATOM      1  N   UNL     1       2.745   6.251  19.860  0.00  0.00    +0.000 N 
ATOM      2  C   UNL     1       2.732   4.981  20.373  0.00  0.00    +0.000 C 
ATOM      3  O   UNL     1       2.071   4.651  21.349  0.00  0.00    +0.000 OA
ATOM      4  N   UNL     1       3.422   4.047  19.641  0.00  0.00    +0.000 N 
ATOM      5  H   UNL     1       2.887   6.300  18.860  0.00  0.00    +0.000 HD
ATOM      6  H   UNL     1       3.110   3.100  19.831  0.00  0.00    +0.000 HD
ENDROOT
BRANCH   4   7
ATOM      7  C   UNL     1       4.353   4.240  18.654  0.00  0.00    +0.000 A 
ATOM      8  C   UNL     1       5.657   4.734  19.086  0.00  0.00    +0.000 A 
ATOM      9  C   UNL     1       6.646   4.852  18.183  0.00  0.00    +0.000 A 
ATOM     10  N   UNL     1       6.377   4.575  16.846  0.00  0.00    +0.000 N 
ATOM     11  C   UNL     1       7.203   4.644  15.755  0.00  0.00    +0.000 A 
ATOM     12  C   UNL     1       6.415   4.323  14.668  0.00  0.00    +0.000 A 
ATOM     13  C   UNL     1       6.779   4.284  13.236  0.00  0.00    +0.000 C 
ATOM     14  N   UNL     1       5.135   4.020  15.073  0.00  0.00    +0.000 NA
ATOM     15  C   UNL     1       5.135   4.169  16.381  0.00  0.00    +0.000 A 
ATOM     16  C   UNL     1       4.110   3.980  17.350  0.00  0.00    +0.000 A 
ENDBRANCH   4   7
BRANCH   1  17
ATOM     17  C   UNL     1       1.886   7.255  20.435  0.00  0.00    +0.000 C 
BRANCH  17  23
ATOM     18  C   UNL     1       0.885   9.476  19.575  0.00  0.00    +0.000 A 
ATOM     19  O   UNL     1       0.997  10.230  18.450  0.00  0.00    +0.000 OA
ATOM     20  N   UNL     1       1.911   9.655  17.595  0.00  0.00    +0.000 NA
ATOM     21  C   UNL     1       2.336   8.543  18.206  0.00  0.00    +0.000 A 
ATOM     22  C   UNL     1       3.324   7.670  17.528  0.00  0.00    +0.000 C 
ATOM     23  C   UNL     1       1.713   8.374  19.477  0.00  0.00    +0.000 A 
BRANCH  18  25
ATOM     24  C   UNL     1      -0.867  11.169  20.100  0.00  0.00    +0.000 C 
ATOM     25  C   UNL     1      -0.074   9.970  20.595  0.00  0.00    +0.000 C 
ENDBRANCH  18  25
ENDBRANCH  17  23
ENDBRANCH   1  17
TORSDOF 4
ENDMDL
MODEL 9
REMARK VINA RESULT:      -7.1      2.781      4.593
REMARK  Name = 
REMARK  7 active torsions:
REMARK  status: ('A' for Active; 'I' for Inactive)
REMARK    1  A    between atoms: C_1  and  C_2
REMARK    2  A    between atoms: C_2  and  C_3
REMARK    3  A    between atoms: C_6  and  C_7
REMARK    4  A    between atoms: C_8  and  C_9
REMARK    5  A    between atoms: C_9  and  N_10
REMARK    6  A    between atoms: N_13  and  C_14
REMARK    7  A    between atoms: C_19  and  C_20
REMARK                            x       y       z     vdW  Elec       q    Type
REMARK                         _______ _______ _______ _____ _____    ______ ____
ROOT
ATOM      1  N   UNL     1       2.869   6.704  19.581  0.00  0.00    +0.000 N 
ATOM      2  C   UNL     1       2.826   7.574  18.525  0.00  0.00    +0.000 C 
ATOM      3  O   UNL     1       3.489   7.435  17.505  0.00  0.00    +0.000 OA
ATOM      4  N   UNL     1       1.886   8.569  18.623  0.00  0.00    +0.000 N 
ATOM      5  H   UNL     1       2.001   6.620  20.093  0.00  0.00    +0.000 HD
ATOM      6  H   UNL     1       1.637   8.957  17.719  0.00  0.00    +0.000 HD
ENDROOT
BRANCH   4   7
ATOM      7  C   UNL     1       1.195   8.998  19.727  0.00  0.00    +0.000 A 
ATOM      8  C   UNL     1       1.366   8.205  20.941  0.00  0.00    +0.000 A 
ATOM      9  C   UNL     1       0.796   8.625  22.085  0.00  0.00    +0.000 A 
ATOM     10  N   UNL     1      -0.005   9.762  22.062  0.00  0.00    +0.000 N 
ATOM     11  C   UNL     1      -0.700  10.362  23.079  0.00  0.00    +0.000 A 
ATOM     12  C   UNL     1      -1.374  11.418  22.499  0.00  0.00    +0.000 A 
ATOM     13  C   UNL     1      -2.309  12.378  23.123  0.00  0.00    +0.000 C 
ATOM     14  N   UNL     1      -1.077  11.502  21.159  0.00  0.00    +0.000 NA
ATOM     15  C   UNL     1      -0.249  10.506  20.918  0.00  0.00    +0.000 A 
ATOM     16  C   UNL     1       0.410  10.097  19.725  0.00  0.00    +0.000 A 
ENDBRANCH   4   7
BRANCH   1  17
ATOM     17  C   UNL     1       3.672   5.510  19.483  0.00  0.00    +0.000 C 
BRANCH  17  23
ATOM     18  C   UNL     1       1.783   3.772  19.197  0.00  0.00    +0.000 A 
ATOM     19  O   UNL     1       1.439   2.844  18.265  0.00  0.00    +0.000 OA
ATOM     20  N   UNL     1       2.317   2.903  17.205  0.00  0.00    +0.000 NA
ATOM     21  C   UNL     1       3.199   3.860  17.513  0.00  0.00    +0.000 A 
ATOM     22  C   UNL     1       4.307   4.161  16.574  0.00  0.00    +0.000 C 
ATOM     23  C   UNL     1       2.910   4.452  18.777  0.00  0.00    +0.000 A 
BRANCH  18  25
ATOM     24  C   UNL     1       1.356   2.812  21.457  0.00  0.00    +0.000 C 
ATOM     25  C   UNL     1       0.926   3.825  20.407  0.00  0.00    +0.000 C 
ENDBRANCH  18  25
ENDBRANCH  17  23
ENDBRANCH   1  17
TORSDOF 4
ENDMDL
