MODEL 1
REMARK VINA RESULT:      -7.7      0.000      0.000
REMARK  Name = 
REMARK  4 active torsions:
REMARK  status: ('A' for Active; 'I' for Inactive)
REMARK    1  A    between atoms: C_1  and  C_2
REMARK    2  A    between atoms: C_2  and  C_3
REMARK    3  A    between atoms: C_5  and  C_6
REMARK    4  A    between atoms: C_14  and  C_15
REMARK                            x       y       z     vdW  Elec       q    Type
REMARK                         _______ _______ _______ _____ _____    ______ ____
ROOT
ATOM      1  C   UNL     1       4.336   3.887  17.823  0.00  0.00    +0.000 C 
ATOM      2  O   UNL     1       4.411   2.907  18.564  0.00  0.00    +0.000 OA
ATOM      3  N   UNL     1       3.422   4.926  18.087  0.00  0.00    +0.000 N 
ATOM      4  C   UNL     1       2.595   4.859  19.298  0.00  0.00    +0.000 C 
ATOM      5  C   UNL     1       2.947   5.963  20.292  0.00  0.00    +0.000 C 
ATOM      6  C   UNL     1       2.249   7.278  19.964  0.00  0.00    +0.000 A 
ATOM      7  N   UNL     1       1.364   7.703  20.827  0.00  0.00    +0.000 NA
ATOM      8  C   UNL     1       0.753   8.914  20.505  0.00  0.00    +0.000 A 
ATOM      9  C   UNL     1      -0.217   9.557  21.323  0.00  0.00    +0.000 A 
ATOM     10  C   UNL     1      -0.731   9.066  22.629  0.00  0.00    +0.000 C 
ATOM     11  C   UNL     1      -0.628  10.739  20.720  0.00  0.00    +0.000 A 
ATOM     12  S   UNL     1       0.149  11.033  19.220  0.00  0.00    +0.000 S 
ATOM     13  C   UNL     1       1.034   9.596  19.356  0.00  0.00    +0.000 A 
ATOM     14  C   UNL     1       1.977   9.136  18.393  0.00  0.00    +0.000 A 
ATOM     15  O   UNL     1       2.242   9.714  17.338  0.00  0.00    +0.000 OA
ATOM     16  N   UNL     1       2.594   7.936  18.786  0.00  0.00    +0.000 N 
ATOM     17  C   UNL     1       3.633   7.420  17.910  0.00  0.00    +0.000 C 
ATOM     18  C   UNL     1       3.225   6.113  17.244  0.00  0.00    +0.000 C 
ENDROOT
BRANCH   1  21
ATOM     19  C   UNL     1       6.330   4.181  14.791  0.00  0.00    +0.000 A 
ATOM     20  C   UNL     1       5.064   3.912  15.353  0.00  0.00    +0.000 A 
ATOM     21  C   UNL     1       5.256   4.037  16.707  0.00  0.00    +0.000 A 
ATOM     22  O   UNL     1       6.539   4.441  16.916  0.00  0.00    +0.000 OA
ATOM     23  N   UNL     1       7.236   4.455  15.733  0.00  0.00    +0.000 NA
BRANCH  19  25
ATOM     24  C   UNL     1       5.774   3.323  12.535  0.00  0.00    +0.000 C 
ATOM     25  C   UNL     1       6.681   4.229  13.354  0.00  0.00    +0.000 C 
ENDBRANCH  19  25
ENDBRANCH   1  21
TORSDOF 2
ENDMDL
MODEL 2
REMARK VINA RESULT:      -7.2      0.886      1.002
REMARK  Name = 
REMARK  4 active torsions:
REMARK  status: ('A' for Active; 'I' for Inactive)
REMARK    1  A    between atoms: C_1  and  C_2
REMARK    2  A    between atoms: C_2  and  C_3
REMARK    3  A    between atoms: C_5  and  C_6
REMARK    4  A    between atoms: C_14  and  C_15
REMARK                            x       y       z     vdW  Elec       q    Type
REMARK                         _______ _______ _______ _____ _____    ______ ____
ROOT
ATOM      1  C   UNL     1       3.734   4.099  18.692  0.00  0.00    +0.000 C 
ATOM      2  O   UNL     1       3.787   3.225  19.556  0.00  0.00    +0.000 OA
ATOM      3  N   UNL     1       2.861   5.197  18.824  0.00  0.00    +0.000 N 
ATOM      4  C   UNL     1       2.052   5.323  20.043  0.00  0.00    +0.000 C 
ATOM      5  C   UNL     1       2.458   6.536  20.876  0.00  0.00    +0.000 C 
ATOM      6  C   UNL     1       1.802   7.820  20.383  0.00  0.00    +0.000 A 
ATOM      7  N   UNL     1       0.946   8.388  21.191  0.00  0.00    +0.000 NA
ATOM      8  C   UNL     1       0.372   9.567  20.716  0.00  0.00    +0.000 A 
ATOM      9  C   UNL     1      -0.561  10.349  21.453  0.00  0.00    +0.000 A 
ATOM     10  C   UNL     1      -1.070  10.056  22.819  0.00  0.00    +0.000 C 
ATOM     11  C   UNL     1      -0.941  11.454  20.701  0.00  0.00    +0.000 A 
ATOM     12  S   UNL     1      -0.179  11.517  19.167  0.00  0.00    +0.000 S 
ATOM     13  C   UNL     1       0.658  10.079  19.483  0.00  0.00    +0.000 A 
ATOM     14  C   UNL     1       1.568   9.461  18.580  0.00  0.00    +0.000 A 
ATOM     15  O   UNL     1       1.836   9.882  17.454  0.00  0.00    +0.000 OA
ATOM     16  N   UNL     1       2.149   8.302  19.123  0.00  0.00    +0.000 N 
ATOM     17  C   UNL     1       3.155   7.636  18.312  0.00  0.00    +0.000 C 
ATOM     18  C   UNL     1       2.691   6.267  17.833  0.00  0.00    +0.000 C 
ENDROOT
BRANCH   1  21
ATOM     19  C   UNL     1       5.683   3.929  15.621  0.00  0.00    +0.000 A 
ATOM     20  C   UNL     1       4.413   3.812  16.225  0.00  0.00    +0.000 A 
ATOM     21  C   UNL     1       4.640   4.065  17.555  0.00  0.00    +0.000 A 
ATOM     22  O   UNL     1       5.952   4.397  17.704  0.00  0.00    +0.000 OA
ATOM     23  N   UNL     1       6.625   4.237  16.518  0.00  0.00    +0.000 NA
BRANCH  19  25
ATOM     24  C   UNL     1       7.123   4.755  13.783  0.00  0.00    +0.000 C 
ATOM     25  C   UNL     1       6.008   3.800  14.183  0.00  0.00    +0.000 C 
ENDBRANCH  19  25
ENDBRANCH   1  21
TORSDOF 2
ENDMDL
MODEL 3
REMARK VINA RESULT:      -7.1      2.965      8.823
REMARK  Name = 
REMARK  4 active torsions:
REMARK  status: ('A' for Active; 'I' for Inactive)
REMARK    1  A    between atoms: C_1  and  C_2
REMARK    2  A    between atoms: C_2  and  C_3
REMARK    3  A    between atoms: C_5  and  C_6
REMARK    4  A    between atoms: C_14  and  C_15
REMARK                            x       y       z     vdW  Elec       q    Type
REMARK                         _______ _______ _______ _____ _____    ______ ____
ROOT
ATOM      1  C   UNL     1       0.139  11.053  19.414  0.00  0.00    +0.000 C 
ATOM      2  O   UNL     1       0.318  11.945  18.585  0.00  0.00    +0.000 OA
ATOM      3  N   UNL     1       0.546   9.730  19.155  0.00  0.00    +0.000 N 
ATOM      4  C   UNL     1       1.248   9.432  17.900  0.00  0.00    +0.000 C 
ATOM      5  C   UNL     1       2.695   9.008  18.139  0.00  0.00    +0.000 C 
ATOM      6  C   UNL     1       2.813   7.528  18.484  0.00  0.00    +0.000 A 
ATOM      7  N   UNL     1       3.437   6.774  17.618  0.00  0.00    +0.000 NA
ATOM      8  C   UNL     1       3.539   5.427  17.967  0.00  0.00    +0.000 A 
ATOM      9  C   UNL     1       4.201   4.449  17.174  0.00  0.00    +0.000 A 
ATOM     10  C   UNL     1       4.884   4.685  15.874  0.00  0.00    +0.000 C 
ATOM     11  C   UNL     1       4.122   3.210  17.798  0.00  0.00    +0.000 A 
ATOM     12  S   UNL     1       3.273   3.261  19.287  0.00  0.00    +0.000 S 
ATOM     13  C   UNL     1       2.999   4.923  19.116  0.00  0.00    +0.000 A 
ATOM     14  C   UNL     1       2.295   5.725  20.058  0.00  0.00    +0.000 A 
ATOM     15  O   UNL     1       1.780   5.304  21.094  0.00  0.00    +0.000 OA
ATOM     16  N   UNL     1       2.258   7.078  19.680  0.00  0.00    +0.000 N 
ATOM     17  C   UNL     1       1.630   7.999  20.613  0.00  0.00    +0.000 C 
ATOM     18  C   UNL     1       0.341   8.589  20.057  0.00  0.00    +0.000 C 
ENDROOT
BRANCH   1  21
ATOM     19  C   UNL     1      -1.586  11.932  22.498  0.00  0.00    +0.000 A 
ATOM     20  C   UNL     1      -1.652  11.835  21.092  0.00  0.00    +0.000 A 
ATOM     21  C   UNL     1      -0.415  11.366  20.722  0.00  0.00    +0.000 A 
ATOM     22  O   UNL     1       0.300  11.121  21.854  0.00  0.00    +0.000 OA
ATOM     23  N   UNL     1      -0.394  11.547  22.961  0.00  0.00    +0.000 NA
BRANCH  19  25
ATOM     24  C   UNL     1      -3.911  12.771  22.654  0.00  0.00    +0.000 C 
ATOM     25  C   UNL     1      -2.668  12.345  23.420  0.00  0.00    +0.000 C 
ENDBRANCH  19  25
ENDBRANCH   1  21
TORSDOF 2
ENDMDL
MODEL 4
REMARK VINA RESULT:      -6.8      1.481      1.850
REMARK  Name = 
REMARK  4 active torsions:
REMARK  status: ('A' for Active; 'I' for Inactive)
REMARK    1  A    between atoms: C_1  and  C_2
REMARK    2  A    between atoms: C_2  and  C_3
REMARK    3  A    between atoms: C_5  and  C_6
REMARK    4  A    between atoms: C_14  and  C_15
REMARK                            x       y       z     vdW  Elec       q    Type
REMARK                         _______ _______ _______ _____ _____    ______ ____
ROOT
ATOM      1  C   UNL     1       3.291   4.484  19.259  0.00  0.00    +0.000 C 
ATOM      2  O   UNL     1       3.362   3.707  20.210  0.00  0.00    +0.000 OA
ATOM      3  N   UNL     1       2.434   5.602  19.299  0.00  0.00    +0.000 N 
ATOM      4  C   UNL     1       1.664   5.867  20.520  0.00  0.00    +0.000 C 
ATOM      5  C   UNL     1       2.107   7.157  21.208  0.00  0.00    +0.000 C 
ATOM      6  C   UNL     1       1.449   8.390  20.600  0.00  0.00    +0.000 A 
ATOM      7  N   UNL     1       0.625   9.052  21.367  0.00  0.00    +0.000 NA
ATOM      8  C   UNL     1       0.049  10.182  20.786  0.00  0.00    +0.000 A 
ATOM      9  C   UNL     1      -0.854  11.049  21.462  0.00  0.00    +0.000 A 
ATOM     10  C   UNL     1      -1.324  10.909  22.866  0.00  0.00    +0.000 C 
ATOM     11  C   UNL     1      -1.245  12.074  20.608  0.00  0.00    +0.000 A 
ATOM     12  S   UNL     1      -0.529  11.963  19.054  0.00  0.00    +0.000 S 
ATOM     13  C   UNL     1       0.302  10.555  19.498  0.00  0.00    +0.000 A 
ATOM     14  C   UNL     1       1.178   9.832  18.639  0.00  0.00    +0.000 A 
ATOM     15  O   UNL     1       1.417  10.128  17.468  0.00  0.00    +0.000 OA
ATOM     16  N   UNL     1       1.764   8.731  19.286  0.00  0.00    +0.000 N 
ATOM     17  C   UNL     1       2.738   7.968  18.521  0.00  0.00    +0.000 C 
ATOM     18  C   UNL     1       2.246   6.563  18.205  0.00  0.00    +0.000 C 
ENDROOT
BRANCH   1  21
ATOM     19  C   UNL     1       5.750   4.265  16.583  0.00  0.00    +0.000 A 
ATOM     20  C   UNL     1       5.453   4.730  17.882  0.00  0.00    +0.000 A 
ATOM     21  C   UNL     1       4.162   4.318  18.107  0.00  0.00    +0.000 A 
ATOM     22  O   UNL     1       3.761   3.580  17.036  0.00  0.00    +0.000 OA
ATOM     23  N   UNL     1       4.716   3.610  16.048  0.00  0.00    +0.000 NA
BRANCH  19  25
ATOM     24  C   UNL     1       6.804   4.755  14.396  0.00  0.00    +0.000 C 
ATOM     25  C   UNL     1       7.033   4.394  15.856  0.00  0.00    +0.000 C 
ENDBRANCH  19  25
ENDBRANCH   1  21
TORSDOF 2
ENDMDL
MODEL 5
REMARK VINA RESULT:      -6.5      3.671      5.680
REMARK  Name = 
REMARK  4 active torsions:
REMARK  status: ('A' for Active; 'I' for Inactive)
REMARK    1  A    between atoms: C_1  and  C_2
REMARK    2  A    between atoms: C_2  and  C_3
REMARK    3  A    between atoms: C_5  and  C_6
REMARK    4  A    between atoms: C_14  and  C_15
REMARK                            x       y       z     vdW  Elec       q    Type
REMARK                         _______ _______ _______ _____ _____    ______ ____
ROOT
ATOM      1  C   UNL     1       2.224   7.861  18.619  0.00  0.00    +0.000 C 
ATOM      2  O   UNL     1       2.346   7.969  17.399  0.00  0.00    +0.000 OA
ATOM      3  N   UNL     1       1.675   8.907  19.388  0.00  0.00    +0.000 N 
ATOM      4  C   UNL     1       1.191  10.114  18.708  0.00  0.00    +0.000 C 
ATOM      5  C   UNL     1      -0.323  10.271  18.830  0.00  0.00    +0.000 C 
ATOM      6  C   UNL     1      -0.731  10.924  20.146  0.00  0.00    +0.000 A 
ATOM      7  N   UNL     1      -1.286  12.104  20.066  0.00  0.00    +0.000 NA
ATOM      8  C   UNL     1      -1.659  12.670  21.285  0.00  0.00    +0.000 A 
ATOM      9  C   UNL     1      -2.299  13.934  21.412  0.00  0.00    +0.000 A 
ATOM     10  C   UNL     1      -2.675  14.845  20.298  0.00  0.00    +0.000 C 
ATOM     11  C   UNL     1      -2.532  14.207  22.754  0.00  0.00    +0.000 A 
ATOM     12  S   UNL     1      -1.987  12.961  23.798  0.00  0.00    +0.000 S 
ATOM     13  C   UNL     1      -1.434  12.051  22.481  0.00  0.00    +0.000 A 
ATOM     14  C   UNL     1      -0.808  10.776  22.589  0.00  0.00    +0.000 A 
ATOM     15  O   UNL     1      -0.573  10.196  23.649  0.00  0.00    +0.000 OA
ATOM     16  N   UNL     1      -0.493  10.233  21.331  0.00  0.00    +0.000 N 
ATOM     17  C   UNL     1       0.079   8.896  21.324  0.00  0.00    +0.000 C 
ATOM     18  C   UNL     1       1.525   8.894  20.849  0.00  0.00    +0.000 C 
ENDROOT
BRANCH   1  21
ATOM     19  C   UNL     1       2.689   4.737  20.430  0.00  0.00    +0.000 A 
ATOM     20  C   UNL     1       1.821   5.804  20.115  0.00  0.00    +0.000 A 
ATOM     21  C   UNL     1       2.558   6.612  19.283  0.00  0.00    +0.000 A 
ATOM     22  O   UNL     1       3.756   6.005  19.058  0.00  0.00    +0.000 OA
ATOM     23  N   UNL     1       3.875   4.877  19.833  0.00  0.00    +0.000 NA
BRANCH  19  25
ATOM     24  C   UNL     1       1.073   2.906  20.843  0.00  0.00    +0.000 C 
ATOM     25  C   UNL     1       2.386   3.551  21.261  0.00  0.00    +0.000 C 
ENDBRANCH  19  25
ENDBRANCH   1  21
TORSDOF 2
ENDMDL
MODEL 6
REMARK VINA RESULT:      -6.4      3.425      5.252
REMARK  Name = 
REMARK  4 active torsions:
REMARK  status: ('A' for Active; 'I' for Inactive)
REMARK    1  A    between atoms: C_1  and  C_2
REMARK    2  A    between atoms: C_2  and  C_3
REMARK    3  A    between atoms: C_5  and  C_6
REMARK    4  A    between atoms: C_14  and  C_15
REMARK                            x       y       z     vdW  Elec       q    Type
REMARK                         _______ _______ _______ _____ _____    ______ ____
ROOT
ATOM      1  C   UNL     1       2.662   7.152  18.411  0.00  0.00    +0.000 C 
ATOM      2  O   UNL     1       3.013   7.293  17.239  0.00  0.00    +0.000 OA
ATOM      3  N   UNL     1       2.170   8.242  19.156  0.00  0.00    +0.000 N 
ATOM      4  C   UNL     1       2.020   9.546  18.499  0.00  0.00    +0.000 C 
ATOM      5  C   UNL     1       0.556   9.963  18.383  0.00  0.00    +0.000 C 
ATOM      6  C   UNL     1       0.039  10.617  19.659  0.00  0.00    +0.000 A 
ATOM      7  N   UNL     1      -0.288  11.879  19.579  0.00  0.00    +0.000 NA
ATOM      8  C   UNL     1      -0.769  12.445  20.760  0.00  0.00    +0.000 A 
ATOM      9  C   UNL     1      -1.201  13.795  20.875  0.00  0.00    +0.000 A 
ATOM     10  C   UNL     1      -1.219  14.809  19.788  0.00  0.00    +0.000 C 
ATOM     11  C   UNL     1      -1.617  14.043  22.178  0.00  0.00    +0.000 A 
ATOM     12  S   UNL     1      -1.478  12.673  23.199  0.00  0.00    +0.000 S 
ATOM     13  C   UNL     1      -0.863  11.741  21.927  0.00  0.00    +0.000 A 
ATOM     14  C   UNL     1      -0.487  10.373  22.038  0.00  0.00    +0.000 A 
ATOM     15  O   UNL     1      -0.541   9.712  23.076  0.00  0.00    +0.000 OA
ATOM     16  N   UNL     1      -0.052   9.841  20.812  0.00  0.00    +0.000 N 
ATOM     17  C   UNL     1       0.281   8.425  20.797  0.00  0.00    +0.000 C 
ATOM     18  C   UNL     1       1.767   8.188  20.567  0.00  0.00    +0.000 C 
ENDROOT
BRANCH   1  21
ATOM     19  C   UNL     1       2.270   3.837  19.865  0.00  0.00    +0.000 A 
ATOM     20  C   UNL     1       1.647   4.932  19.228  0.00  0.00    +0.000 A 
ATOM     21  C   UNL     1       2.662   5.834  19.024  0.00  0.00    +0.000 A 
ATOM     22  O   UNL     1       3.826   5.262  19.439  0.00  0.00    +0.000 OA
ATOM     23  N   UNL     1       3.578   4.051  20.038  0.00  0.00    +0.000 NA
BRANCH  19  25
ATOM     24  C   UNL     1       1.327   2.551  21.759  0.00  0.00    +0.000 C 
ATOM     25  C   UNL     1       1.644   2.560  20.271  0.00  0.00    +0.000 C 
ENDBRANCH  19  25
ENDBRANCH   1  21
TORSDOF 2
ENDMDL
MODEL 7
REMARK VINA RESULT:      -6.4      3.515      8.873
REMARK  Name = 
REMARK  4 active torsions:
REMARK  status: ('A' for Active; 'I' for Inactive)
REMARK    1  A    between atoms: C_1  and  C_2
REMARK    2  A    between atoms: C_2  and  C_3
REMARK    3  A    between atoms: C_5  and  C_6
REMARK    4  A    between atoms: C_14  and  C_15
REMARK                            x       y       z     vdW  Elec       q    Type
REMARK                         _______ _______ _______ _____ _____    ______ ____
ROOT
ATOM      1  C   UNL     1      -0.549  11.464  22.344  0.00  0.00    +0.000 C 
ATOM      2  O   UNL     1      -0.978  11.132  23.448  0.00  0.00    +0.000 OA
ATOM      3  N   UNL     1       0.393  10.667  21.663  0.00  0.00    +0.000 N 
ATOM      4  C   UNL     1       0.817   9.394  22.260  0.00  0.00    +0.000 C 
ATOM      5  C   UNL     1       0.359   8.194  21.435  0.00  0.00    +0.000 C 
ATOM      6  C   UNL     1       1.307   7.895  20.279  0.00  0.00    +0.000 A 
ATOM      7  N   UNL     1       1.958   6.763  20.334  0.00  0.00    +0.000 NA
ATOM      8  C   UNL     1       2.808   6.513  19.256  0.00  0.00    +0.000 A 
ATOM      9  C   UNL     1       3.583   5.329  19.115  0.00  0.00    +0.000 A 
ATOM     10  C   UNL     1       3.621   4.183  20.063  0.00  0.00    +0.000 C 
ATOM     11  C   UNL     1       4.321   5.391  17.939  0.00  0.00    +0.000 A 
ATOM     12  S   UNL     1       4.061   6.839  17.059  0.00  0.00    +0.000 S 
ATOM     13  C   UNL     1       2.973   7.398  18.230  0.00  0.00    +0.000 A 
ATOM     14  C   UNL     1       2.291   8.646  18.166  0.00  0.00    +0.000 A 
ATOM     15  O   UNL     1       2.428   9.477  17.268  0.00  0.00    +0.000 OA
ATOM     16  N   UNL     1       1.418   8.829  19.252  0.00  0.00    +0.000 N 
ATOM     17  C   UNL     1       0.611  10.039  19.243  0.00  0.00    +0.000 C 
ATOM     18  C   UNL     1       0.997  10.994  20.365  0.00  0.00    +0.000 C 
ENDROOT
BRANCH   1  21
ATOM     19  C   UNL     1      -1.523  14.593  20.758  0.00  0.00    +0.000 A 
ATOM     20  C   UNL     1      -0.535  13.889  21.479  0.00  0.00    +0.000 A 
ATOM     21  C   UNL     1      -1.076  12.642  21.674  0.00  0.00    +0.000 A 
ATOM     22  O   UNL     1      -2.273  12.595  21.028  0.00  0.00    +0.000 OA
ATOM     23  N   UNL     1      -2.595  13.831  20.523  0.00  0.00    +0.000 NA
BRANCH  19  25
ATOM     24  C   UNL     1      -0.482  16.071  19.065  0.00  0.00    +0.000 C 
ATOM     25  C   UNL     1      -1.440  15.978  20.242  0.00  0.00    +0.000 C 
ENDBRANCH  19  25
ENDBRANCH   1  21
TORSDOF 2
ENDMDL
MODEL 8
REMARK VINA RESULT:      -6.4      3.225      9.187
REMARK  Name = 
REMARK  4 active torsions:
REMARK  status: ('A' for Active; 'I' for Inactive)
REMARK    1  A    between atoms: C_1  and  C_2
REMARK    2  A    between atoms: C_2  and  C_3
REMARK    3  A    between atoms: C_5  and  C_6
REMARK    4  A    between atoms: C_14  and  C_15
REMARK                            x       y       z     vdW  Elec       q    Type
REMARK                         _______ _______ _______ _____ _____    ______ ____
ROOT
ATOM      1  C   UNL     1      -0.586  11.749  19.382  0.00  0.00    +0.000 C 
ATOM      2  O   UNL     1      -0.480  12.653  18.554  0.00  0.00    +0.000 OA
ATOM      3  N   UNL     1      -0.040  10.474  19.135  0.00  0.00    +0.000 N 
ATOM      4  C   UNL     1       0.715  10.247  17.897  0.00  0.00    +0.000 C 
ATOM      5  C   UNL     1       2.192   9.973  18.169  0.00  0.00    +0.000 C 
ATOM      6  C   UNL     1       2.452   8.513  18.520  0.00  0.00    +0.000 A 
ATOM      7  N   UNL     1       3.168   7.825  17.671  0.00  0.00    +0.000 NA
ATOM      8  C   UNL     1       3.399   6.496  18.027  0.00  0.00    +0.000 A 
ATOM      9  C   UNL     1       4.175   5.590  17.252  0.00  0.00    +0.000 A 
ATOM     10  C   UNL     1       4.858   5.893  15.966  0.00  0.00    +0.000 C 
ATOM     11  C   UNL     1       4.208   4.350  17.878  0.00  0.00    +0.000 A 
ATOM     12  S   UNL     1       3.326   4.316  19.347  0.00  0.00    +0.000 S 
ATOM     13  C   UNL     1       2.889   5.941  19.165  0.00  0.00    +0.000 A 
ATOM     14  C   UNL     1       2.086   6.668  20.089  0.00  0.00    +0.000 A 
ATOM     15  O   UNL     1       1.594   6.198  21.115  0.00  0.00    +0.000 OA
ATOM     16  N   UNL     1       1.921   8.011  19.706  0.00  0.00    +0.000 N 
ATOM     17  C   UNL     1       1.181   8.864  20.623  0.00  0.00    +0.000 C 
ATOM     18  C   UNL     1      -0.148   9.319  20.036  0.00  0.00    +0.000 C 
ENDROOT
BRANCH   1  21
ATOM     19  C   UNL     1      -2.467  12.390  22.432  0.00  0.00    +0.000 A 
ATOM     20  C   UNL     1      -2.510  12.187  21.036  0.00  0.00    +0.000 A 
ATOM     21  C   UNL     1      -1.197  12.005  20.676  0.00  0.00    +0.000 A 
ATOM     22  O   UNL     1      -0.442  12.015  21.809  0.00  0.00    +0.000 OA
ATOM     23  N   UNL     1      -1.217  12.334  22.898  0.00  0.00    +0.000 NA
BRANCH  19  25
ATOM     24  C   UNL     1      -3.376  13.765  24.280  0.00  0.00    +0.000 C 
ATOM     25  C   UNL     1      -3.615  12.590  23.344  0.00  0.00    +0.000 C 
ENDBRANCH  19  25
ENDBRANCH   1  21
TORSDOF 2
ENDMDL
MODEL 9
REMARK VINA RESULT:      -6.3      3.813      5.521
REMARK  Name = 
REMARK  4 active torsions:
REMARK  status: ('A' for Active; 'I' for Inactive)
REMARK    1  A    between atoms: C_1  and  C_2
REMARK    2  A    between atoms: C_2  and  C_3
REMARK    3  A    between atoms: C_5  and  C_6
REMARK    4  A    between atoms: C_14  and  C_15
REMARK                            x       y       z     vdW  Elec       q    Type
REMARK                         _______ _______ _______ _____ _____    ______ ____
ROOT
ATOM      1  C   UNL     1       2.333   7.140  18.933  0.00  0.00    +0.000 C 
ATOM      2  O   UNL     1       2.678   7.170  17.753  0.00  0.00    +0.000 OA
ATOM      3  N   UNL     1       1.916   8.312  19.596  0.00  0.00    +0.000 N 
ATOM      4  C   UNL     1       1.838   9.569  18.842  0.00  0.00    +0.000 C 
ATOM      5  C   UNL     1       0.400  10.065  18.703  0.00  0.00    +0.000 C 
ATOM      6  C   UNL     1      -0.062  10.844  19.929  0.00  0.00    +0.000 A 
ATOM      7  N   UNL     1      -0.313  12.114  19.754  0.00  0.00    +0.000 NA
ATOM      8  C   UNL     1      -0.746  12.797  20.891  0.00  0.00    +0.000 A 
ATOM      9  C   UNL     1      -1.094  14.176  20.905  0.00  0.00    +0.000 A 
ATOM     10  C   UNL     1      -1.062  15.103  19.743  0.00  0.00    +0.000 C 
ATOM     11  C   UNL     1      -1.480  14.548  22.187  0.00  0.00    +0.000 A 
ATOM     12  S   UNL     1      -1.413  13.254  23.310  0.00  0.00    +0.000 S 
ATOM     13  C   UNL     1      -0.869  12.191  22.108  0.00  0.00    +0.000 A 
ATOM     14  C   UNL     1      -0.576  10.815  22.323  0.00  0.00    +0.000 A 
ATOM     15  O   UNL     1      -0.659  10.239  23.408  0.00  0.00    +0.000 OA
ATOM     16  N   UNL     1      -0.187  10.165  21.139  0.00  0.00    +0.000 N 
ATOM     17  C   UNL     1       0.059   8.735  21.230  0.00  0.00    +0.000 C 
ATOM     18  C   UNL     1       1.526   8.391  21.010  0.00  0.00    +0.000 C 
ENDROOT
BRANCH   1  21
ATOM     19  C   UNL     1       2.527   3.912  20.606  0.00  0.00    +0.000 A 
ATOM     20  C   UNL     1       3.186   4.876  19.814  0.00  0.00    +0.000 A 
ATOM     21  C   UNL     1       2.259   5.875  19.646  0.00  0.00    +0.000 A 
ATOM     22  O   UNL     1       1.154   5.552  20.372  0.00  0.00    +0.000 OA
ATOM     23  N   UNL     1       1.282   4.293  20.907  0.00  0.00    +0.000 NA
BRANCH  19  25
ATOM     24  C   UNL     1       4.282   2.191  20.302  0.00  0.00    +0.000 C 
ATOM     25  C   UNL     1       3.086   2.644  21.125  0.00  0.00    +0.000 C 
ENDBRANCH  19  25
ENDBRANCH   1  21
TORSDOF 2
ENDMDL
