MODEL 1
REMARK VINA RESULT:      -8.9      0.000      0.000
REMARK  Name = 
REMARK  2 active torsions:
REMARK  status: ('A' for Active; 'I' for Inactive)
REMARK    1  A    between atoms: C_5  and  N_6
REMARK    2  A    between atoms: C_10  and  C_11
REMARK                            x       y       z     vdW  Elec       q    Type
REMARK                         _______ _______ _______ _____ _____    ______ ____
ROOT
ATOM      1  N   UNL     1       0.565  10.033  21.312  0.00  0.00    +0.000 N 
ATOM      2  N   UNL     1       0.821   9.013  22.196  0.00  0.00    +0.000 NA
ATOM      3  C   UNL     1       1.399   8.064  21.479  0.00  0.00    +0.000 A 
ATOM      4  C   UNL     1       1.583   8.352  20.096  0.00  0.00    +0.000 A 
ATOM      5  C   UNL     1       2.145   7.732  18.893  0.00  0.00    +0.000 A 
ATOM      6  C   UNL     1       2.166   8.607  17.793  0.00  0.00    +0.000 A 
ATOM      7  C   UNL     1       1.634   9.893  17.868  0.00  0.00    +0.000 A 
ATOM      8  N   UNL     1       1.056  10.450  18.935  0.00  0.00    +0.000 NA
ATOM      9  C   UNL     1       1.059   9.662  20.031  0.00  0.00    +0.000 A 
ENDROOT
BRANCH   5  10
ATOM     10  C   UNL     1       2.773   6.331  18.790  0.00  0.00    +0.000 A 
ATOM     11  C   UNL     1       3.794   6.074  17.902  0.00  0.00    +0.000 A 
ATOM     12  N   UNL     1       3.915   4.895  17.248  0.00  0.00    +0.000 NA
ATOM     13  C   UNL     1       2.891   4.013  17.417  0.00  0.00    +0.000 A 
ATOM     14  C   UNL     1       1.852   4.159  18.331  0.00  0.00    +0.000 A 
ATOM     15  C   UNL     1       1.112   3.027  18.686  0.00  0.00    +0.000 A 
ATOM     16  C   UNL     1       1.530   2.306  19.783  0.00  0.00    +0.000 A 
ATOM     17  C   UNL     1       2.389   2.962  20.636  0.00  0.00    +0.000 A 
ATOM     18  C   UNL     1       2.627   4.364  20.455  0.00  0.00    +0.000 A 
ATOM     19  C   UNL     1       2.214   5.101  19.281  0.00  0.00    +0.000 A 
ENDBRANCH   5  10
BRANCH   1  24
ATOM     20  F   UNL     1      -2.020  14.766  23.022  0.00  0.00    +0.000 F 
ATOM     21  C   UNL     1      -1.403  13.647  22.609  0.00  0.00    +0.000 A 
ATOM     22  C   UNL     1      -0.348  13.703  21.705  0.00  0.00    +0.000 A 
ATOM     23  C   UNL     1       0.302  12.520  21.280  0.00  0.00    +0.000 A 
ATOM     24  C   UNL     1      -0.100  11.253  21.754  0.00  0.00    +0.000 A 
ATOM     25  C   UNL     1      -1.167  11.218  22.673  0.00  0.00    +0.000 A 
ATOM     26  C   UNL     1      -1.827  12.404  23.096  0.00  0.00    +0.000 A 
ENDBRANCH   1  24
TORSDOF 2
ENDMDL
MODEL 2
REMARK VINA RESULT:      -8.8      1.031      1.087
REMARK  Name = 
REMARK  2 active torsions:
REMARK  status: ('A' for Active; 'I' for Inactive)
REMARK    1  A    between atoms: C_5  and  N_6
REMARK    2  A    between atoms: C_10  and  C_11
REMARK                            x       y       z     vdW  Elec       q    Type
REMARK                         _______ _______ _______ _____ _____    ______ ____
ROOT
ATOM      1  N   UNL     1       0.089  10.184  20.910  0.00  0.00    +0.000 N 
ATOM      2  N   UNL     1       0.075   9.255  21.921  0.00  0.00    +0.000 NA
ATOM      3  C   UNL     1       0.773   8.229  21.466  0.00  0.00    +0.000 A 
ATOM      4  C   UNL     1       1.307   8.372  20.152  0.00  0.00    +0.000 A 
ATOM      5  C   UNL     1       2.123   7.623  19.192  0.00  0.00    +0.000 A 
ATOM      6  C   UNL     1       2.453   8.382  18.056  0.00  0.00    +0.000 A 
ATOM      7  C   UNL     1       1.973   9.679  17.874  0.00  0.00    +0.000 A 
ATOM      8  N   UNL     1       1.172  10.350  18.704  0.00  0.00    +0.000 NA
ATOM      9  C   UNL     1       0.870   9.678  19.835  0.00  0.00    +0.000 A 
ENDROOT
BRANCH   5  10
ATOM     10  C   UNL     1       2.698   6.210  19.382  0.00  0.00    +0.000 A 
ATOM     11  C   UNL     1       4.003   5.923  19.051  0.00  0.00    +0.000 A 
ATOM     12  N   UNL     1       4.380   4.736  18.521  0.00  0.00    +0.000 NA
ATOM     13  C   UNL     1       3.371   3.877  18.207  0.00  0.00    +0.000 A 
ATOM     14  C   UNL     1       2.034   4.053  18.554  0.00  0.00    +0.000 A 
ATOM     15  C   UNL     1       1.189   2.939  18.535  0.00  0.00    +0.000 A 
ATOM     16  C   UNL     1       1.048   2.220  19.701  0.00  0.00    +0.000 A 
ATOM     17  C   UNL     1       1.445   2.866  20.851  0.00  0.00    +0.000 A 
ATOM     18  C   UNL     1       1.771   4.261  20.799  0.00  0.00    +0.000 A 
ATOM     19  C   UNL     1       1.949   4.996  19.566  0.00  0.00    +0.000 A 
ENDBRANCH   5  10
BRANCH   1  24
ATOM     20  F   UNL     1      -2.643  15.106  21.474  0.00  0.00    +0.000 F 
ATOM     21  C   UNL     1      -2.001  13.935  21.335  0.00  0.00    +0.000 A 
ATOM     22  C   UNL     1      -2.245  13.111  20.241  0.00  0.00    +0.000 A 
ATOM     23  C   UNL     1      -1.558  11.882  20.098  0.00  0.00    +0.000 A 
ATOM     24  C   UNL     1      -0.614  11.454  21.055  0.00  0.00    +0.000 A 
ATOM     25  C   UNL     1      -0.378  12.305  22.151  0.00  0.00    +0.000 A 
ATOM     26  C   UNL     1      -1.071  13.537  22.303  0.00  0.00    +0.000 A 
ENDBRANCH   1  24
TORSDOF 2
ENDMDL
MODEL 3
REMARK VINA RESULT:      -8.5      1.184      1.239
REMARK  Name = 
REMARK  2 active torsions:
REMARK  status: ('A' for Active; 'I' for Inactive)
REMARK    1  A    between atoms: C_5  and  N_6
REMARK    2  A    between atoms: C_10  and  C_11
REMARK                            x       y       z     vdW  Elec       q    Type
REMARK                         _______ _______ _______ _____ _____    ______ ____
ROOT
ATOM      1  N   UNL     1       0.499   9.167  20.950  0.00  0.00    +0.000 N 
ATOM      2  N   UNL     1       0.766   8.077  21.742  0.00  0.00    +0.000 NA
ATOM      3  C   UNL     1       1.563   7.306  21.021  0.00  0.00    +0.000 A 
ATOM      4  C   UNL     1       1.898   7.794  19.725  0.00  0.00    +0.000 A 
ATOM      5  C   UNL     1       2.702   7.409  18.562  0.00  0.00    +0.000 A 
ATOM      6  C   UNL     1       2.758   8.419  17.585  0.00  0.00    +0.000 A 
ATOM      7  C   UNL     1       2.049   9.612  17.722  0.00  0.00    +0.000 A 
ATOM      8  N   UNL     1       1.257   9.951  18.742  0.00  0.00    +0.000 NA
ATOM      9  C   UNL     1       1.214   9.030  19.728  0.00  0.00    +0.000 A 
ENDROOT
BRANCH   5  10
ATOM     10  C   UNL     1       3.523   6.119  18.400  0.00  0.00    +0.000 A 
ATOM     11  C   UNL     1       4.695   6.108  17.676  0.00  0.00    +0.000 A 
ATOM     12  N   UNL     1       5.075   5.056  16.916  0.00  0.00    +0.000 NA
ATOM     13  C   UNL     1       4.168   4.047  16.799  0.00  0.00    +0.000 A 
ATOM     14  C   UNL     1       2.989   3.943  17.533  0.00  0.00    +0.000 A 
ATOM     15  C   UNL     1       2.366   2.694  17.616  0.00  0.00    +0.000 A 
ATOM     16  C   UNL     1       2.702   1.878  18.674  0.00  0.00    +0.000 A 
ATOM     17  C   UNL     1       3.322   2.502  19.734  0.00  0.00    +0.000 A 
ATOM     18  C   UNL     1       3.392   3.933  19.766  0.00  0.00    +0.000 A 
ATOM     19  C   UNL     1       3.068   4.776  18.637  0.00  0.00    +0.000 A 
ENDBRANCH   5  10
BRANCH   1  24
ATOM     20  F   UNL     1      -2.925  13.289  22.765  0.00  0.00    +0.000 F 
ATOM     21  C   UNL     1      -2.116  12.312  22.326  0.00  0.00    +0.000 A 
ATOM     22  C   UNL     1      -1.778  12.212  20.980  0.00  0.00    +0.000 A 
ATOM     23  C   UNL     1      -0.919  11.184  20.527  0.00  0.00    +0.000 A 
ATOM     24  C   UNL     1      -0.382  10.231  21.418  0.00  0.00    +0.000 A 
ATOM     25  C   UNL     1      -0.732  10.352  22.777  0.00  0.00    +0.000 A 
ATOM     26  C   UNL     1      -1.601  11.379  23.235  0.00  0.00    +0.000 A 
ENDBRANCH   1  24
TORSDOF 2
ENDMDL
MODEL 4
REMARK VINA RESULT:      -8.5      2.572      4.338
REMARK  Name = 
REMARK  2 active torsions:
REMARK  status: ('A' for Active; 'I' for Inactive)
REMARK    1  A    between atoms: C_5  and  N_6
REMARK    2  A    between atoms: C_10  and  C_11
REMARK                            x       y       z     vdW  Elec       q    Type
REMARK                         _______ _______ _______ _____ _____    ______ ____
ROOT
ATOM      1  N   UNL     1       1.642   8.792  18.655  0.00  0.00    +0.000 N 
ATOM      2  N   UNL     1       2.439   8.991  17.554  0.00  0.00    +0.000 NA
ATOM      3  C   UNL     1       3.272   7.965  17.533  0.00  0.00    +0.000 A 
ATOM      4  C   UNL     1       3.112   7.010  18.579  0.00  0.00    +0.000 A 
ATOM      5  C   UNL     1       3.694   5.744  19.031  0.00  0.00    +0.000 A 
ATOM      6  C   UNL     1       2.985   5.176  20.104  0.00  0.00    +0.000 A 
ATOM      7  C   UNL     1       1.894   5.820  20.686  0.00  0.00    +0.000 A 
ATOM      8  N   UNL     1       1.393   7.006  20.332  0.00  0.00    +0.000 NA
ATOM      9  C   UNL     1       2.013   7.566  19.271  0.00  0.00    +0.000 A 
ENDROOT
BRANCH   5  10
ATOM     10  C   UNL     1       4.871   4.992  18.386  0.00  0.00    +0.000 A 
ATOM     11  C   UNL     1       5.931   4.546  19.144  0.00  0.00    +0.000 A 
ATOM     12  N   UNL     1       7.205   4.545  18.690  0.00  0.00    +0.000 NA
ATOM     13  C   UNL     1       7.407   5.134  17.479  0.00  0.00    +0.000 A 
ATOM     14  C   UNL     1       6.397   5.559  16.619  0.00  0.00    +0.000 A 
ATOM     15  C   UNL     1       6.714   5.765  15.273  0.00  0.00    +0.000 A 
ATOM     16  C   UNL     1       6.546   4.708  14.405  0.00  0.00    +0.000 A 
ATOM     17  C   UNL     1       5.745   3.685  14.860  0.00  0.00    +0.000 A 
ATOM     18  C   UNL     1       4.995   3.861  16.069  0.00  0.00    +0.000 A 
ATOM     19  C   UNL     1       5.205   4.958  16.988  0.00  0.00    +0.000 A 
ENDBRANCH   5  10
BRANCH   1  24
ATOM     20  F   UNL     1      -2.379  12.526  20.035  0.00  0.00    +0.000 F 
ATOM     21  C   UNL     1      -1.429  11.637  19.701  0.00  0.00    +0.000 A 
ATOM     22  C   UNL     1      -1.444  11.006  18.461  0.00  0.00    +0.000 A 
ATOM     23  C   UNL     1      -0.436  10.075  18.114  0.00  0.00    +0.000 A 
ATOM     24  C   UNL     1       0.607   9.756  19.010  0.00  0.00    +0.000 A 
ATOM     25  C   UNL     1       0.605  10.409  20.258  0.00  0.00    +0.000 A 
ATOM     26  C   UNL     1      -0.409  11.339  20.613  0.00  0.00    +0.000 A 
ENDBRANCH   1  24
TORSDOF 2
ENDMDL
MODEL 5
REMARK VINA RESULT:      -8.5      1.360      2.537
REMARK  Name = 
REMARK  2 active torsions:
REMARK  status: ('A' for Active; 'I' for Inactive)
REMARK    1  A    between atoms: C_5  and  N_6
REMARK    2  A    between atoms: C_10  and  C_11
REMARK                            x       y       z     vdW  Elec       q    Type
REMARK                         _______ _______ _______ _____ _____    ______ ____
ROOT
ATOM      1  N   UNL     1       0.643   9.678  21.220  0.00  0.00    +0.000 N 
ATOM      2  N   UNL     1       0.900   8.557  21.971  0.00  0.00    +0.000 NA
ATOM      3  C   UNL     1       1.505   7.715  21.150  0.00  0.00    +0.000 A 
ATOM      4  C   UNL     1       1.708   8.182  19.818  0.00  0.00    +0.000 A 
ATOM      5  C   UNL     1       2.300   7.729  18.556  0.00  0.00    +0.000 A 
ATOM      6  C   UNL     1       2.327   8.739  17.579  0.00  0.00    +0.000 A 
ATOM      7  C   UNL     1       1.773   9.998  17.809  0.00  0.00    +0.000 A 
ATOM      8  N   UNL     1       1.168  10.405  18.927  0.00  0.00    +0.000 NA
ATOM      9  C   UNL     1       1.165   9.482  19.913  0.00  0.00    +0.000 A 
ENDROOT
BRANCH   5  10
ATOM     10  C   UNL     1       2.951   6.362  18.286  0.00  0.00    +0.000 A 
ATOM     11  C   UNL     1       2.300   5.190  18.601  0.00  0.00    +0.000 A 
ATOM     12  N   UNL     1       2.947   4.095  19.062  0.00  0.00    +0.000 NA
ATOM     13  C   UNL     1       4.274   4.254  19.326  0.00  0.00    +0.000 A 
ATOM     14  C   UNL     1       5.027   5.376  18.990  0.00  0.00    +0.000 A 
ATOM     15  C   UNL     1       6.419   5.254  18.945  0.00  0.00    +0.000 A 
ATOM     16  C   UNL     1       6.996   4.920  17.739  0.00  0.00    +0.000 A 
ATOM     17  C   UNL     1       6.203   5.104  16.628  0.00  0.00    +0.000 A 
ATOM     18  C   UNL     1       4.954   5.796  16.760  0.00  0.00    +0.000 A 
ATOM     19  C   UNL     1       4.344   6.109  18.033  0.00  0.00    +0.000 A 
ENDBRANCH   5  10
BRANCH   1  24
ATOM     20  F   UNL     1      -2.045  14.117  23.475  0.00  0.00    +0.000 F 
ATOM     21  C   UNL     1      -1.405  13.069  22.934  0.00  0.00    +0.000 A 
ATOM     22  C   UNL     1      -0.410  13.253  21.978  0.00  0.00    +0.000 A 
ATOM     23  C   UNL     1       0.265  12.143  21.417  0.00  0.00    +0.000 A 
ATOM     24  C   UNL     1      -0.049  10.823  21.803  0.00  0.00    +0.000 A 
ATOM     25  C   UNL     1      -1.055  10.658  22.775  0.00  0.00    +0.000 A 
ATOM     26  C   UNL     1      -1.741  11.770  23.335  0.00  0.00    +0.000 A 
ENDBRANCH   1  24
TORSDOF 2
ENDMDL
MODEL 6
REMARK VINA RESULT:      -8.3      2.133      3.716
REMARK  Name = 
REMARK  2 active torsions:
REMARK  status: ('A' for Active; 'I' for Inactive)
REMARK    1  A    between atoms: C_5  and  N_6
REMARK    2  A    between atoms: C_10  and  C_11
REMARK                            x       y       z     vdW  Elec       q    Type
REMARK                         _______ _______ _______ _____ _____    ______ ____
ROOT
ATOM      1  N   UNL     1       1.379  10.100  18.646  0.00  0.00    +0.000 N 
ATOM      2  N   UNL     1       1.973   9.783  17.449  0.00  0.00    +0.000 NA
ATOM      3  C   UNL     1       2.407   8.542  17.589  0.00  0.00    +0.000 A 
ATOM      4  C   UNL     1       2.148   7.930  18.849  0.00  0.00    +0.000 A 
ATOM      5  C   UNL     1       2.362   6.652  19.533  0.00  0.00    +0.000 A 
ATOM      6  C   UNL     1       1.724   6.594  20.784  0.00  0.00    +0.000 A 
ATOM      7  C   UNL     1       1.034   7.687  21.307  0.00  0.00    +0.000 A 
ATOM      8  N   UNL     1       0.888   8.882  20.729  0.00  0.00    +0.000 NA
ATOM      9  C   UNL     1       1.442   8.966  19.501  0.00  0.00    +0.000 A 
ENDROOT
BRANCH   5  10
ATOM     10  C   UNL     1       3.085   5.418  18.967  0.00  0.00    +0.000 A 
ATOM     11  C   UNL     1       2.763   4.148  19.392  0.00  0.00    +0.000 A 
ATOM     12  N   UNL     1       3.687   3.169  19.537  0.00  0.00    +0.000 NA
ATOM     13  C   UNL     1       4.984   3.544  19.361  0.00  0.00    +0.000 A 
ATOM     14  C   UNL     1       5.401   4.781  18.878  0.00  0.00    +0.000 A 
ATOM     15  C   UNL     1       6.699   4.895  18.370  0.00  0.00    +0.000 A 
ATOM     16  C   UNL     1       6.881   4.682  17.021  0.00  0.00    +0.000 A 
ATOM     17  C   UNL     1       5.744   4.749  16.248  0.00  0.00    +0.000 A 
ATOM     18  C   UNL     1       4.522   5.220  16.832  0.00  0.00    +0.000 A 
ATOM     19  C   UNL     1       4.333   5.406  18.253  0.00  0.00    +0.000 A 
ENDBRANCH   5  10
BRANCH   1  24
ATOM     20  F   UNL     1      -0.865  15.223  19.503  0.00  0.00    +0.000 F 
ATOM     21  C   UNL     1      -0.340  14.003  19.302  0.00  0.00    +0.000 A 
ATOM     22  C   UNL     1      -1.157  12.887  19.157  0.00  0.00    +0.000 A 
ATOM     23  C   UNL     1      -0.596  11.606  18.939  0.00  0.00    +0.000 A 
ATOM     24  C   UNL     1       0.801  11.421  18.865  0.00  0.00    +0.000 A 
ATOM     25  C   UNL     1       1.610  12.564  19.009  0.00  0.00    +0.000 A 
ATOM     26  C   UNL     1       1.051  13.851  19.236  0.00  0.00    +0.000 A 
ENDBRANCH   1  24
TORSDOF 2
ENDMDL
MODEL 7
REMARK VINA RESULT:      -8.3      2.008      2.925
REMARK  Name = 
REMARK  2 active torsions:
REMARK  status: ('A' for Active; 'I' for Inactive)
REMARK    1  A    between atoms: C_5  and  N_6
REMARK    2  A    between atoms: C_10  and  C_11
REMARK                            x       y       z     vdW  Elec       q    Type
REMARK                         _______ _______ _______ _____ _____    ______ ____
ROOT
ATOM      1  N   UNL     1       1.405  10.814  18.701  0.00  0.00    +0.000 N 
ATOM      2  N   UNL     1       1.996  10.277  17.583  0.00  0.00    +0.000 NA
ATOM      3  C   UNL     1       2.276   9.025  17.901  0.00  0.00    +0.000 A 
ATOM      4  C   UNL     1       1.907   8.617  19.215  0.00  0.00    +0.000 A 
ATOM      5  C   UNL     1       1.947   7.425  20.066  0.00  0.00    +0.000 A 
ATOM      6  C   UNL     1       1.267   7.606  21.283  0.00  0.00    +0.000 A 
ATOM      7  C   UNL     1       0.693   8.829  21.628  0.00  0.00    +0.000 A 
ATOM      8  N   UNL     1       0.707   9.945  20.897  0.00  0.00    +0.000 NA
ATOM      9  C   UNL     1       1.307   9.803  19.695  0.00  0.00    +0.000 A 
ENDROOT
BRANCH   5  10
ATOM     10  C   UNL     1       2.538   6.054  19.697  0.00  0.00    +0.000 A 
ATOM     11  C   UNL     1       3.674   5.953  18.925  0.00  0.00    +0.000 A 
ATOM     12  N   UNL     1       3.855   4.969  18.015  0.00  0.00    +0.000 NA
ATOM     13  C   UNL     1       2.790   4.146  17.807  0.00  0.00    +0.000 A 
ATOM     14  C   UNL     1       1.628   4.134  18.574  0.00  0.00    +0.000 A 
ATOM     15  C   UNL     1       0.807   3.003  18.519  0.00  0.00    +0.000 A 
ATOM     16  C   UNL     1       1.027   2.005  19.443  0.00  0.00    +0.000 A 
ATOM     17  C   UNL     1       1.767   2.367  20.547  0.00  0.00    +0.000 A 
ATOM     18  C   UNL     1       2.075   3.750  20.766  0.00  0.00    +0.000 A 
ATOM     19  C   UNL     1       1.871   4.782  19.774  0.00  0.00    +0.000 A 
ENDBRANCH   5  10
BRANCH   1  24
ATOM     20  F   UNL     1      -0.248  16.225  18.789  0.00  0.00    +0.000 F 
ATOM     21  C   UNL     1       0.137  14.938  18.771  0.00  0.00    +0.000 A 
ATOM     22  C   UNL     1      -0.801  13.911  18.747  0.00  0.00    +0.000 A 
ATOM     23  C   UNL     1      -0.388  12.558  18.720  0.00  0.00    +0.000 A 
ATOM     24  C   UNL     1       0.979  12.209  18.721  0.00  0.00    +0.000 A 
ATOM     25  C   UNL     1       1.912  13.263  18.742  0.00  0.00    +0.000 A 
ATOM     26  C   UNL     1       1.502  14.623  18.776  0.00  0.00    +0.000 A 
ENDBRANCH   1  24
TORSDOF 2
ENDMDL
MODEL 8
REMARK VINA RESULT:      -8.0      1.669      3.333
REMARK  Name = 
REMARK  2 active torsions:
REMARK  status: ('A' for Active; 'I' for Inactive)
REMARK    1  A    between atoms: C_5  and  N_6
REMARK    2  A    between atoms: C_10  and  C_11
REMARK                            x       y       z     vdW  Elec       q    Type
REMARK                         _______ _______ _______ _____ _____    ______ ____
ROOT
ATOM      1  N   UNL     1       1.155  10.280  19.254  0.00  0.00    +0.000 N 
ATOM      2  N   UNL     1       1.515  10.323  17.930  0.00  0.00    +0.000 NA
ATOM      3  C   UNL     1       2.000   9.123  17.658  0.00  0.00    +0.000 A 
ATOM      4  C   UNL     1       2.003   8.193  18.737  0.00  0.00    +0.000 A 
ATOM      5  C   UNL     1       2.376   6.802  19.010  0.00  0.00    +0.000 A 
ATOM      6  C   UNL     1       1.992   6.382  20.295  0.00  0.00    +0.000 A 
ATOM      7  C   UNL     1       1.387   7.251  21.202  0.00  0.00    +0.000 A 
ATOM      8  N   UNL     1       1.103   8.539  20.995  0.00  0.00    +0.000 NA
ATOM      9  C   UNL     1       1.409   8.973  19.754  0.00  0.00    +0.000 A 
ENDROOT
BRANCH   5  10
ATOM     10  C   UNL     1       3.008   5.810  18.019  0.00  0.00    +0.000 A 
ATOM     11  C   UNL     1       2.366   4.641  17.677  0.00  0.00    +0.000 A 
ATOM     12  N   UNL     1       3.029   3.483  17.449  0.00  0.00    +0.000 NA
ATOM     13  C   UNL     1       4.366   3.501  17.703  0.00  0.00    +0.000 A 
ATOM     14  C   UNL     1       5.109   4.643  17.994  0.00  0.00    +0.000 A 
ATOM     15  C   UNL     1       6.497   4.592  17.835  0.00  0.00    +0.000 A 
ATOM     16  C   UNL     1       7.017   4.973  16.617  0.00  0.00    +0.000 A 
ATOM     17  C   UNL     1       6.176   5.711  15.814  0.00  0.00    +0.000 A 
ATOM     18  C   UNL     1       4.938   6.197  16.349  0.00  0.00    +0.000 A 
ATOM     19  C   UNL     1       4.387   5.762  17.613  0.00  0.00    +0.000 A 
ENDBRANCH   5  10
BRANCH   1  24
ATOM     20  F   UNL     1      -1.010  14.843  21.804  0.00  0.00    +0.000 F 
ATOM     21  C   UNL     1      -0.489  13.764  21.198  0.00  0.00    +0.000 A 
ATOM     22  C   UNL     1       0.886  13.556  21.166  0.00  0.00    +0.000 A 
ATOM     23  C   UNL     1       1.428  12.413  20.532  0.00  0.00    +0.000 A 
ATOM     24  C   UNL     1       0.596  11.455  19.913  0.00  0.00    +0.000 A 
ATOM     25  C   UNL     1      -0.793  11.681  19.961  0.00  0.00    +0.000 A 
ATOM     26  C   UNL     1      -1.340  12.832  20.590  0.00  0.00    +0.000 A 
ENDBRANCH   1  24
TORSDOF 2
ENDMDL
MODEL 9
REMARK VINA RESULT:      -8.0      3.414      8.599
REMARK  Name = 
REMARK  2 active torsions:
REMARK  status: ('A' for Active; 'I' for Inactive)
REMARK    1  A    between atoms: C_5  and  N_6
REMARK    2  A    between atoms: C_10  and  C_11
REMARK                            x       y       z     vdW  Elec       q    Type
REMARK                         _______ _______ _______ _____ _____    ______ ____
ROOT
ATOM      1  N   UNL     1       2.277   8.064  18.370  0.00  0.00    +0.000 N 
ATOM      2  N   UNL     1       2.173   9.152  17.538  0.00  0.00    +0.000 NA
ATOM      3  C   UNL     1       1.508  10.062  18.230  0.00  0.00    +0.000 A 
ATOM      4  C   UNL     1       1.122   9.683  19.548  0.00  0.00    +0.000 A 
ATOM      5  C   UNL     1       0.429  10.243  20.711  0.00  0.00    +0.000 A 
ATOM      6  C   UNL     1       0.485   9.398  21.833  0.00  0.00    +0.000 A 
ATOM      7  C   UNL     1       1.086   8.141  21.775  0.00  0.00    +0.000 A 
ATOM      8  N   UNL     1       1.661   7.586  20.706  0.00  0.00    +0.000 NA
ATOM      9  C   UNL     1       1.675   8.385  19.618  0.00  0.00    +0.000 A 
ENDROOT
BRANCH   5  10
ATOM     10  C   UNL     1      -0.208  11.639  20.816  0.00  0.00    +0.000 A 
ATOM     11  C   UNL     1       0.566  12.762  21.010  0.00  0.00    +0.000 A 
ATOM     12  N   UNL     1       0.163  13.806  21.771  0.00  0.00    +0.000 NA
ATOM     13  C   UNL     1      -1.006  13.634  22.448  0.00  0.00    +0.000 A 
ATOM     14  C   UNL     1      -1.881  12.565  22.272  0.00  0.00    +0.000 A 
ATOM     15  C   UNL     1      -3.201  12.707  22.711  0.00  0.00    +0.000 A 
ATOM     16  C   UNL     1      -4.129  13.181  21.810  0.00  0.00    +0.000 A 
ATOM     17  C   UNL     1      -3.761  13.113  20.484  0.00  0.00    +0.000 A 
ATOM     18  C   UNL     1      -2.575  12.396  20.118  0.00  0.00    +0.000 A 
ATOM     19  C   UNL     1      -1.592  11.935  21.072  0.00  0.00    +0.000 A 
ENDBRANCH   5  10
BRANCH   1  24
ATOM     20  F   UNL     1       4.853   3.333  16.642  0.00  0.00    +0.000 F 
ATOM     21  C   UNL     1       4.249   4.460  17.053  0.00  0.00    +0.000 A 
ATOM     22  C   UNL     1       4.879   5.694  16.931  0.00  0.00    +0.000 A 
ATOM     23  C   UNL     1       4.233   6.878  17.360  0.00  0.00    +0.000 A 
ATOM     24  C   UNL     1       2.940   6.845  17.923  0.00  0.00    +0.000 A 
ATOM     25  C   UNL     1       2.318   5.586  18.032  0.00  0.00    +0.000 A 
ATOM     26  C   UNL     1       2.966   4.394  17.611  0.00  0.00    +0.000 A 
ENDBRANCH   1  24
TORSDOF 2
ENDMDL
