MODEL 1
REMARK VINA RESULT:      -8.2      0.000      0.000
REMARK  Name = 
REMARK  12 active torsions:
REMARK  status: ('A' for Active; 'I' for Inactive)
REMARK    1  A    between atoms: C_1  and  C_2
REMARK    2  A    between atoms: C_2  and  N_3
REMARK    3  A    between atoms: N_3  and  C_4
REMARK    4  A    between atoms: N_3  and  C_24
REMARK    5  A    between atoms: C_4  and  C_5
REMARK    6  A    between atoms: C_5  and  C_6
REMARK    7  A    between atoms: C_6  and  N_7
REMARK    8  A    between atoms: C_8  and  C_10
REMARK    9  A    between atoms: N_15  and  C_16
REMARK   10  A    between atoms: C_16  and  C_17
REMARK   11  A    between atoms: C_20  and  C_21
REMARK   12  A    between atoms: C_28  and  C_29
REMARK                            x       y       z     vdW  Elec       q    Type
REMARK                         _______ _______ _______ _____ _____    ______ ____
ROOT
ATOM      1  N   UNL     1       2.256   5.552  18.722  0.00  0.00    +0.000 N 
ATOM      2  C   UNL     1       1.613   4.477  18.135  0.00  0.00    +0.000 C 
ATOM      3  O   UNL     1       1.086   4.529  17.029  0.00  0.00    +0.000 OA
ATOM      4  H   UNL     1       2.664   5.422  19.641  0.00  0.00    +0.000 HD
ENDROOT
BRANCH   2   5
ATOM      5  C   UNL     1       1.518   3.227  19.032  0.00  0.00    +0.000 C 
ATOM      6  C   UNL     1       0.806   3.568  20.341  0.00  0.00    +0.000 C 
ATOM      7  C   UNL     1       1.555   2.793  21.417  0.00  0.00    +0.000 C 
ATOM      8  C   UNL     1       2.919   2.566  20.821  0.00  0.00    +0.000 C 
ATOM      9  O   UNL     1       3.907   2.216  21.441  0.00  0.00    +0.000 OA
ATOM     10  N   UNL     1       2.837   2.793  19.462  0.00  0.00    +0.000 N 
BRANCH  10  11
ATOM     11  C   UNL     1       3.893   2.446  18.521  0.00  0.00    +0.000 C 
BRANCH  11  12
ATOM     12  C   UNL     1       4.818   3.589  18.179  0.00  0.00    +0.000 A 
ATOM     13  C   UNL     1       4.981   4.022  16.855  0.00  0.00    +0.000 A 
ATOM     14  C   UNL     1       5.775   5.140  16.565  0.00  0.00    +0.000 A 
ATOM     15  C   UNL     1       6.423   5.840  17.588  0.00  0.00    +0.000 A 
ATOM     16  C   UNL     1       7.243   7.063  17.296  0.00  0.00    +0.000 C 
ATOM     17  C   UNL     1       6.284   5.394  18.906  0.00  0.00    +0.000 A 
ATOM     18  C   UNL     1       5.495   4.275  19.195  0.00  0.00    +0.000 A 
ENDBRANCH  11  12
ENDBRANCH  10  11
ENDBRANCH   2   5
BRANCH   1  19
ATOM     19  C   UNL     1       2.419   6.828  18.059  0.00  0.00    +0.000 C 
BRANCH  19  20
ATOM     20  C   UNL     1       2.222   8.028  18.987  0.00  0.00    +0.000 C 
BRANCH  20  21
ATOM     21  C   UNL     1       1.368   9.129  18.351  0.00  0.00    +0.000 C 
BRANCH  21  22
ATOM     22  N   UNL     1       0.454   9.746  19.327  0.00  0.00    +0.000 N 
BRANCH  22  23
ATOM     23  C   UNL     1      -0.735  10.374  18.911  0.00  0.00    +0.000 A 
ATOM     24  C   UNL     1      -1.332  10.078  17.667  0.00  0.00    +0.000 A 
ATOM     25  C   UNL     1      -2.520  10.684  17.239  0.00  0.00    +0.000 A 
ATOM     26  C   UNL     1      -3.157  11.615  18.040  0.00  0.00    +0.000 A 
ATOM     27  C   UNL     1      -2.610  11.945  19.277  0.00  0.00    +0.000 A 
ATOM     28  C   UNL     1      -3.281  12.952  20.166  0.00  0.00    +0.000 C 
ATOM     29  C   UNL     1      -1.412  11.326  19.694  0.00  0.00    +0.000 A 
ENDBRANCH  22  23
BRANCH  22  31
ATOM     30  C   UNL     1      -0.009   8.704  21.618  0.00  0.00    +0.000 C 
ATOM     31  C   UNL     1       0.745   9.715  20.771  0.00  0.00    +0.000 C 
ENDBRANCH  22  31
ENDBRANCH  21  22
ENDBRANCH  20  21
ENDBRANCH  19  20
ENDBRANCH   1  19
TORSDOF 9
ENDMDL
MODEL 2
REMARK VINA RESULT:      -8.1      2.901      5.653
REMARK  Name = 
REMARK  12 active torsions:
REMARK  status: ('A' for Active; 'I' for Inactive)
REMARK    1  A    between atoms: C_1  and  C_2
REMARK    2  A    between atoms: C_2  and  N_3
REMARK    3  A    between atoms: N_3  and  C_4
REMARK    4  A    between atoms: N_3  and  C_24
REMARK    5  A    between atoms: C_4  and  C_5
REMARK    6  A    between atoms: C_5  and  C_6
REMARK    7  A    between atoms: C_6  and  N_7
REMARK    8  A    between atoms: C_8  and  C_10
REMARK    9  A    between atoms: N_15  and  C_16
REMARK   10  A    between atoms: C_16  and  C_17
REMARK   11  A    between atoms: C_20  and  C_21
REMARK   12  A    between atoms: C_28  and  C_29
REMARK                            x       y       z     vdW  Elec       q    Type
REMARK                         _______ _______ _______ _____ _____    ______ ____
ROOT
ATOM      1  N   UNL     1       4.787   3.332  17.672  0.00  0.00    +0.000 N 
ATOM      2  C   UNL     1       5.538   4.084  18.556  0.00  0.00    +0.000 C 
ATOM      3  O   UNL     1       5.235   4.242  19.733  0.00  0.00    +0.000 OA
ATOM      4  H   UNL     1       5.111   3.254  16.714  0.00  0.00    +0.000 HD
ENDROOT
BRANCH   2   5
ATOM      5  C   UNL     1       6.742   4.802  17.914  0.00  0.00    +0.000 C 
ATOM      6  C   UNL     1       7.686   5.325  18.998  0.00  0.00    +0.000 C 
ATOM      7  C   UNL     1       8.156   6.684  18.497  0.00  0.00    +0.000 C 
ATOM      8  C   UNL     1       7.075   7.116  17.542  0.00  0.00    +0.000 C 
ATOM      9  O   UNL     1       6.922   8.247  17.119  0.00  0.00    +0.000 OA
ATOM     10  N   UNL     1       6.321   6.006  17.217  0.00  0.00    +0.000 N 
BRANCH  10  11
ATOM     11  C   UNL     1       5.337   5.986  16.144  0.00  0.00    +0.000 C 
BRANCH  11  12
ATOM     12  C   UNL     1       5.788   5.255  14.902  0.00  0.00    +0.000 A 
ATOM     13  C   UNL     1       7.057   5.478  14.348  0.00  0.00    +0.000 A 
ATOM     14  C   UNL     1       7.494   4.728  13.247  0.00  0.00    +0.000 A 
ATOM     15  C   UNL     1       6.672   3.748  12.679  0.00  0.00    +0.000 A 
ATOM     16  C   UNL     1       7.143   2.910  11.527  0.00  0.00    +0.000 C 
ATOM     17  C   UNL     1       5.397   3.543  13.214  0.00  0.00    +0.000 A 
ATOM     18  C   UNL     1       4.958   4.296  14.310  0.00  0.00    +0.000 A 
ENDBRANCH  11  12
ENDBRANCH  10  11
ENDBRANCH   2   5
BRANCH   1  19
ATOM     19  C   UNL     1       3.598   2.608  18.068  0.00  0.00    +0.000 C 
BRANCH  19  20
ATOM     20  C   UNL     1       2.298   3.350  17.753  0.00  0.00    +0.000 C 
BRANCH  20  21
ATOM     21  C   UNL     1       1.357   3.425  18.958  0.00  0.00    +0.000 C 
BRANCH  21  22
ATOM     22  N   UNL     1       1.825   4.396  19.961  0.00  0.00    +0.000 N 
BRANCH  22  23
ATOM     23  C   UNL     1       1.897   5.769  19.663  0.00  0.00    +0.000 A 
ATOM     24  C   UNL     1       2.389   6.232  18.424  0.00  0.00    +0.000 A 
ATOM     25  C   UNL     1       2.460   7.595  18.102  0.00  0.00    +0.000 A 
ATOM     26  C   UNL     1       2.043   8.549  19.013  0.00  0.00    +0.000 A 
ATOM     27  C   UNL     1       1.550   8.147  20.252  0.00  0.00    +0.000 A 
ATOM     28  C   UNL     1       1.091   9.161  21.259  0.00  0.00    +0.000 C 
ATOM     29  C   UNL     1       1.486   6.771  20.561  0.00  0.00    +0.000 A 
ENDBRANCH  22  23
BRANCH  22  31
ATOM     30  C   UNL     1       2.306   2.473  21.579  0.00  0.00    +0.000 C 
ATOM     31  C   UNL     1       2.220   3.966  21.313  0.00  0.00    +0.000 C 
ENDBRANCH  22  31
ENDBRANCH  21  22
ENDBRANCH  20  21
ENDBRANCH  19  20
ENDBRANCH   1  19
TORSDOF 9
ENDMDL
MODEL 3
REMARK VINA RESULT:      -8.1      3.083      5.802
REMARK  Name = 
REMARK  12 active torsions:
REMARK  status: ('A' for Active; 'I' for Inactive)
REMARK    1  A    between atoms: C_1  and  C_2
REMARK    2  A    between atoms: C_2  and  N_3
REMARK    3  A    between atoms: N_3  and  C_4
REMARK    4  A    between atoms: N_3  and  C_24
REMARK    5  A    between atoms: C_4  and  C_5
REMARK    6  A    between atoms: C_5  and  C_6
REMARK    7  A    between atoms: C_6  and  N_7
REMARK    8  A    between atoms: C_8  and  C_10
REMARK    9  A    between atoms: N_15  and  C_16
REMARK   10  A    between atoms: C_16  and  C_17
REMARK   11  A    between atoms: C_20  and  C_21
REMARK   12  A    between atoms: C_28  and  C_29
REMARK                            x       y       z     vdW  Elec       q    Type
REMARK                         _______ _______ _______ _____ _____    ______ ____
ROOT
ATOM      1  N   UNL     1       5.520   3.416  18.902  0.00  0.00    +0.000 N 
ATOM      2  C   UNL     1       5.780   4.751  19.154  0.00  0.00    +0.000 C 
ATOM      3  O   UNL     1       5.087   5.446  19.888  0.00  0.00    +0.000 OA
ATOM      4  H   UNL     1       6.145   2.915  18.280  0.00  0.00    +0.000 HD
ENDROOT
BRANCH   2   5
ATOM      5  C   UNL     1       6.960   5.329  18.349  0.00  0.00    +0.000 C 
ATOM      6  C   UNL     1       7.996   5.941  19.292  0.00  0.00    +0.000 C 
ATOM      7  C   UNL     1       8.477   7.205  18.593  0.00  0.00    +0.000 C 
ATOM      8  C   UNL     1       7.348   7.561  17.664  0.00  0.00    +0.000 C 
ATOM      9  O   UNL     1       7.206   8.637  17.110  0.00  0.00    +0.000 OA
ATOM     10  N   UNL     1       6.534   6.454  17.532  0.00  0.00    +0.000 N 
BRANCH  10  11
ATOM     11  C   UNL     1       5.477   6.344  16.537  0.00  0.00    +0.000 C 
BRANCH  11  12
ATOM     12  C   UNL     1       5.802   5.421  15.387  0.00  0.00    +0.000 A 
ATOM     13  C   UNL     1       4.914   4.411  14.991  0.00  0.00    +0.000 A 
ATOM     14  C   UNL     1       5.191   3.620  13.868  0.00  0.00    +0.000 A 
ATOM     15  C   UNL     1       6.359   3.820  13.124  0.00  0.00    +0.000 A 
ATOM     16  C   UNL     1       6.648   3.009  11.895  0.00  0.00    +0.000 C 
ATOM     17  C   UNL     1       7.259   4.809  13.533  0.00  0.00    +0.000 A 
ATOM     18  C   UNL     1       6.985   5.595  14.659  0.00  0.00    +0.000 A 
ENDBRANCH  11  12
ENDBRANCH  10  11
ENDBRANCH   2   5
BRANCH   1  19
ATOM     19  C   UNL     1       4.433   2.695  19.531  0.00  0.00    +0.000 C 
BRANCH  19  20
ATOM     20  C   UNL     1       3.340   2.263  18.552  0.00  0.00    +0.000 C 
BRANCH  20  21
ATOM     21  C   UNL     1       2.103   3.163  18.616  0.00  0.00    +0.000 C 
BRANCH  21  22
ATOM     22  N   UNL     1       2.160   4.093  19.757  0.00  0.00    +0.000 N 
BRANCH  22  23
ATOM     23  C   UNL     1       2.084   5.484  19.563  0.00  0.00    +0.000 A 
ATOM     24  C   UNL     1       2.384   6.075  18.317  0.00  0.00    +0.000 A 
ATOM     25  C   UNL     1       2.305   7.457  18.100  0.00  0.00    +0.000 A 
ATOM     26  C   UNL     1       1.925   8.304  19.125  0.00  0.00    +0.000 A 
ATOM     27  C   UNL     1       1.620   7.774  20.377  0.00  0.00    +0.000 A 
ATOM     28  C   UNL     1       1.205   8.670  21.507  0.00  0.00    +0.000 C 
ATOM     29  C   UNL     1       1.705   6.379  20.579  0.00  0.00    +0.000 A 
ENDBRANCH  22  23
BRANCH  22  31
ATOM     30  C   UNL     1       1.241   2.607  21.626  0.00  0.00    +0.000 C 
ATOM     31  C   UNL     1       2.284   3.598  21.139  0.00  0.00    +0.000 C 
ENDBRANCH  22  31
ENDBRANCH  21  22
ENDBRANCH  20  21
ENDBRANCH  19  20
ENDBRANCH   1  19
TORSDOF 9
ENDMDL
MODEL 4
REMARK VINA RESULT:      -8.0      1.662      2.978
REMARK  Name = 
REMARK  12 active torsions:
REMARK  status: ('A' for Active; 'I' for Inactive)
REMARK    1  A    between atoms: C_1  and  C_2
REMARK    2  A    between atoms: C_2  and  N_3
REMARK    3  A    between atoms: N_3  and  C_4
REMARK    4  A    between atoms: N_3  and  C_24
REMARK    5  A    between atoms: C_4  and  C_5
REMARK    6  A    between atoms: C_5  and  C_6
REMARK    7  A    between atoms: C_6  and  N_7
REMARK    8  A    between atoms: C_8  and  C_10
REMARK    9  A    between atoms: N_15  and  C_16
REMARK   10  A    between atoms: C_16  and  C_17
REMARK   11  A    between atoms: C_20  and  C_21
REMARK   12  A    between atoms: C_28  and  C_29
REMARK                            x       y       z     vdW  Elec       q    Type
REMARK                         _______ _______ _______ _____ _____    ______ ____
ROOT
ATOM      1  N   UNL     1       2.353   6.910  18.572  0.00  0.00    +0.000 N 
ATOM      2  C   UNL     1       2.241   5.842  19.444  0.00  0.00    +0.000 C 
ATOM      3  O   UNL     1       1.969   5.968  20.632  0.00  0.00    +0.000 OA
ATOM      4  H   UNL     1       2.583   6.715  17.604  0.00  0.00    +0.000 HD
ENDROOT
BRANCH   2   5
ATOM      5  C   UNL     1       2.592   4.476  18.822  0.00  0.00    +0.000 C 
ATOM      6  C   UNL     1       1.592   3.413  19.280  0.00  0.00    +0.000 C 
ATOM      7  C   UNL     1       2.422   2.158  19.512  0.00  0.00    +0.000 C 
ATOM      8  C   UNL     1       3.812   2.678  19.761  0.00  0.00    +0.000 C 
ATOM      9  O   UNL     1       4.727   2.036  20.243  0.00  0.00    +0.000 OA
ATOM     10  N   UNL     1       3.866   3.986  19.323  0.00  0.00    +0.000 N 
BRANCH  10  11
ATOM     11  C   UNL     1       5.104   4.740  19.185  0.00  0.00    +0.000 C 
BRANCH  11  12
ATOM     12  C   UNL     1       5.611   4.846  17.767  0.00  0.00    +0.000 A 
ATOM     13  C   UNL     1       6.548   5.823  17.401  0.00  0.00    +0.000 A 
ATOM     14  C   UNL     1       7.074   5.852  16.102  0.00  0.00    +0.000 A 
ATOM     15  C   UNL     1       6.671   4.912  15.147  0.00  0.00    +0.000 A 
ATOM     16  C   UNL     1       7.256   4.906  13.765  0.00  0.00    +0.000 C 
ATOM     17  C   UNL     1       5.717   3.954  15.503  0.00  0.00    +0.000 A 
ATOM     18  C   UNL     1       5.187   3.928  16.799  0.00  0.00    +0.000 A 
ENDBRANCH  11  12
ENDBRANCH  10  11
ENDBRANCH   2   5
BRANCH   1  19
ATOM     19  C   UNL     1       2.101   8.279  18.969  0.00  0.00    +0.000 C 
BRANCH  19  20
ATOM     20  C   UNL     1       1.362   9.097  17.908  0.00  0.00    +0.000 C 
BRANCH  20  21
ATOM     21  C   UNL     1       1.147  10.552  18.332  0.00  0.00    +0.000 C 
BRANCH  21  22
ATOM     22  N   UNL     1      -0.247  10.807  18.733  0.00  0.00    +0.000 N 
BRANCH  22  23
ATOM     23  C   UNL     1      -0.587  11.023  20.081  0.00  0.00    +0.000 A 
ATOM     24  C   UNL     1      -1.379  12.122  20.477  0.00  0.00    +0.000 A 
ATOM     25  C   UNL     1      -1.737  12.350  21.812  0.00  0.00    +0.000 A 
ATOM     26  C   UNL     1      -1.313  11.486  22.806  0.00  0.00    +0.000 A 
ATOM     27  C   UNL     1      -0.527  10.386  22.471  0.00  0.00    +0.000 A 
ATOM     28  C   UNL     1      -0.053   9.433  23.529  0.00  0.00    +0.000 C 
ATOM     29  C   UNL     1      -0.174  10.170  21.121  0.00  0.00    +0.000 A 
ENDBRANCH  22  23
BRANCH  22  31
ATOM     30  C   UNL     1      -2.436   9.823  17.845  0.00  0.00    +0.000 C 
ATOM     31  C   UNL     1      -1.330  10.858  17.735  0.00  0.00    +0.000 C 
ENDBRANCH  22  31
ENDBRANCH  21  22
ENDBRANCH  20  21
ENDBRANCH  19  20
ENDBRANCH   1  19
TORSDOF 9
ENDMDL
MODEL 5
REMARK VINA RESULT:      -8.0      1.476      2.358
REMARK  Name = 
REMARK  12 active torsions:
REMARK  status: ('A' for Active; 'I' for Inactive)
REMARK    1  A    between atoms: C_1  and  C_2
REMARK    2  A    between atoms: C_2  and  N_3
REMARK    3  A    between atoms: N_3  and  C_4
REMARK    4  A    between atoms: N_3  and  C_24
REMARK    5  A    between atoms: C_4  and  C_5
REMARK    6  A    between atoms: C_5  and  C_6
REMARK    7  A    between atoms: C_6  and  N_7
REMARK    8  A    between atoms: C_8  and  C_10
REMARK    9  A    between atoms: N_15  and  C_16
REMARK   10  A    between atoms: C_16  and  C_17
REMARK   11  A    between atoms: C_20  and  C_21
REMARK   12  A    between atoms: C_28  and  C_29
REMARK                            x       y       z     vdW  Elec       q    Type
REMARK                         _______ _______ _______ _____ _____    ______ ____
ROOT
ATOM      1  N   UNL     1       3.004   6.816  18.021  0.00  0.00    +0.000 N 
ATOM      2  C   UNL     1       2.611   5.882  18.962  0.00  0.00    +0.000 C 
ATOM      3  O   UNL     1       2.174   6.182  20.067  0.00  0.00    +0.000 OA
ATOM      4  H   UNL     1       3.355   6.481  17.130  0.00  0.00    +0.000 HD
ENDROOT
BRANCH   2   5
ATOM      5  C   UNL     1       2.864   4.419  18.547  0.00  0.00    +0.000 C 
ATOM      6  C   UNL     1       1.756   3.516  19.090  0.00  0.00    +0.000 C 
ATOM      7  C   UNL     1       2.461   2.240  19.530  0.00  0.00    +0.000 C 
ATOM      8  C   UNL     1       3.880   2.673  19.781  0.00  0.00    +0.000 C 
ATOM      9  O   UNL     1       4.714   2.030  20.392  0.00  0.00    +0.000 OA
ATOM     10  N   UNL     1       4.068   3.900  19.175  0.00  0.00    +0.000 N 
BRANCH  10  11
ATOM     11  C   UNL     1       5.372   4.523  19.004  0.00  0.00    +0.000 C 
BRANCH  11  12
ATOM     12  C   UNL     1       5.869   4.541  17.578  0.00  0.00    +0.000 A 
ATOM     13  C   UNL     1       5.301   3.711  16.600  0.00  0.00    +0.000 A 
ATOM     14  C   UNL     1       5.713   3.803  15.264  0.00  0.00    +0.000 A 
ATOM     15  C   UNL     1       6.701   4.717  14.882  0.00  0.00    +0.000 A 
ATOM     16  C   UNL     1       7.123   4.854  13.448  0.00  0.00    +0.000 C 
ATOM     17  C   UNL     1       7.287   5.526  15.860  0.00  0.00    +0.000 A 
ATOM     18  C   UNL     1       6.879   5.431  17.196  0.00  0.00    +0.000 A 
ENDBRANCH  11  12
ENDBRANCH  10  11
ENDBRANCH   2   5
BRANCH   1  19
ATOM     19  C   UNL     1       2.883   8.244  18.232  0.00  0.00    +0.000 C 
BRANCH  19  20
ATOM     20  C   UNL     1       1.584   8.835  17.680  0.00  0.00    +0.000 C 
BRANCH  20  21
ATOM     21  C   UNL     1       1.217  10.165  18.342  0.00  0.00    +0.000 C 
BRANCH  21  22
ATOM     22  N   UNL     1      -0.062  10.083  19.067  0.00  0.00    +0.000 N 
BRANCH  22  23
ATOM     23  C   UNL     1      -1.268  10.481  18.461  0.00  0.00    +0.000 A 
ATOM     24  C   UNL     1      -2.150  11.384  19.091  0.00  0.00    +0.000 A 
ATOM     25  C   UNL     1      -3.350  11.801  18.501  0.00  0.00    +0.000 A 
ATOM     26  C   UNL     1      -3.716  11.327  17.254  0.00  0.00    +0.000 A 
ATOM     27  C   UNL     1      -2.883  10.432  16.587  0.00  0.00    +0.000 A 
ATOM     28  C   UNL     1      -3.255   9.902  15.233  0.00  0.00    +0.000 C 
ATOM     29  C   UNL     1      -1.677  10.021  17.196  0.00  0.00    +0.000 A 
ENDBRANCH  22  23
BRANCH  22  31
ATOM     30  C   UNL     1       0.384  10.469  21.557  0.00  0.00    +0.000 C 
ATOM     31  C   UNL     1      -0.125   9.567  20.446  0.00  0.00    +0.000 C 
ENDBRANCH  22  31
ENDBRANCH  21  22
ENDBRANCH  20  21
ENDBRANCH  19  20
ENDBRANCH   1  19
TORSDOF 9
ENDMDL
MODEL 6
REMARK VINA RESULT:      -8.0      1.839      2.917
REMARK  Name = 
REMARK  12 active torsions:
REMARK  status: ('A' for Active; 'I' for Inactive)
REMARK    1  A    between atoms: C_1  and  C_2
REMARK    2  A    between atoms: C_2  and  N_3
REMARK    3  A    between atoms: N_3  and  C_4
REMARK    4  A    between atoms: N_3  and  C_24
REMARK    5  A    between atoms: C_4  and  C_5
REMARK    6  A    between atoms: C_5  and  C_6
REMARK    7  A    between atoms: C_6  and  N_7
REMARK    8  A    between atoms: C_8  and  C_10
REMARK    9  A    between atoms: N_15  and  C_16
REMARK   10  A    between atoms: C_16  and  C_17
REMARK   11  A    between atoms: C_20  and  C_21
REMARK   12  A    between atoms: C_28  and  C_29
REMARK                            x       y       z     vdW  Elec       q    Type
REMARK                         _______ _______ _______ _____ _____    ______ ____
ROOT
ATOM      1  N   UNL     1       2.250   7.129  19.000  0.00  0.00    +0.000 N 
ATOM      2  C   UNL     1       2.026   5.963  19.710  0.00  0.00    +0.000 C 
ATOM      3  O   UNL     1       1.594   5.944  20.856  0.00  0.00    +0.000 OA
ATOM      4  H   UNL     1       2.611   7.053  18.055  0.00  0.00    +0.000 HD
ENDROOT
BRANCH   2   5
ATOM      5  C   UNL     1       2.467   4.680  18.977  0.00  0.00    +0.000 C 
ATOM      6  C   UNL     1       1.593   3.500  19.403  0.00  0.00    +0.000 C 
ATOM      7  C   UNL     1       2.543   2.316  19.506  0.00  0.00    +0.000 C 
ATOM      8  C   UNL     1       3.892   2.947  19.729  0.00  0.00    +0.000 C 
ATOM      9  O   UNL     1       4.885   2.362  20.121  0.00  0.00    +0.000 OA
ATOM     10  N   UNL     1       3.804   4.280  19.382  0.00  0.00    +0.000 N 
BRANCH  10  11
ATOM     11  C   UNL     1       4.960   5.155  19.242  0.00  0.00    +0.000 C 
BRANCH  11  12
ATOM     12  C   UNL     1       5.575   5.153  17.864  0.00  0.00    +0.000 A 
ATOM     13  C   UNL     1       6.799   4.516  17.614  0.00  0.00    +0.000 A 
ATOM     14  C   UNL     1       7.313   4.448  16.312  0.00  0.00    +0.000 A 
ATOM     15  C   UNL     1       6.618   5.019  15.240  0.00  0.00    +0.000 A 
ATOM     16  C   UNL     1       7.136   4.919  13.834  0.00  0.00    +0.000 C 
ATOM     17  C   UNL     1       5.411   5.679  15.491  0.00  0.00    +0.000 A 
ATOM     18  C   UNL     1       4.901   5.751  16.792  0.00  0.00    +0.000 A 
ENDBRANCH  11  12
ENDBRANCH  10  11
ENDBRANCH   2   5
BRANCH   1  19
ATOM     19  C   UNL     1       1.938   8.441  19.526  0.00  0.00    +0.000 C 
BRANCH  19  20
ATOM     20  C   UNL     1       1.279   9.368  18.503  0.00  0.00    +0.000 C 
BRANCH  20  21
ATOM     21  C   UNL     1       1.085  10.790  19.037  0.00  0.00    +0.000 C 
BRANCH  21  22
ATOM     22  N   UNL     1      -0.334  11.097  19.280  0.00  0.00    +0.000 N 
BRANCH  22  23
ATOM     23  C   UNL     1      -0.834  11.231  20.588  0.00  0.00    +0.000 A 
ATOM     24  C   UNL     1      -0.388  10.403  21.640  0.00  0.00    +0.000 A 
ATOM     25  C   UNL     1      -0.865  10.527  22.952  0.00  0.00    +0.000 A 
ATOM     26  C   UNL     1      -1.812  11.486  23.261  0.00  0.00    +0.000 A 
ATOM     27  C   UNL     1      -2.289  12.330  22.261  0.00  0.00    +0.000 A 
ATOM     28  C   UNL     1      -3.316  13.380  22.570  0.00  0.00    +0.000 C 
ATOM     29  C   UNL     1      -1.798  12.192  20.944  0.00  0.00    +0.000 A 
ENDBRANCH  22  23
BRANCH  22  31
ATOM     30  C   UNL     1      -2.265  10.170  17.880  0.00  0.00    +0.000 C 
ATOM     31  C   UNL     1      -1.275  11.287  18.163  0.00  0.00    +0.000 C 
ENDBRANCH  22  31
ENDBRANCH  21  22
ENDBRANCH  20  21
ENDBRANCH  19  20
ENDBRANCH   1  19
TORSDOF 9
ENDMDL
MODEL 7
REMARK VINA RESULT:      -8.0      1.526      2.245
REMARK  Name = 
REMARK  12 active torsions:
REMARK  status: ('A' for Active; 'I' for Inactive)
REMARK    1  A    between atoms: C_1  and  C_2
REMARK    2  A    between atoms: C_2  and  N_3
REMARK    3  A    between atoms: N_3  and  C_4
REMARK    4  A    between atoms: N_3  and  C_24
REMARK    5  A    between atoms: C_4  and  C_5
REMARK    6  A    between atoms: C_5  and  C_6
REMARK    7  A    between atoms: C_6  and  N_7
REMARK    8  A    between atoms: C_8  and  C_10
REMARK    9  A    between atoms: N_15  and  C_16
REMARK   10  A    between atoms: C_16  and  C_17
REMARK   11  A    between atoms: C_20  and  C_21
REMARK   12  A    between atoms: C_28  and  C_29
REMARK                            x       y       z     vdW  Elec       q    Type
REMARK                         _______ _______ _______ _____ _____    ______ ____
ROOT
ATOM      1  N   UNL     1       2.108   6.696  17.947  0.00  0.00    +0.000 N 
ATOM      2  C   UNL     1       2.441   5.674  18.817  0.00  0.00    +0.000 C 
ATOM      3  O   UNL     1       3.172   5.828  19.789  0.00  0.00    +0.000 OA
ATOM      4  H   UNL     1       1.496   6.480  17.167  0.00  0.00    +0.000 HD
ENDROOT
BRANCH   2   5
ATOM      5  C   UNL     1       1.899   4.290  18.408  0.00  0.00    +0.000 C 
ATOM      6  C   UNL     1       1.387   3.537  19.636  0.00  0.00    +0.000 C 
ATOM      7  C   UNL     1       1.808   2.090  19.422  0.00  0.00    +0.000 C 
ATOM      8  C   UNL     1       2.977   2.185  18.479  0.00  0.00    +0.000 C 
ATOM      9  O   UNL     1       3.772   1.290  18.253  0.00  0.00    +0.000 OA
ATOM     10  N   UNL     1       2.965   3.440  17.905  0.00  0.00    +0.000 N 
BRANCH  10  11
ATOM     11  C   UNL     1       3.800   3.817  16.773  0.00  0.00    +0.000 C 
BRANCH  11  12
ATOM     12  C   UNL     1       4.964   4.709  17.131  0.00  0.00    +0.000 A 
ATOM     13  C   UNL     1       5.154   5.947  16.500  0.00  0.00    +0.000 A 
ATOM     14  C   UNL     1       6.189   6.801  16.905  0.00  0.00    +0.000 A 
ATOM     15  C   UNL     1       7.054   6.432  17.941  0.00  0.00    +0.000 A 
ATOM     16  C   UNL     1       8.141   7.354  18.413  0.00  0.00    +0.000 C 
ATOM     17  C   UNL     1       6.883   5.187  18.553  0.00  0.00    +0.000 A 
ATOM     18  C   UNL     1       5.853   4.332  18.145  0.00  0.00    +0.000 A 
ENDBRANCH  11  12
ENDBRANCH  10  11
ENDBRANCH   2   5
BRANCH   1  19
ATOM     19  C   UNL     1       2.548   8.063  18.134  0.00  0.00    +0.000 C 
BRANCH  19  20
ATOM     20  C   UNL     1       1.616   8.888  19.022  0.00  0.00    +0.000 C 
BRANCH  20  21
ATOM     21  C   UNL     1       1.303  10.264  18.428  0.00  0.00    +0.000 C 
BRANCH  21  22
ATOM     22  N   UNL     1       0.190  10.925  19.130  0.00  0.00    +0.000 N 
BRANCH  22  23
ATOM     23  C   UNL     1      -1.097  10.975  18.564  0.00  0.00    +0.000 A 
ATOM     24  C   UNL     1      -2.156  11.663  19.193  0.00  0.00    +0.000 A 
ATOM     25  C   UNL     1      -3.443  11.734  18.643  0.00  0.00    +0.000 A 
ATOM     26  C   UNL     1      -3.720  11.114  17.438  0.00  0.00    +0.000 A 
ATOM     27  C   UNL     1      -2.712  10.419  16.774  0.00  0.00    +0.000 A 
ATOM     28  C   UNL     1      -2.986   9.737  15.465  0.00  0.00    +0.000 C 
ATOM     29  C   UNL     1      -1.421  10.357  17.343  0.00  0.00    +0.000 A 
ENDBRANCH  22  23
BRANCH  22  31
ATOM     30  C   UNL     1       1.100  12.881  20.506  0.00  0.00    +0.000 C 
ATOM     31  C   UNL     1       0.382  11.543  20.453  0.00  0.00    +0.000 C 
ENDBRANCH  22  31
ENDBRANCH  21  22
ENDBRANCH  20  21
ENDBRANCH  19  20
ENDBRANCH   1  19
TORSDOF 9
ENDMDL
MODEL 8
REMARK VINA RESULT:      -8.0      0.983      1.627
REMARK  Name = 
REMARK  12 active torsions:
REMARK  status: ('A' for Active; 'I' for Inactive)
REMARK    1  A    between atoms: C_1  and  C_2
REMARK    2  A    between atoms: C_2  and  N_3
REMARK    3  A    between atoms: N_3  and  C_4
REMARK    4  A    between atoms: N_3  and  C_24
REMARK    5  A    between atoms: C_4  and  C_5
REMARK    6  A    between atoms: C_5  and  C_6
REMARK    7  A    between atoms: C_6  and  N_7
REMARK    8  A    between atoms: C_8  and  C_10
REMARK    9  A    between atoms: N_15  and  C_16
REMARK   10  A    between atoms: C_16  and  C_17
REMARK   11  A    between atoms: C_20  and  C_21
REMARK   12  A    between atoms: C_28  and  C_29
REMARK                            x       y       z     vdW  Elec       q    Type
REMARK                         _______ _______ _______ _____ _____    ______ ____
ROOT
ATOM      1  N   UNL     1       2.561   6.047  19.638  0.00  0.00    +0.000 N 
ATOM      2  C   UNL     1       2.025   5.164  18.717  0.00  0.00    +0.000 C 
ATOM      3  O   UNL     1       1.485   5.521  17.677  0.00  0.00    +0.000 OA
ATOM      4  H   UNL     1       2.989   5.665  20.474  0.00  0.00    +0.000 HD
ENDROOT
BRANCH   2   5
ATOM      5  C   UNL     1       2.068   3.687  19.156  0.00  0.00    +0.000 C 
ATOM      6  C   UNL     1       1.723   3.565  20.641  0.00  0.00    +0.000 C 
ATOM      7  C   UNL     1       2.658   2.492  21.181  0.00  0.00    +0.000 C 
ATOM      8  C   UNL     1       3.815   2.496  20.219  0.00  0.00    +0.000 C 
ATOM      9  O   UNL     1       4.899   1.978  20.420  0.00  0.00    +0.000 OA
ATOM     10  N   UNL     1       3.419   3.157  19.073  0.00  0.00    +0.000 N 
BRANCH  10  11
ATOM     11  C   UNL     1       4.186   3.157  17.836  0.00  0.00    +0.000 C 
BRANCH  11  12
ATOM     12  C   UNL     1       5.120   4.334  17.686  0.00  0.00    +0.000 A 
ATOM     13  C   UNL     1       5.005   5.221  16.606  0.00  0.00    +0.000 A 
ATOM     14  C   UNL     1       5.822   6.357  16.528  0.00  0.00    +0.000 A 
ATOM     15  C   UNL     1       6.771   6.623  17.521  0.00  0.00    +0.000 A 
ATOM     16  C   UNL     1       7.625   7.857  17.473  0.00  0.00    +0.000 C 
ATOM     17  C   UNL     1       6.906   5.725  18.585  0.00  0.00    +0.000 A 
ATOM     18  C   UNL     1       6.093   4.588  18.660  0.00  0.00    +0.000 A 
ENDBRANCH  11  12
ENDBRANCH  10  11
ENDBRANCH   2   5
BRANCH   1  19
ATOM     19  C   UNL     1       2.586   7.479  19.431  0.00  0.00    +0.000 C 
BRANCH  19  20
ATOM     20  C   UNL     1       1.407   8.211  20.075  0.00  0.00    +0.000 C 
BRANCH  20  21
ATOM     21  C   UNL     1       1.328   9.681  19.656  0.00  0.00    +0.000 C 
BRANCH  21  22
ATOM     22  N   UNL     1       0.191  10.371  20.288  0.00  0.00    +0.000 N 
BRANCH  22  23
ATOM     23  C   UNL     1      -0.945  10.732  19.541  0.00  0.00    +0.000 A 
ATOM     24  C   UNL     1      -1.812  11.762  19.964  0.00  0.00    +0.000 A 
ATOM     25  C   UNL     1      -2.943  12.145  19.231  0.00  0.00    +0.000 A 
ATOM     26  C   UNL     1      -3.253  11.507  18.043  0.00  0.00    +0.000 A 
ATOM     27  C   UNL     1      -2.431  10.482  17.579  0.00  0.00    +0.000 A 
ATOM     28  C   UNL     1      -2.744   9.773  16.294  0.00  0.00    +0.000 C 
ATOM     29  C   UNL     1      -1.296  10.108  18.331  0.00  0.00    +0.000 A 
ENDBRANCH  22  23
BRANCH  22  31
ATOM     30  C   UNL     1      -0.479   9.715  22.669  0.00  0.00    +0.000 C 
ATOM     31  C   UNL     1       0.198  10.694  21.726  0.00  0.00    +0.000 C 
ENDBRANCH  22  31
ENDBRANCH  21  22
ENDBRANCH  20  21
ENDBRANCH  19  20
ENDBRANCH   1  19
TORSDOF 9
ENDMDL
MODEL 9
REMARK VINA RESULT:      -8.0      1.831      2.589
REMARK  Name = 
REMARK  12 active torsions:
REMARK  status: ('A' for Active; 'I' for Inactive)
REMARK    1  A    between atoms: C_1  and  C_2
REMARK    2  A    between atoms: C_2  and  N_3
REMARK    3  A    between atoms: N_3  and  C_4
REMARK    4  A    between atoms: N_3  and  C_24
REMARK    5  A    between atoms: C_4  and  C_5
REMARK    6  A    between atoms: C_5  and  C_6
REMARK    7  A    between atoms: C_6  and  N_7
REMARK    8  A    between atoms: C_8  and  C_10
REMARK    9  A    between atoms: N_15  and  C_16
REMARK   10  A    between atoms: C_16  and  C_17
REMARK   11  A    between atoms: C_20  and  C_21
REMARK   12  A    between atoms: C_28  and  C_29
REMARK                            x       y       z     vdW  Elec       q    Type
REMARK                         _______ _______ _______ _____ _____    ______ ____
ROOT
ATOM      1  N   UNL     1       2.186   6.799  17.847  0.00  0.00    +0.000 N 
ATOM      2  C   UNL     1       2.437   5.857  18.828  0.00  0.00    +0.000 C 
ATOM      3  O   UNL     1       3.146   6.074  19.805  0.00  0.00    +0.000 OA
ATOM      4  H   UNL     1       1.587   6.535  17.072  0.00  0.00    +0.000 HD
ENDROOT
BRANCH   2   5
ATOM      5  C   UNL     1       1.835   4.467  18.543  0.00  0.00    +0.000 C 
ATOM      6  C   UNL     1       1.282   3.855  19.830  0.00  0.00    +0.000 C 
ATOM      7  C   UNL     1       1.638   2.376  19.754  0.00  0.00    +0.000 C 
ATOM      8  C   UNL     1       2.816   2.331  18.818  0.00  0.00    +0.000 C 
ATOM      9  O   UNL     1       3.571   1.385  18.683  0.00  0.00    +0.000 OA
ATOM     10  N   UNL     1       2.865   3.528  18.130  0.00  0.00    +0.000 N 
BRANCH  10  11
ATOM     11  C   UNL     1       3.722   3.761  16.977  0.00  0.00    +0.000 C 
BRANCH  11  12
ATOM     12  C   UNL     1       4.902   4.661  17.254  0.00  0.00    +0.000 A 
ATOM     13  C   UNL     1       5.167   5.779  16.450  0.00  0.00    +0.000 A 
ATOM     14  C   UNL     1       6.214   6.654  16.772  0.00  0.00    +0.000 A 
ATOM     15  C   UNL     1       7.015   6.426  17.896  0.00  0.00    +0.000 A 
ATOM     16  C   UNL     1       8.113   7.376  18.276  0.00  0.00    +0.000 C 
ATOM     17  C   UNL     1       6.769   5.296  18.683  0.00  0.00    +0.000 A 
ATOM     18  C   UNL     1       5.727   4.420  18.358  0.00  0.00    +0.000 A 
ENDBRANCH  11  12
ENDBRANCH  10  11
ENDBRANCH   2   5
BRANCH   1  19
ATOM     19  C   UNL     1       2.691   8.154  17.910  0.00  0.00    +0.000 C 
BRANCH  19  20
ATOM     20  C   UNL     1       1.592   9.212  18.030  0.00  0.00    +0.000 C 
BRANCH  20  21
ATOM     21  C   UNL     1       1.073   9.359  19.463  0.00  0.00    +0.000 C 
BRANCH  21  22
ATOM     22  N   UNL     1       0.532  10.706  19.714  0.00  0.00    +0.000 N 
BRANCH  22  23
ATOM     23  C   UNL     1      -0.265  10.968  20.843  0.00  0.00    +0.000 A 
ATOM     24  C   UNL     1      -0.150  10.204  22.024  0.00  0.00    +0.000 A 
ATOM     25  C   UNL     1      -0.927  10.455  23.163  0.00  0.00    +0.000 A 
ATOM     26  C   UNL     1      -1.853  11.482  23.163  0.00  0.00    +0.000 A 
ATOM     27  C   UNL     1      -2.009  12.267  22.023  0.00  0.00    +0.000 A 
ATOM     28  C   UNL     1      -3.008  13.388  21.996  0.00  0.00    +0.000 C 
ATOM     29  C   UNL     1      -1.219  12.001  20.883  0.00  0.00    +0.000 A 
ENDBRANCH  22  23
BRANCH  22  31
ATOM     30  C   UNL     1       1.974  12.745  19.157  0.00  0.00    +0.000 C 
ATOM     31  C   UNL     1       0.819  11.826  18.801  0.00  0.00    +0.000 C 
ENDBRANCH  22  31
ENDBRANCH  21  22
ENDBRANCH  20  21
ENDBRANCH  19  20
ENDBRANCH   1  19
TORSDOF 9
ENDMDL
