MODEL 1
REMARK VINA RESULT:      -5.8      0.000      0.000
REMARK  Name = 
REMARK  9 active torsions:
REMARK  status: ('A' for Active; 'I' for Inactive)
REMARK    1  A    between atoms: C_1  and  C_2
REMARK    2  A    between atoms: C_2  and  N_3
REMARK    3  A    between atoms: N_3  and  C_4
REMARK    4  A    between atoms: C_4  and  C_5
REMARK    5  A    between atoms: C_6  and  C_8
REMARK    6  A    between atoms: C_15  and  O_16
REMARK    7  A    between atoms: O_16  and  C_17
REMARK    8  A    between atoms: C_18  and  O_19
REMARK    9  A    between atoms: O_19  and  C_20
REMARK                            x       y       z     vdW  Elec       q    Type
REMARK                         _______ _______ _______ _____ _____    ______ ____
ROOT
ATOM      1  C   UNL     1      -0.540  11.273  20.776  0.00  0.00    +0.000 C 
ATOM      2  C   UNL     1       0.887  11.502  20.211  0.00  0.00    +0.000 C 
ATOM      3  N   UNL     1       1.607  10.304  19.708  0.00  0.00    +0.000 NA
ATOM      4  C   UNL     1       1.319  10.089  18.278  0.00  0.00    +0.000 C 
ATOM      5  C   UNL     1       2.172   8.949  17.707  0.00  0.00    +0.000 C 
ATOM      6  C   UNL     1       2.181   7.722  18.580  0.00  0.00    +0.000 A 
ATOM      7  C   UNL     1       2.626   6.496  18.060  0.00  0.00    +0.000 A 
ATOM      8  C   UNL     1       2.697   5.342  18.856  0.00  0.00    +0.000 A 
ATOM      9  C   UNL     1       2.347   5.435  20.213  0.00  0.00    +0.000 A 
ATOM     10  C   UNL     1       1.913   6.668  20.729  0.00  0.00    +0.000 A 
ATOM     11  C   UNL     1       1.810   7.814  19.926  0.00  0.00    +0.000 A 
ATOM     12  C   UNL     1       1.228   9.103  20.492  0.00  0.00    +0.000 C 
ATOM     13  C   UNL     1      -0.312   8.937  20.697  0.00  0.00    +0.000 C 
ATOM     14  O   UNL     1      -1.080  10.065  20.244  0.00  0.00    +0.000 OA
ENDROOT
BRANCH   1  16
ATOM     15  N   UNL     1      -2.210  12.961  21.689  0.00  0.00    +0.000 N 
ATOM     16  C   UNL     1      -1.434  12.540  20.592  0.00  0.00    +0.000 C 
ATOM     17  O   UNL     1      -1.386  13.206  19.551  0.00  0.00    +0.000 OA
BRANCH  15  19
ATOM     18  C   UNL     1      -2.258  15.414  22.037  0.00  0.00    +0.000 C 
ATOM     19  C   UNL     1      -2.996  14.187  21.512  0.00  0.00    +0.000 C 
ENDBRANCH  15  19
BRANCH  15  20
ATOM     20  C   UNL     1      -2.384  12.124  22.880  0.00  0.00    +0.000 C 
ATOM     21  C   UNL     1      -3.524  12.436  23.838  0.00  0.00    +0.000 C 
ENDBRANCH  15  20
ENDBRANCH   1  16
BRANCH   8  22
ATOM     22  O   UNL     1       3.094   4.126  18.365  0.00  0.00    +0.000 OA
ATOM     23  C   UNL     1       4.412   4.006  17.846  0.00  0.00    +0.000 C 
ENDBRANCH   8  22
BRANCH   9  24
ATOM     24  O   UNL     1       2.355   4.458  21.174  0.00  0.00    +0.000 OA
ATOM     25  C   UNL     1       1.355   3.448  21.137  0.00  0.00    +0.000 C 
ENDBRANCH   9  24
TORSDOF 5
ENDMDL
MODEL 2
REMARK VINA RESULT:      -5.7      2.757      4.102
REMARK  Name = 
REMARK  9 active torsions:
REMARK  status: ('A' for Active; 'I' for Inactive)
REMARK    1  A    between atoms: C_1  and  C_2
REMARK    2  A    between atoms: C_2  and  N_3
REMARK    3  A    between atoms: N_3  and  C_4
REMARK    4  A    between atoms: C_4  and  C_5
REMARK    5  A    between atoms: C_6  and  C_8
REMARK    6  A    between atoms: C_15  and  O_16
REMARK    7  A    between atoms: O_16  and  C_17
REMARK    8  A    between atoms: C_18  and  O_19
REMARK    9  A    between atoms: O_19  and  C_20
REMARK                            x       y       z     vdW  Elec       q    Type
REMARK                         _______ _______ _______ _____ _____    ______ ____
ROOT
ATOM      1  C   UNL     1       0.589  12.938  18.598  0.00  0.00    +0.000 C 
ATOM      2  C   UNL     1      -0.526  11.911  18.932  0.00  0.00    +0.000 C 
ATOM      3  N   UNL     1      -0.091  10.516  19.200  0.00  0.00    +0.000 NA
ATOM      4  C   UNL     1       0.199  10.329  20.633  0.00  0.00    +0.000 C 
ATOM      5  C   UNL     1       0.499   8.859  20.949  0.00  0.00    +0.000 C 
ATOM      6  C   UNL     1       1.469   8.232  19.982  0.00  0.00    +0.000 A 
ATOM      7  C   UNL     1       2.100   7.020  20.310  0.00  0.00    +0.000 A 
ATOM      8  C   UNL     1       2.971   6.380  19.415  0.00  0.00    +0.000 A 
ATOM      9  C   UNL     1       3.181   6.953  18.149  0.00  0.00    +0.000 A 
ATOM     10  C   UNL     1       2.537   8.159  17.825  0.00  0.00    +0.000 A 
ATOM     11  C   UNL     1       1.693   8.817  18.732  0.00  0.00    +0.000 A 
ATOM     12  C   UNL     1       1.104  10.179  18.387  0.00  0.00    +0.000 C 
ATOM     13  C   UNL     1       2.228  11.263  18.431  0.00  0.00    +0.000 C 
ATOM     14  O   UNL     1       1.838  12.472  19.104  0.00  0.00    +0.000 OA
ENDROOT
BRANCH   1  16
ATOM     15  N   UNL     1       1.045  15.438  18.689  0.00  0.00    +0.000 N 
ATOM     16  C   UNL     1       0.186  14.379  19.041  0.00  0.00    +0.000 C 
ATOM     17  O   UNL     1      -0.898  14.594  19.596  0.00  0.00    +0.000 OA
BRANCH  15  19
ATOM     18  C   UNL     1      -0.242  17.434  17.980  0.00  0.00    +0.000 C 
ATOM     19  C   UNL     1       0.616  16.791  19.065  0.00  0.00    +0.000 C 
ENDBRANCH  15  19
BRANCH  15  20
ATOM     20  C   UNL     1       2.388  15.199  18.152  0.00  0.00    +0.000 C 
ATOM     21  C   UNL     1       3.141  16.357  17.514  0.00  0.00    +0.000 C 
ENDBRANCH  15  20
ENDBRANCH   1  16
BRANCH   8  22
ATOM     22  O   UNL     1       3.626   5.216  19.722  0.00  0.00    +0.000 OA
ATOM     23  C   UNL     1       2.955   3.984  19.496  0.00  0.00    +0.000 C 
ENDBRANCH   8  22
BRANCH   9  24
ATOM     24  O   UNL     1       3.964   6.502  17.119  0.00  0.00    +0.000 OA
ATOM     25  C   UNL     1       5.353   6.804  17.127  0.00  0.00    +0.000 C 
ENDBRANCH   9  24
TORSDOF 5
ENDMDL
MODEL 3
REMARK VINA RESULT:      -5.5      2.016      8.618
REMARK  Name = 
REMARK  9 active torsions:
REMARK  status: ('A' for Active; 'I' for Inactive)
REMARK    1  A    between atoms: C_1  and  C_2
REMARK    2  A    between atoms: C_2  and  N_3
REMARK    3  A    between atoms: N_3  and  C_4
REMARK    4  A    between atoms: C_4  and  C_5
REMARK    5  A    between atoms: C_6  and  C_8
REMARK    6  A    between atoms: C_15  and  O_16
REMARK    7  A    between atoms: O_16  and  C_17
REMARK    8  A    between atoms: C_18  and  O_19
REMARK    9  A    between atoms: O_19  and  C_20
REMARK                            x       y       z     vdW  Elec       q    Type
REMARK                         _______ _______ _______ _____ _____    ______ ____
ROOT
ATOM      1  C   UNL     1       1.672   8.332  20.363  0.00  0.00    +0.000 C 
ATOM      2  C   UNL     1       1.684   8.681  21.875  0.00  0.00    +0.000 C 
ATOM      3  N   UNL     1       0.925   9.890  22.288  0.00  0.00    +0.000 NA
ATOM      4  C   UNL     1      -0.471   9.540  22.610  0.00  0.00    +0.000 C 
ATOM      5  C   UNL     1      -1.225  10.746  23.184  0.00  0.00    +0.000 C 
ATOM      6  C   UNL     1      -1.017  12.007  22.387  0.00  0.00    +0.000 A 
ATOM      7  C   UNL     1      -1.879  13.102  22.571  0.00  0.00    +0.000 A 
ATOM      8  C   UNL     1      -1.688  14.310  21.885  0.00  0.00    +0.000 A 
ATOM      9  C   UNL     1      -0.584  14.432  21.024  0.00  0.00    +0.000 A 
ATOM     10  C   UNL     1       0.280  13.337  20.854  0.00  0.00    +0.000 A 
ATOM     11  C   UNL     1       0.070  12.117  21.514  0.00  0.00    +0.000 A 
ATOM     12  C   UNL     1       0.961  10.917  21.218  0.00  0.00    +0.000 C 
ATOM     13  C   UNL     1       0.638  10.363  19.794  0.00  0.00    +0.000 C 
ATOM     14  O   UNL     1       0.536   8.930  19.741  0.00  0.00    +0.000 OA
ENDROOT
BRANCH   1  16
ATOM     15  N   UNL     1       2.602   6.370  19.038  0.00  0.00    +0.000 N 
ATOM     16  C   UNL     1       1.825   6.796  20.133  0.00  0.00    +0.000 C 
ATOM     17  O   UNL     1       1.363   5.983  20.942  0.00  0.00    +0.000 OA
BRANCH  15  19
ATOM     18  C   UNL     1       1.784   4.336  17.882  0.00  0.00    +0.000 C 
ATOM     19  C   UNL     1       2.781   4.922  18.876  0.00  0.00    +0.000 C 
ENDBRANCH  15  19
BRANCH  15  20
ATOM     20  C   UNL     1       3.048   7.302  17.997  0.00  0.00    +0.000 C 
ATOM     21  C   UNL     1       4.349   7.016  17.263  0.00  0.00    +0.000 C 
ENDBRANCH  15  20
ENDBRANCH   1  16
BRANCH   8  22
ATOM     22  O   UNL     1      -2.534  15.381  22.019  0.00  0.00    +0.000 OA
ATOM     23  C   UNL     1      -2.412  16.196  23.178  0.00  0.00    +0.000 C 
ENDBRANCH   8  22
BRANCH   9  24
ATOM     24  O   UNL     1      -0.192  15.509  20.273  0.00  0.00    +0.000 OA
ATOM     25  C   UNL     1      -0.207  15.401  18.856  0.00  0.00    +0.000 C 
ENDBRANCH   9  24
TORSDOF 5
ENDMDL
MODEL 4
REMARK VINA RESULT:      -5.5      1.378      1.896
REMARK  Name = 
REMARK  9 active torsions:
REMARK  status: ('A' for Active; 'I' for Inactive)
REMARK    1  A    between atoms: C_1  and  C_2
REMARK    2  A    between atoms: C_2  and  N_3
REMARK    3  A    between atoms: N_3  and  C_4
REMARK    4  A    between atoms: C_4  and  C_5
REMARK    5  A    between atoms: C_6  and  C_8
REMARK    6  A    between atoms: C_15  and  O_16
REMARK    7  A    between atoms: O_16  and  C_17
REMARK    8  A    between atoms: C_18  and  O_19
REMARK    9  A    between atoms: O_19  and  C_20
REMARK                            x       y       z     vdW  Elec       q    Type
REMARK                         _______ _______ _______ _____ _____    ______ ____
ROOT
ATOM      1  C   UNL     1      -0.274  10.474  21.788  0.00  0.00    +0.000 C 
ATOM      2  C   UNL     1       1.061  10.793  21.062  0.00  0.00    +0.000 C 
ATOM      3  N   UNL     1       1.687   9.685  20.296  0.00  0.00    +0.000 NA
ATOM      4  C   UNL     1       1.195   9.674  18.906  0.00  0.00    +0.000 C 
ATOM      5  C   UNL     1       1.945   8.635  18.063  0.00  0.00    +0.000 C 
ATOM      6  C   UNL     1       2.064   7.296  18.743  0.00  0.00    +0.000 A 
ATOM      7  C   UNL     1       2.416   6.160  17.995  0.00  0.00    +0.000 A 
ATOM      8  C   UNL     1       2.586   4.906  18.600  0.00  0.00    +0.000 A 
ATOM      9  C   UNL     1       2.435   4.801  19.993  0.00  0.00    +0.000 A 
ATOM     10  C   UNL     1       2.094   5.944  20.736  0.00  0.00    +0.000 A 
ATOM     11  C   UNL     1       1.890   7.191  20.127  0.00  0.00    +0.000 A 
ATOM     12  C   UNL     1       1.410   8.381  20.948  0.00  0.00    +0.000 C 
ATOM     13  C   UNL     1      -0.086   8.175  21.346  0.00  0.00    +0.000 C 
ATOM     14  O   UNL     1      -0.898   9.349  21.172  0.00  0.00    +0.000 OA
ENDROOT
BRANCH   1  16
ATOM     15  N   UNL     1      -1.898  12.152  20.780  0.00  0.00    +0.000 N 
ATOM     16  C   UNL     1      -1.170  11.746  21.915  0.00  0.00    +0.000 C 
ATOM     17  O   UNL     1      -1.311  12.318  23.002  0.00  0.00    +0.000 OA
BRANCH  15  19
ATOM     18  C   UNL     1      -4.203  13.013  20.483  0.00  0.00    +0.000 C 
ATOM     19  C   UNL     1      -2.779  13.315  20.940  0.00  0.00    +0.000 C 
ENDBRANCH  15  19
BRANCH  15  20
ATOM     20  C   UNL     1      -1.650  11.575  19.455  0.00  0.00    +0.000 C 
ATOM     21  C   UNL     1      -1.148  12.481  18.341  0.00  0.00    +0.000 C 
ENDBRANCH  15  20
ENDBRANCH   1  16
BRANCH   8  22
ATOM     22  O   UNL     1       2.895   3.775  17.890  0.00  0.00    +0.000 OA
ATOM     23  C   UNL     1       4.243   3.582  17.482  0.00  0.00    +0.000 C 
ENDBRANCH   8  22
BRANCH   9  24
ATOM     24  O   UNL     1       2.569   3.697  20.794  0.00  0.00    +0.000 OA
ATOM     25  C   UNL     1       1.405   2.967  21.159  0.00  0.00    +0.000 C 
ENDBRANCH   9  24
TORSDOF 5
ENDMDL
MODEL 5
REMARK VINA RESULT:      -5.5      2.255      8.196
REMARK  Name = 
REMARK  9 active torsions:
REMARK  status: ('A' for Active; 'I' for Inactive)
REMARK    1  A    between atoms: C_1  and  C_2
REMARK    2  A    between atoms: C_2  and  N_3
REMARK    3  A    between atoms: N_3  and  C_4
REMARK    4  A    between atoms: C_4  and  C_5
REMARK    5  A    between atoms: C_6  and  C_8
REMARK    6  A    between atoms: C_15  and  O_16
REMARK    7  A    between atoms: O_16  and  C_17
REMARK    8  A    between atoms: C_18  and  O_19
REMARK    9  A    between atoms: O_19  and  C_20
REMARK                            x       y       z     vdW  Elec       q    Type
REMARK                         _______ _______ _______ _____ _____    ______ ____
ROOT
ATOM      1  C   UNL     1       1.248   8.579  19.520  0.00  0.00    +0.000 C 
ATOM      2  C   UNL     1       0.927   9.842  18.676  0.00  0.00    +0.000 C 
ATOM      3  N   UNL     1       0.457  11.040  19.418  0.00  0.00    +0.000 NA
ATOM      4  C   UNL     1       1.599  11.878  19.826  0.00  0.00    +0.000 C 
ATOM      5  C   UNL     1       1.123  13.192  20.457  0.00  0.00    +0.000 C 
ATOM      6  C   UNL     1       0.036  12.997  21.481  0.00  0.00    +0.000 A 
ATOM      7  C   UNL     1      -0.275  14.032  22.379  0.00  0.00    +0.000 A 
ATOM      8  C   UNL     1      -1.314  13.907  23.313  0.00  0.00    +0.000 A 
ATOM      9  C   UNL     1      -2.081  12.730  23.318  0.00  0.00    +0.000 A 
ATOM     10  C   UNL     1      -1.771  11.703  22.410  0.00  0.00    +0.000 A 
ATOM     11  C   UNL     1      -0.710  11.814  21.498  0.00  0.00    +0.000 A 
ATOM     12  C   UNL     1      -0.333  10.637  20.608  0.00  0.00    +0.000 C 
ATOM     13  C   UNL     1       0.340   9.522  21.470  0.00  0.00    +0.000 C 
ATOM     14  O   UNL     1       1.518   8.958  20.868  0.00  0.00    +0.000 OA
ENDROOT
BRANCH   1  16
ATOM     15  N   UNL     1       2.473   6.366  19.254  0.00  0.00    +0.000 N 
ATOM     16  C   UNL     1       2.350   7.706  18.840  0.00  0.00    +0.000 C 
ATOM     17  O   UNL     1       3.023   8.149  17.902  0.00  0.00    +0.000 OA
BRANCH  15  19
ATOM     18  C   UNL     1       4.720   5.332  19.415  0.00  0.00    +0.000 C 
ATOM     19  C   UNL     1       3.475   5.548  18.560  0.00  0.00    +0.000 C 
ENDBRANCH  15  19
BRANCH  15  20
ATOM     20  C   UNL     1       1.783   5.857  20.444  0.00  0.00    +0.000 C 
ATOM     21  C   UNL     1       1.198   4.453  20.410  0.00  0.00    +0.000 C 
ENDBRANCH  15  20
ENDBRANCH   1  16
BRANCH   8  22
ATOM     22  O   UNL     1      -1.615  14.887  24.223  0.00  0.00    +0.000 OA
ATOM     23  C   UNL     1      -2.461  15.953  23.811  0.00  0.00    +0.000 C 
ENDBRANCH   8  22
BRANCH   9  24
ATOM     24  O   UNL     1      -3.142  12.396  24.119  0.00  0.00    +0.000 OA
ATOM     25  C   UNL     1      -4.448  12.806  23.736  0.00  0.00    +0.000 C 
ENDBRANCH   9  24
TORSDOF 5
ENDMDL
MODEL 6
REMARK VINA RESULT:      -5.5      2.166      8.084
REMARK  Name = 
REMARK  9 active torsions:
REMARK  status: ('A' for Active; 'I' for Inactive)
REMARK    1  A    between atoms: C_1  and  C_2
REMARK    2  A    between atoms: C_2  and  N_3
REMARK    3  A    between atoms: N_3  and  C_4
REMARK    4  A    between atoms: C_4  and  C_5
REMARK    5  A    between atoms: C_6  and  C_8
REMARK    6  A    between atoms: C_15  and  O_16
REMARK    7  A    between atoms: O_16  and  C_17
REMARK    8  A    between atoms: C_18  and  O_19
REMARK    9  A    between atoms: O_19  and  C_20
REMARK                            x       y       z     vdW  Elec       q    Type
REMARK                         _______ _______ _______ _____ _____    ______ ____
ROOT
ATOM      1  C   UNL     1       1.814   7.800  18.818  0.00  0.00    +0.000 C 
ATOM      2  C   UNL     1       1.364   8.981  17.918  0.00  0.00    +0.000 C 
ATOM      3  N   UNL     1       0.940  10.225  18.610  0.00  0.00    +0.000 NA
ATOM      4  C   UNL     1       2.093  11.120  18.820  0.00  0.00    +0.000 C 
ATOM      5  C   UNL     1       1.648  12.471  19.393  0.00  0.00    +0.000 C 
ATOM      6  C   UNL     1       0.686  12.336  20.545  0.00  0.00    +0.000 A 
ATOM      7  C   UNL     1       0.443  13.435  21.386  0.00  0.00    +0.000 A 
ATOM      8  C   UNL     1      -0.483  13.364  22.438  0.00  0.00    +0.000 A 
ATOM      9  C   UNL     1      -1.207  12.175  22.622  0.00  0.00    +0.000 A 
ATOM     10  C   UNL     1      -0.966  11.084  21.770  0.00  0.00    +0.000 A 
ATOM     11  C   UNL     1      -0.016  11.143  20.739  0.00  0.00    +0.000 A 
ATOM     12  C   UNL     1       0.298   9.905  19.909  0.00  0.00    +0.000 C 
ATOM     13  C   UNL     1       1.096   8.880  20.777  0.00  0.00    +0.000 C 
ATOM     14  O   UNL     1       2.218   8.294  20.094  0.00  0.00    +0.000 OA
ENDROOT
BRANCH   1  16
ATOM     15  N   UNL     1       2.740   5.503  18.238  0.00  0.00    +0.000 N 
ATOM     16  C   UNL     1       2.862   6.899  18.091  0.00  0.00    +0.000 C 
ATOM     17  O   UNL     1       3.707   7.390  17.335  0.00  0.00    +0.000 OA
BRANCH  15  19
ATOM     18  C   UNL     1       3.149   3.278  17.226  0.00  0.00    +0.000 C 
ATOM     19  C   UNL     1       3.700   4.674  17.498  0.00  0.00    +0.000 C 
ENDBRANCH  15  19
BRANCH  15  20
ATOM     20  C   UNL     1       1.836   4.904  19.225  0.00  0.00    +0.000 C 
ATOM     21  C   UNL     1       2.336   4.695  20.647  0.00  0.00    +0.000 C 
ENDBRANCH  15  20
ENDBRANCH   1  16
BRANCH   8  22
ATOM     22  O   UNL     1      -0.713  14.409  23.294  0.00  0.00    +0.000 OA
ATOM     23  C   UNL     1      -1.138  15.650  22.746  0.00  0.00    +0.000 C 
ENDBRANCH   8  22
BRANCH   9  24
ATOM     24  O   UNL     1      -2.163  11.885  23.560  0.00  0.00    +0.000 OA
ATOM     25  C   UNL     1      -3.476  12.402  23.387  0.00  0.00    +0.000 C 
ENDBRANCH   9  24
TORSDOF 5
ENDMDL
MODEL 7
REMARK VINA RESULT:      -5.4      2.040      8.059
REMARK  Name = 
REMARK  9 active torsions:
REMARK  status: ('A' for Active; 'I' for Inactive)
REMARK    1  A    between atoms: C_1  and  C_2
REMARK    2  A    between atoms: C_2  and  N_3
REMARK    3  A    between atoms: N_3  and  C_4
REMARK    4  A    between atoms: C_4  and  C_5
REMARK    5  A    between atoms: C_6  and  C_8
REMARK    6  A    between atoms: C_15  and  O_16
REMARK    7  A    between atoms: O_16  and  C_17
REMARK    8  A    between atoms: C_18  and  O_19
REMARK    9  A    between atoms: O_19  and  C_20
REMARK                            x       y       z     vdW  Elec       q    Type
REMARK                         _______ _______ _______ _____ _____    ______ ____
ROOT
ATOM      1  C   UNL     1       1.986   7.594  19.020  0.00  0.00    +0.000 C 
ATOM      2  C   UNL     1       1.742   8.525  17.802  0.00  0.00    +0.000 C 
ATOM      3  N   UNL     1       1.206   9.880  18.093  0.00  0.00    +0.000 NA
ATOM      4  C   UNL     1       2.306  10.835  18.318  0.00  0.00    +0.000 C 
ATOM      5  C   UNL     1       1.774  12.266  18.467  0.00  0.00    +0.000 C 
ATOM      6  C   UNL     1       0.598  12.365  19.404  0.00  0.00    +0.000 A 
ATOM      7  C   UNL     1       0.207  13.617  19.907  0.00  0.00    +0.000 A 
ATOM      8  C   UNL     1      -0.912  13.757  20.741  0.00  0.00    +0.000 A 
ATOM      9  C   UNL     1      -1.676  12.617  21.045  0.00  0.00    +0.000 A 
ATOM     10  C   UNL     1      -1.284  11.369  20.530  0.00  0.00    +0.000 A 
ATOM     11  C   UNL     1      -0.145  11.224  19.723  0.00  0.00    +0.000 A 
ATOM     12  C   UNL     1       0.312   9.841  19.277  0.00  0.00    +0.000 C 
ATOM     13  C   UNL     1       0.905   9.066  20.496  0.00  0.00    +0.000 C 
ATOM     14  O   UNL     1       2.132   8.378  20.202  0.00  0.00    +0.000 OA
ENDROOT
BRANCH   1  16
ATOM     15  N   UNL     1       3.119   5.352  19.419  0.00  0.00    +0.000 N 
ATOM     16  C   UNL     1       3.145   6.586  18.741  0.00  0.00    +0.000 C 
ATOM     17  O   UNL     1       4.002   6.824  17.881  0.00  0.00    +0.000 OA
BRANCH  15  19
ATOM     18  C   UNL     1       3.761   3.422  18.004  0.00  0.00    +0.000 C 
ATOM     19  C   UNL     1       4.186   4.397  19.097  0.00  0.00    +0.000 C 
ENDBRANCH  15  19
BRANCH  15  20
ATOM     20  C   UNL     1       2.196   5.100  20.530  0.00  0.00    +0.000 C 
ATOM     21  C   UNL     1       1.015   4.167  20.308  0.00  0.00    +0.000 C 
ENDBRANCH  15  20
ENDBRANCH   1  16
BRANCH   8  22
ATOM     22  O   UNL     1      -1.295  14.960  21.273  0.00  0.00    +0.000 OA
ATOM     23  C   UNL     1      -0.356  16.028  21.274  0.00  0.00    +0.000 C 
ENDBRANCH   8  22
BRANCH   9  24
ATOM     24  O   UNL     1      -2.805  12.516  21.815  0.00  0.00    +0.000 OA
ATOM     25  C   UNL     1      -2.675  12.154  23.183  0.00  0.00    +0.000 C 
ENDBRANCH   9  24
TORSDOF 5
ENDMDL
MODEL 8
REMARK VINA RESULT:      -5.2      2.359      3.899
REMARK  Name = 
REMARK  9 active torsions:
REMARK  status: ('A' for Active; 'I' for Inactive)
REMARK    1  A    between atoms: C_1  and  C_2
REMARK    2  A    between atoms: C_2  and  N_3
REMARK    3  A    between atoms: N_3  and  C_4
REMARK    4  A    between atoms: C_4  and  C_5
REMARK    5  A    between atoms: C_6  and  C_8
REMARK    6  A    between atoms: C_15  and  O_16
REMARK    7  A    between atoms: O_16  and  C_17
REMARK    8  A    between atoms: C_18  and  O_19
REMARK    9  A    between atoms: O_19  and  C_20
REMARK                            x       y       z     vdW  Elec       q    Type
REMARK                         _______ _______ _______ _____ _____    ______ ____
ROOT
ATOM      1  C   UNL     1      -0.147  13.604  20.245  0.00  0.00    +0.000 C 
ATOM      2  C   UNL     1      -1.217  12.529  20.575  0.00  0.00    +0.000 C 
ATOM      3  N   UNL     1      -0.764  11.115  20.581  0.00  0.00    +0.000 NA
ATOM      4  C   UNL     1      -0.288  10.728  21.922  0.00  0.00    +0.000 C 
ATOM      5  C   UNL     1       0.038   9.231  21.983  0.00  0.00    +0.000 C 
ATOM      6  C   UNL     1       0.865   8.758  20.816  0.00  0.00    +0.000 A 
ATOM      7  C   UNL     1       1.523   7.518  20.881  0.00  0.00    +0.000 A 
ATOM      8  C   UNL     1       2.262   7.021  19.797  0.00  0.00    +0.000 A 
ATOM      9  C   UNL     1       2.307   7.770  18.609  0.00  0.00    +0.000 A 
ATOM     10  C   UNL     1       1.638   9.004  18.548  0.00  0.00    +0.000 A 
ATOM     11  C   UNL     1       0.927   9.518  19.643  0.00  0.00    +0.000 A 
ATOM     12  C   UNL     1       0.310  10.909  19.577  0.00  0.00    +0.000 C 
ATOM     13  C   UNL     1       1.439  11.986  19.626  0.00  0.00    +0.000 C 
ATOM     14  O   UNL     1       1.154  13.084  20.510  0.00  0.00    +0.000 OA
ENDROOT
BRANCH   1  16
ATOM     15  N   UNL     1      -0.558  16.111  20.127  0.00  0.00    +0.000 N 
ATOM     16  C   UNL     1      -0.475  14.964  20.939  0.00  0.00    +0.000 C 
ATOM     17  O   UNL     1      -0.748  15.013  22.144  0.00  0.00    +0.000 OA
BRANCH  15  19
ATOM     18  C   UNL     1       0.304  18.140  21.259  0.00  0.00    +0.000 C 
ATOM     19  C   UNL     1      -0.925  17.367  20.792  0.00  0.00    +0.000 C 
ENDBRANCH  15  19
BRANCH  15  20
ATOM     20  C   UNL     1      -0.113  16.104  18.730  0.00  0.00    +0.000 C 
ATOM     21  C   UNL     1      -0.545  17.241  17.815  0.00  0.00    +0.000 C 
ENDBRANCH  15  20
ENDBRANCH   1  16
BRANCH   8  22
ATOM     22  O   UNL     1       2.942   5.832  19.846  0.00  0.00    +0.000 OA
ATOM     23  C   UNL     1       2.365   4.754  20.572  0.00  0.00    +0.000 C 
ENDBRANCH   8  22
BRANCH   9  24
ATOM     24  O   UNL     1       2.943   7.478  17.430  0.00  0.00    +0.000 OA
ATOM     25  C   UNL     1       4.337   7.202  17.450  0.00  0.00    +0.000 C 
ENDBRANCH   9  24
TORSDOF 5
ENDMDL
MODEL 9
REMARK VINA RESULT:      -5.2      5.333      6.930
REMARK  Name = 
REMARK  9 active torsions:
REMARK  status: ('A' for Active; 'I' for Inactive)
REMARK    1  A    between atoms: C_1  and  C_2
REMARK    2  A    between atoms: C_2  and  N_3
REMARK    3  A    between atoms: N_3  and  C_4
REMARK    4  A    between atoms: C_4  and  C_5
REMARK    5  A    between atoms: C_6  and  C_8
REMARK    6  A    between atoms: C_15  and  O_16
REMARK    7  A    between atoms: O_16  and  C_17
REMARK    8  A    between atoms: C_18  and  O_19
REMARK    9  A    between atoms: O_19  and  C_20
REMARK                            x       y       z     vdW  Elec       q    Type
REMARK                         _______ _______ _______ _____ _____    ______ ____
ROOT
ATOM      1  C   UNL     1      -1.742  14.579  22.795  0.00  0.00    +0.000 C 
ATOM      2  C   UNL     1      -1.221  13.119  22.720  0.00  0.00    +0.000 C 
ATOM      3  N   UNL     1      -1.535  12.360  21.481  0.00  0.00    +0.000 NA
ATOM      4  C   UNL     1      -0.476  12.552  20.473  0.00  0.00    +0.000 C 
ATOM      5  C   UNL     1      -0.707  11.656  19.251  0.00  0.00    +0.000 C 
ATOM      6  C   UNL     1      -2.127  11.697  18.748  0.00  0.00    +0.000 A 
ATOM      7  C   UNL     1      -2.429  11.210  17.465  0.00  0.00    +0.000 A 
ATOM      8  C   UNL     1      -3.745  11.185  16.981  0.00  0.00    +0.000 A 
ATOM      9  C   UNL     1      -4.783  11.623  17.819  0.00  0.00    +0.000 A 
ATOM     10  C   UNL     1      -4.474  12.099  19.105  0.00  0.00    +0.000 A 
ATOM     11  C   UNL     1      -3.154  12.156  19.578  0.00  0.00    +0.000 A 
ATOM     12  C   UNL     1      -2.847  12.782  20.932  0.00  0.00    +0.000 C 
ATOM     13  C   UNL     1      -3.032  14.331  20.848  0.00  0.00    +0.000 C 
ATOM     14  O   UNL     1      -1.976  15.075  21.478  0.00  0.00    +0.000 OA
ENDROOT
BRANCH   1  16
ATOM     15  N   UNL     1      -1.338  15.930  24.912  0.00  0.00    +0.000 N 
ATOM     16  C   UNL     1      -0.819  15.467  23.687  0.00  0.00    +0.000 C 
ATOM     17  O   UNL     1       0.359  15.673  23.375  0.00  0.00    +0.000 OA
BRANCH  15  19
ATOM     18  C   UNL     1      -0.193  16.037  27.107  0.00  0.00    +0.000 C 
ATOM     19  C   UNL     1      -0.432  16.713  25.761  0.00  0.00    +0.000 C 
ENDBRANCH  15  19
BRANCH  15  20
ATOM     20  C   UNL     1      -2.761  15.810  25.243  0.00  0.00    +0.000 C 
ATOM     21  C   UNL     1      -3.677  16.999  24.990  0.00  0.00    +0.000 C 
ENDBRANCH  15  20
ENDBRANCH   1  16
BRANCH   8  22
ATOM     22  O   UNL     1      -4.064  10.748  15.721  0.00  0.00    +0.000 OA
ATOM     23  C   UNL     1      -3.010  10.312  14.871  0.00  0.00    +0.000 C 
ENDBRANCH   8  22
BRANCH   9  24
ATOM     24  O   UNL     1      -6.130  11.673  17.571  0.00  0.00    +0.000 OA
ATOM     25  C   UNL     1      -7.028  11.805  18.665  0.00  0.00    +0.000 C 
ENDBRANCH   9  24
TORSDOF 5
ENDMDL
