MODEL 1
REMARK VINA RESULT:      -6.9      0.000      0.000
REMARK  Name = 
REMARK  7 active torsions:
REMARK  status: ('A' for Active; 'I' for Inactive)
REMARK    1  A    between atoms: C_1  and  O_2
REMARK    2  A    between atoms: O_2  and  C_3
REMARK    3  A    between atoms: C_8  and  C_9
REMARK    4  A    between atoms: C_9  and  N_10
REMARK    5  A    between atoms: C_11  and  C_13
REMARK    6  A    between atoms: CA_18  and  C_19
REMARK    7  A    between atoms: C_19  and  O_20
REMARK                            x       y       z     vdW  Elec       q    Type
REMARK                         _______ _______ _______ _____ _____    ______ ____
ROOT
ATOM      1  N   UNL     1       3.516   5.857  17.948  0.00  0.00    +0.000 N 
ATOM      2  C   UNL     1       4.828   5.524  18.227  0.00  0.00    +0.000 C 
ATOM      3  O   UNL     1       5.271   5.474  19.370  0.00  0.00    +0.000 OA
ATOM      4  H   UNL     1       3.205   5.732  16.988  0.00  0.00    +0.000 HD
ENDROOT
BRANCH   2   5
ATOM      5  C   UNL     1       5.686   5.225  17.025  0.00  0.00    +0.000 A 
ATOM      6  N   UNL     1       5.261   4.167  16.262  0.00  0.00    +0.000 NA
ATOM      7  C   UNL     1       6.009   3.902  15.165  0.00  0.00    +0.000 A 
ATOM      8  C   UNL     1       7.120   4.648  14.822  0.00  0.00    +0.000 A 
ATOM      9  N   UNL     1       7.541   5.694  15.565  0.00  0.00    +0.000 NA
ATOM     10  CA  UNL     1       6.817   5.980  16.693  0.00  0.00    +0.000 A 
BRANCH  10  11
ATOM     11  C   UNL     1       7.311   7.148  17.505  0.00  0.00    +0.000 C 
BRANCH  11  12
ATOM     12  O   UNL     1       8.020   6.730  18.667  0.00  0.00    +0.000 OA
ATOM     13  H   UNL     1       7.442   6.061  19.094  0.00  0.00    +0.000 HD
ENDBRANCH  11  12
ENDBRANCH  10  11
ENDBRANCH   2   5
BRANCH   1  14
ATOM     14  C   UNL     1       2.531   6.046  18.996  0.00  0.00    +0.000 C 
BRANCH  14  20
ATOM     15  C   UNL     1       1.823   3.585  19.018  0.00  0.00    +0.000 A 
ATOM     16  C   UNL     1       1.627   2.390  19.725  0.00  0.00    +0.000 A 
ATOM     17  C   UNL     1       1.731   2.361  21.115  0.00  0.00    +0.000 A 
ATOM     18  C   UNL     1       2.051   3.523  21.811  0.00  0.00    +0.000 A 
ATOM     19  C   UNL     1       2.288   4.707  21.111  0.00  0.00    +0.000 A 
ATOM     20  C   UNL     1       2.185   4.757  19.707  0.00  0.00    +0.000 A 
BRANCH  15  22
ATOM     21  C   UNL     1       2.395   2.621  16.944  0.00  0.00    +0.000 C 
ATOM     22  O   UNL     1       1.722   3.660  17.652  0.00  0.00    +0.000 OA
ENDBRANCH  15  22
ENDBRANCH  14  20
ENDBRANCH   1  14
TORSDOF 6
ENDMDL
MODEL 2
REMARK VINA RESULT:      -6.7      2.089      3.205
REMARK  Name = 
REMARK  7 active torsions:
REMARK  status: ('A' for Active; 'I' for Inactive)
REMARK    1  A    between atoms: C_1  and  O_2
REMARK    2  A    between atoms: O_2  and  C_3
REMARK    3  A    between atoms: C_8  and  C_9
REMARK    4  A    between atoms: C_9  and  N_10
REMARK    5  A    between atoms: C_11  and  C_13
REMARK    6  A    between atoms: CA_18  and  C_19
REMARK    7  A    between atoms: C_19  and  O_20
REMARK                            x       y       z     vdW  Elec       q    Type
REMARK                         _______ _______ _______ _____ _____    ______ ____
ROOT
ATOM      1  N   UNL     1       4.576   2.886  17.593  0.00  0.00    +0.000 N 
ATOM      2  C   UNL     1       4.317   4.212  17.302  0.00  0.00    +0.000 C 
ATOM      3  O   UNL     1       3.182   4.643  17.125  0.00  0.00    +0.000 OA
ATOM      4  H   UNL     1       5.527   2.653  17.865  0.00  0.00    +0.000 HD
ENDROOT
BRANCH   2   5
ATOM      5  C   UNL     1       5.530   5.101  17.216  0.00  0.00    +0.000 A 
ATOM      6  N   UNL     1       5.942   5.632  18.411  0.00  0.00    +0.000 NA
ATOM      7  C   UNL     1       7.047   6.413  18.353  0.00  0.00    +0.000 A 
ATOM      8  C   UNL     1       7.727   6.655  17.175  0.00  0.00    +0.000 A 
ATOM      9  N   UNL     1       7.330   6.133  15.995  0.00  0.00    +0.000 NA
ATOM     10  CA  UNL     1       6.205   5.350  16.014  0.00  0.00    +0.000 A 
BRANCH  10  11
ATOM     11  C   UNL     1       5.782   4.783  14.685  0.00  0.00    +0.000 C 
BRANCH  11  12
ATOM     12  O   UNL     1       6.320   3.483  14.463  0.00  0.00    +0.000 OA
ATOM     13  H   UNL     1       7.223   3.509  14.849  0.00  0.00    +0.000 HD
ENDBRANCH  11  12
ENDBRANCH  10  11
ENDBRANCH   2   5
BRANCH   1  14
ATOM     14  C   UNL     1       3.511   1.931  17.838  0.00  0.00    +0.000 C 
BRANCH  14  20
ATOM     15  C   UNL     1       3.419   2.413  20.351  0.00  0.00    +0.000 A 
ATOM     16  C   UNL     1       2.680   2.784  21.484  0.00  0.00    +0.000 A 
ATOM     17  C   UNL     1       1.292   2.900  21.422  0.00  0.00    +0.000 A 
ATOM     18  C   UNL     1       0.630   2.665  20.220  0.00  0.00    +0.000 A 
ATOM     19  C   UNL     1       1.362   2.335  19.078  0.00  0.00    +0.000 A 
ATOM     20  C   UNL     1       2.764   2.211  19.122  0.00  0.00    +0.000 A 
BRANCH  15  22
ATOM     21  C   UNL     1       5.262   1.124  21.057  0.00  0.00    +0.000 C 
ATOM     22  O   UNL     1       4.783   2.279  20.370  0.00  0.00    +0.000 OA
ENDBRANCH  15  22
ENDBRANCH  14  20
ENDBRANCH   1  14
TORSDOF 6
ENDMDL
MODEL 3
REMARK VINA RESULT:      -6.5      1.525      2.316
REMARK  Name = 
REMARK  7 active torsions:
REMARK  status: ('A' for Active; 'I' for Inactive)
REMARK    1  A    between atoms: C_1  and  O_2
REMARK    2  A    between atoms: O_2  and  C_3
REMARK    3  A    between atoms: C_8  and  C_9
REMARK    4  A    between atoms: C_9  and  N_10
REMARK    5  A    between atoms: C_11  and  C_13
REMARK    6  A    between atoms: CA_18  and  C_19
REMARK    7  A    between atoms: C_19  and  O_20
REMARK                            x       y       z     vdW  Elec       q    Type
REMARK                         _______ _______ _______ _____ _____    ______ ____
ROOT
ATOM      1  N   UNL     1       5.252   3.791  18.432  0.00  0.00    +0.000 N 
ATOM      2  C   UNL     1       4.912   4.749  17.495  0.00  0.00    +0.000 C 
ATOM      3  O   UNL     1       3.972   5.522  17.647  0.00  0.00    +0.000 OA
ATOM      4  H   UNL     1       6.128   3.296  18.286  0.00  0.00    +0.000 HD
ENDROOT
BRANCH   2   5
ATOM      5  C   UNL     1       5.780   4.781  16.264  0.00  0.00    +0.000 A 
ATOM      6  N   UNL     1       5.367   3.961  15.244  0.00  0.00    +0.000 NA
ATOM      7  C   UNL     1       6.124   3.998  14.123  0.00  0.00    +0.000 A 
ATOM      8  C   UNL     1       7.233   4.812  13.999  0.00  0.00    +0.000 A 
ATOM      9  N   UNL     1       7.644   5.624  14.996  0.00  0.00    +0.000 NA
ATOM     10  CA  UNL     1       6.911   5.600  16.153  0.00  0.00    +0.000 A 
BRANCH  10  11
ATOM     11  C   UNL     1       7.392   6.513  17.249  0.00  0.00    +0.000 C 
BRANCH  11  12
ATOM     12  O   UNL     1       7.785   5.791  18.413  0.00  0.00    +0.000 OA
ATOM     13  H   UNL     1       6.973   5.329  18.714  0.00  0.00    +0.000 HD
ENDBRANCH  11  12
ENDBRANCH  10  11
ENDBRANCH   2   5
BRANCH   1  14
ATOM     14  C   UNL     1       4.599   3.716  19.725  0.00  0.00    +0.000 C 
BRANCH  14  20
ATOM     15  C   UNL     1       2.101   3.955  20.234  0.00  0.00    +0.000 A 
ATOM     16  C   UNL     1       0.777   3.552  20.008  0.00  0.00    +0.000 A 
ATOM     17  C   UNL     1       0.499   2.430  19.228  0.00  0.00    +0.000 A 
ATOM     18  C   UNL     1       1.542   1.712  18.650  0.00  0.00    +0.000 A 
ATOM     19  C   UNL     1       2.860   2.132  18.837  0.00  0.00    +0.000 A 
ATOM     20  C   UNL     1       3.161   3.260  19.623  0.00  0.00    +0.000 A 
BRANCH  15  22
ATOM     21  C   UNL     1       1.933   6.292  20.502  0.00  0.00    +0.000 C 
ATOM     22  O   UNL     1       2.419   5.047  21.001  0.00  0.00    +0.000 OA
ENDBRANCH  15  22
ENDBRANCH  14  20
ENDBRANCH   1  14
TORSDOF 6
ENDMDL
MODEL 4
REMARK VINA RESULT:      -6.4      1.490      1.556
REMARK  Name = 
REMARK  7 active torsions:
REMARK  status: ('A' for Active; 'I' for Inactive)
REMARK    1  A    between atoms: C_1  and  O_2
REMARK    2  A    between atoms: O_2  and  C_3
REMARK    3  A    between atoms: C_8  and  C_9
REMARK    4  A    between atoms: C_9  and  N_10
REMARK    5  A    between atoms: C_11  and  C_13
REMARK    6  A    between atoms: CA_18  and  C_19
REMARK    7  A    between atoms: C_19  and  O_20
REMARK                            x       y       z     vdW  Elec       q    Type
REMARK                         _______ _______ _______ _____ _____    ______ ____
ROOT
ATOM      1  N   UNL     1       5.106   4.770  18.596  0.00  0.00    +0.000 N 
ATOM      2  C   UNL     1       4.757   5.450  17.444  0.00  0.00    +0.000 C 
ATOM      3  O   UNL     1       3.792   6.204  17.385  0.00  0.00    +0.000 OA
ATOM      4  H   UNL     1       5.999   4.284  18.590  0.00  0.00    +0.000 HD
ENDROOT
BRANCH   2   5
ATOM      5  C   UNL     1       5.650   5.203  16.255  0.00  0.00    +0.000 A 
ATOM      6  N   UNL     1       5.147   4.325  15.329  0.00  0.00    +0.000 NA
ATOM      7  C   UNL     1       5.927   4.111  14.243  0.00  0.00    +0.000 A 
ATOM      8  C   UNL     1       7.145   4.740  14.066  0.00  0.00    +0.000 A 
ATOM      9  N   UNL     1       7.644   5.608  14.971  0.00  0.00    +0.000 NA
ATOM     10  CA  UNL     1       6.888   5.835  16.091  0.00  0.00    +0.000 A 
BRANCH  10  11
ATOM     11  C   UNL     1       7.470   6.805  17.085  0.00  0.00    +0.000 C 
BRANCH  11  12
ATOM     12  O   UNL     1       7.837   6.166  18.304  0.00  0.00    +0.000 OA
ATOM     13  H   UNL     1       7.495   5.248  18.226  0.00  0.00    +0.000 HD
ENDBRANCH  11  12
ENDBRANCH  10  11
ENDBRANCH   2   5
BRANCH   1  14
ATOM     14  C   UNL     1       4.428   4.998  19.858  0.00  0.00    +0.000 C 
BRANCH  14  20
ATOM     15  C   UNL     1       2.945   2.916  19.707  0.00  0.00    +0.000 A 
ATOM     16  C   UNL     1       1.700   2.302  19.905  0.00  0.00    +0.000 A 
ATOM     17  C   UNL     1       0.585   3.056  20.272  0.00  0.00    +0.000 A 
ATOM     18  C   UNL     1       0.710   4.429  20.462  0.00  0.00    +0.000 A 
ATOM     19  C   UNL     1       1.955   5.041  20.307  0.00  0.00    +0.000 A 
ATOM     20  C   UNL     1       3.091   4.297  19.934  0.00  0.00    +0.000 A 
BRANCH  15  22
ATOM     21  C   UNL     1       3.883   1.341  18.224  0.00  0.00    +0.000 C 
ATOM     22  O   UNL     1       4.064   2.214  19.338  0.00  0.00    +0.000 OA
ENDBRANCH  15  22
ENDBRANCH  14  20
ENDBRANCH   1  14
TORSDOF 6
ENDMDL
MODEL 5
REMARK VINA RESULT:      -6.4      1.452      2.341
REMARK  Name = 
REMARK  7 active torsions:
REMARK  status: ('A' for Active; 'I' for Inactive)
REMARK    1  A    between atoms: C_1  and  O_2
REMARK    2  A    between atoms: O_2  and  C_3
REMARK    3  A    between atoms: C_8  and  C_9
REMARK    4  A    between atoms: C_9  and  N_10
REMARK    5  A    between atoms: C_11  and  C_13
REMARK    6  A    between atoms: CA_18  and  C_19
REMARK    7  A    between atoms: C_19  and  O_20
REMARK                            x       y       z     vdW  Elec       q    Type
REMARK                         _______ _______ _______ _____ _____    ______ ____
ROOT
ATOM      1  N   UNL     1       3.088   4.612  17.081  0.00  0.00    +0.000 N 
ATOM      2  C   UNL     1       4.084   3.662  16.947  0.00  0.00    +0.000 C 
ATOM      3  O   UNL     1       3.983   2.528  17.402  0.00  0.00    +0.000 OA
ATOM      4  H   UNL     1       3.199   5.472  16.550  0.00  0.00    +0.000 HD
ENDROOT
BRANCH   2   5
ATOM      5  C   UNL     1       5.309   4.117  16.199  0.00  0.00    +0.000 A 
ATOM      6  N   UNL     1       5.238   3.977  14.836  0.00  0.00    +0.000 NA
ATOM      7  C   UNL     1       6.324   4.405  14.148  0.00  0.00    +0.000 A 
ATOM      8  C   UNL     1       7.428   4.956  14.767  0.00  0.00    +0.000 A 
ATOM      9  N   UNL     1       7.504   5.100  16.107  0.00  0.00    +0.000 NA
ATOM     10  CA  UNL     1       6.430   4.663  16.836  0.00  0.00    +0.000 A 
BRANCH  10  11
ATOM     11  C   UNL     1       6.542   4.832  18.329  0.00  0.00    +0.000 C 
BRANCH  11  12
ATOM     12  O   UNL     1       7.890   4.743  18.778  0.00  0.00    +0.000 OA
ATOM     13  H   UNL     1       8.030   5.543  19.331  0.00  0.00    +0.000 HD
ENDBRANCH  11  12
ENDBRANCH  10  11
ENDBRANCH   2   5
BRANCH   1  14
ATOM     14  C   UNL     1       1.796   4.295  17.660  0.00  0.00    +0.000 C 
BRANCH  14  20
ATOM     15  C   UNL     1       2.471   4.807  20.077  0.00  0.00    +0.000 A 
ATOM     16  C   UNL     1       2.423   4.481  21.440  0.00  0.00    +0.000 A 
ATOM     17  C   UNL     1       1.852   3.282  21.866  0.00  0.00    +0.000 A 
ATOM     18  C   UNL     1       1.306   2.405  20.933  0.00  0.00    +0.000 A 
ATOM     19  C   UNL     1       1.313   2.741  19.578  0.00  0.00    +0.000 A 
ATOM     20  C   UNL     1       1.888   3.946  19.128  0.00  0.00    +0.000 A 
BRANCH  15  22
ATOM     21  C   UNL     1       2.248   7.142  19.840  0.00  0.00    +0.000 C 
ATOM     22  O   UNL     1       3.031   5.970  19.615  0.00  0.00    +0.000 OA
ENDBRANCH  15  22
ENDBRANCH  14  20
ENDBRANCH   1  14
TORSDOF 6
ENDMDL
MODEL 6
REMARK VINA RESULT:      -6.4      1.331      1.439
REMARK  Name = 
REMARK  7 active torsions:
REMARK  status: ('A' for Active; 'I' for Inactive)
REMARK    1  A    between atoms: C_1  and  O_2
REMARK    2  A    between atoms: O_2  and  C_3
REMARK    3  A    between atoms: C_8  and  C_9
REMARK    4  A    between atoms: C_9  and  N_10
REMARK    5  A    between atoms: C_11  and  C_13
REMARK    6  A    between atoms: CA_18  and  C_19
REMARK    7  A    between atoms: C_19  and  O_20
REMARK                            x       y       z     vdW  Elec       q    Type
REMARK                         _______ _______ _______ _____ _____    ______ ____
ROOT
ATOM      1  N   UNL     1       3.454   5.302  17.602  0.00  0.00    +0.000 N 
ATOM      2  C   UNL     1       4.401   6.219  17.182  0.00  0.00    +0.000 C 
ATOM      3  O   UNL     1       4.334   7.412  17.457  0.00  0.00    +0.000 OA
ATOM      4  H   UNL     1       3.668   4.320  17.450  0.00  0.00    +0.000 HD
ENDROOT
BRANCH   2   5
ATOM      5  C   UNL     1       5.528   5.650  16.360  0.00  0.00    +0.000 A 
ATOM      6  N   UNL     1       5.377   5.785  15.003  0.00  0.00    +0.000 NA
ATOM      7  C   UNL     1       6.395   5.300  14.253  0.00  0.00    +0.000 A 
ATOM      8  C   UNL     1       7.518   4.718  14.808  0.00  0.00    +0.000 A 
ATOM      9  N   UNL     1       7.675   4.586  16.142  0.00  0.00    +0.000 NA
ATOM     10  CA  UNL     1       6.657   5.051  16.932  0.00  0.00    +0.000 A 
BRANCH  10  11
ATOM     11  C   UNL     1       6.856   4.888  18.415  0.00  0.00    +0.000 C 
BRANCH  11  12
ATOM     12  O   UNL     1       6.026   3.866  18.958  0.00  0.00    +0.000 OA
ATOM     13  H   UNL     1       5.233   3.844  18.379  0.00  0.00    +0.000 HD
ENDBRANCH  11  12
ENDBRANCH  10  11
ENDBRANCH   2   5
BRANCH   1  14
ATOM     14  C   UNL     1       2.380   5.665  18.506  0.00  0.00    +0.000 C 
BRANCH  14  20
ATOM     15  C   UNL     1       1.734   3.270  19.140  0.00  0.00    +0.000 A 
ATOM     16  C   UNL     1       1.580   2.278  20.119  0.00  0.00    +0.000 A 
ATOM     17  C   UNL     1       1.712   2.588  21.473  0.00  0.00    +0.000 A 
ATOM     18  C   UNL     1       2.017   3.890  21.858  0.00  0.00    +0.000 A 
ATOM     19  C   UNL     1       2.211   4.874  20.887  0.00  0.00    +0.000 A 
ATOM     20  C   UNL     1       2.080   4.581  19.516  0.00  0.00    +0.000 A 
BRANCH  15  22
ATOM     21  C   UNL     1       2.583   2.120  17.265  0.00  0.00    +0.000 C 
ATOM     22  O   UNL     1       1.604   3.010  17.799  0.00  0.00    +0.000 OA
ENDBRANCH  15  22
ENDBRANCH  14  20
ENDBRANCH   1  14
TORSDOF 6
ENDMDL
MODEL 7
REMARK VINA RESULT:      -6.3      2.163      2.913
REMARK  Name = 
REMARK  7 active torsions:
REMARK  status: ('A' for Active; 'I' for Inactive)
REMARK    1  A    between atoms: C_1  and  O_2
REMARK    2  A    between atoms: O_2  and  C_3
REMARK    3  A    between atoms: C_8  and  C_9
REMARK    4  A    between atoms: C_9  and  N_10
REMARK    5  A    between atoms: C_11  and  C_13
REMARK    6  A    between atoms: CA_18  and  C_19
REMARK    7  A    between atoms: C_19  and  O_20
REMARK                            x       y       z     vdW  Elec       q    Type
REMARK                         _______ _______ _______ _____ _____    ______ ____
ROOT
ATOM      1  N   UNL     1       5.555   3.947  19.085  0.00  0.00    +0.000 N 
ATOM      2  C   UNL     1       5.945   4.412  17.842  0.00  0.00    +0.000 C 
ATOM      3  O   UNL     1       5.754   3.780  16.808  0.00  0.00    +0.000 OA
ATOM      4  H   UNL     1       5.624   4.599  19.861  0.00  0.00    +0.000 HD
ENDROOT
BRANCH   2   5
ATOM      5  C   UNL     1       6.624   5.756  17.842  0.00  0.00    +0.000 A 
ATOM      6  N   UNL     1       7.644   5.887  18.751  0.00  0.00    +0.000 NA
ATOM      7  C   UNL     1       8.280   7.082  18.745  0.00  0.00    +0.000 A 
ATOM      8  C   UNL     1       7.941   8.103  17.878  0.00  0.00    +0.000 A 
ATOM      9  N   UNL     1       6.941   7.980  16.979  0.00  0.00    +0.000 NA
ATOM     10  CA  UNL     1       6.264   6.789  16.968  0.00  0.00    +0.000 A 
BRANCH  10  11
ATOM     11  C   UNL     1       5.153   6.680  15.958  0.00  0.00    +0.000 C 
BRANCH  11  12
ATOM     12  O   UNL     1       5.561   5.978  14.788  0.00  0.00    +0.000 OA
ATOM     13  H   UNL     1       4.773   5.977  14.201  0.00  0.00    +0.000 HD
ENDBRANCH  11  12
ENDBRANCH  10  11
ENDBRANCH   2   5
BRANCH   1  14
ATOM     14  C   UNL     1       4.775   2.734  19.242  0.00  0.00    +0.000 C 
BRANCH  14  20
ATOM     15  C   UNL     1       2.420   3.738  19.261  0.00  0.00    +0.000 A 
ATOM     16  C   UNL     1       1.154   3.841  19.857  0.00  0.00    +0.000 A 
ATOM     17  C   UNL     1       0.901   3.252  21.096  0.00  0.00    +0.000 A 
ATOM     18  C   UNL     1       1.907   2.539  21.742  0.00  0.00    +0.000 A 
ATOM     19  C   UNL     1       3.156   2.398  21.136  0.00  0.00    +0.000 A 
ATOM     20  C   UNL     1       3.432   2.987  19.887  0.00  0.00    +0.000 A 
BRANCH  15  22
ATOM     21  C   UNL     1       2.377   5.690  17.940  0.00  0.00    +0.000 C 
ATOM     22  O   UNL     1       2.713   4.308  18.049  0.00  0.00    +0.000 OA
ENDBRANCH  15  22
ENDBRANCH  14  20
ENDBRANCH   1  14
TORSDOF 6
ENDMDL
MODEL 8
REMARK VINA RESULT:      -6.3      1.485      2.581
REMARK  Name = 
REMARK  7 active torsions:
REMARK  status: ('A' for Active; 'I' for Inactive)
REMARK    1  A    between atoms: C_1  and  O_2
REMARK    2  A    between atoms: O_2  and  C_3
REMARK    3  A    between atoms: C_8  and  C_9
REMARK    4  A    between atoms: C_9  and  N_10
REMARK    5  A    between atoms: C_11  and  C_13
REMARK    6  A    between atoms: CA_18  and  C_19
REMARK    7  A    between atoms: C_19  and  O_20
REMARK                            x       y       z     vdW  Elec       q    Type
REMARK                         _______ _______ _______ _____ _____    ______ ____
ROOT
ATOM      1  N   UNL     1       3.606   4.169  16.830  0.00  0.00    +0.000 N 
ATOM      2  C   UNL     1       4.961   4.070  17.089  0.00  0.00    +0.000 C 
ATOM      3  O   UNL     1       5.405   3.759  18.189  0.00  0.00    +0.000 OA
ATOM      4  H   UNL     1       3.332   4.290  15.859  0.00  0.00    +0.000 HD
ENDROOT
BRANCH   2   5
ATOM      5  C   UNL     1       5.863   4.373  15.921  0.00  0.00    +0.000 A 
ATOM      6  N   UNL     1       5.583   3.668  14.778  0.00  0.00    +0.000 NA
ATOM      7  C   UNL     1       6.370   3.948  13.712  0.00  0.00    +0.000 A 
ATOM      8  C   UNL     1       7.382   4.886  13.760  0.00  0.00    +0.000 A 
ATOM      9  N   UNL     1       7.661   5.587  14.880  0.00  0.00    +0.000 NA
ATOM     10  CA  UNL     1       6.895   5.317  15.983  0.00  0.00    +0.000 A 
BRANCH  10  11
ATOM     11  C   UNL     1       7.229   6.109  17.219  0.00  0.00    +0.000 C 
BRANCH  11  12
ATOM     12  O   UNL     1       7.053   7.509  17.021  0.00  0.00    +0.000 OA
ATOM     13  H   UNL     1       7.645   7.937  17.678  0.00  0.00    +0.000 HD
ENDBRANCH  11  12
ENDBRANCH  10  11
ENDBRANCH   2   5
BRANCH   1  14
ATOM     14  C   UNL     1       2.607   3.785  17.809  0.00  0.00    +0.000 C 
BRANCH  14  20
ATOM     15  C   UNL     1       1.690   4.693  20.021  0.00  0.00    +0.000 A 
ATOM     16  C   UNL     1       1.491   5.771  20.895  0.00  0.00    +0.000 A 
ATOM     17  C   UNL     1       1.790   7.074  20.497  0.00  0.00    +0.000 A 
ATOM     18  C   UNL     1       2.311   7.309  19.228  0.00  0.00    +0.000 A 
ATOM     19  C   UNL     1       2.551   6.236  18.368  0.00  0.00    +0.000 A 
ATOM     20  C   UNL     1       2.252   4.914  18.750  0.00  0.00    +0.000 A 
BRANCH  15  22
ATOM     21  C   UNL     1       1.842   3.014  21.670  0.00  0.00    +0.000 C 
ATOM     22  O   UNL     1       1.401   3.398  20.368  0.00  0.00    +0.000 OA
ENDBRANCH  15  22
ENDBRANCH  14  20
ENDBRANCH   1  14
TORSDOF 6
ENDMDL
MODEL 9
REMARK VINA RESULT:      -6.3      1.491      1.621
REMARK  Name = 
REMARK  7 active torsions:
REMARK  status: ('A' for Active; 'I' for Inactive)
REMARK    1  A    between atoms: C_1  and  O_2
REMARK    2  A    between atoms: O_2  and  C_3
REMARK    3  A    between atoms: C_8  and  C_9
REMARK    4  A    between atoms: C_9  and  N_10
REMARK    5  A    between atoms: C_11  and  C_13
REMARK    6  A    between atoms: CA_18  and  C_19
REMARK    7  A    between atoms: C_19  and  O_20
REMARK                            x       y       z     vdW  Elec       q    Type
REMARK                         _______ _______ _______ _____ _____    ______ ____
ROOT
ATOM      1  N   UNL     1       5.234   3.024  18.787  0.00  0.00    +0.000 N 
ATOM      2  C   UNL     1       5.543   4.355  18.576  0.00  0.00    +0.000 C 
ATOM      3  O   UNL     1       5.313   5.229  19.405  0.00  0.00    +0.000 OA
ATOM      4  H   UNL     1       5.592   2.357  18.108  0.00  0.00    +0.000 HD
ENDROOT
BRANCH   2   5
ATOM      5  C   UNL     1       6.187   4.664  17.249  0.00  0.00    +0.000 A 
ATOM      6  N   UNL     1       5.833   3.821  16.226  0.00  0.00    +0.000 NA
ATOM      7  C   UNL     1       6.385   4.102  15.022  0.00  0.00    +0.000 A 
ATOM      8  C   UNL     1       7.240   5.169  14.824  0.00  0.00    +0.000 A 
ATOM      9  N   UNL     1       7.589   6.005  15.825  0.00  0.00    +0.000 NA
ATOM     10  CA  UNL     1       7.062   5.741  17.062  0.00  0.00    +0.000 A 
BRANCH  10  11
ATOM     11  C   UNL     1       7.471   6.686  18.160  0.00  0.00    +0.000 C 
BRANCH  11  12
ATOM     12  O   UNL     1       8.229   6.033  19.174  0.00  0.00    +0.000 OA
ATOM     13  H   UNL     1       8.821   6.727  19.538  0.00  0.00    +0.000 HD
ENDBRANCH  11  12
ENDBRANCH  10  11
ENDBRANCH   2   5
BRANCH   1  14
ATOM     14  C   UNL     1       4.731   2.544  20.060  0.00  0.00    +0.000 C 
BRANCH  14  20
ATOM     15  C   UNL     1       2.353   2.614  19.114  0.00  0.00    +0.000 A 
ATOM     16  C   UNL     1       0.969   2.683  19.328  0.00  0.00    +0.000 A 
ATOM     17  C   UNL     1       0.457   2.925  20.603  0.00  0.00    +0.000 A 
ATOM     18  C   UNL     1       1.325   3.082  21.680  0.00  0.00    +0.000 A 
ATOM     19  C   UNL     1       2.702   2.973  21.481  0.00  0.00    +0.000 A 
ATOM     20  C   UNL     1       3.238   2.732  20.202  0.00  0.00    +0.000 A 
BRANCH  15  22
ATOM     21  C   UNL     1       2.450   3.272  16.852  0.00  0.00    +0.000 C 
ATOM     22  O   UNL     1       2.898   2.386  17.877  0.00  0.00    +0.000 OA
ENDBRANCH  15  22
ENDBRANCH  14  20
ENDBRANCH   1  14
TORSDOF 6
ENDMDL
