MODEL 1
REMARK VINA RESULT:      -7.1      0.000      0.000
REMARK  Name = 
REMARK  6 active torsions:
REMARK  status: ('A' for Active; 'I' for Inactive)
REMARK    1  A    between atoms: C_7  and  S_8
REMARK    2  A    between atoms: S_8  and  C_9
REMARK    3  A    between atoms: C_9  and  C_10
REMARK    4  A    between atoms: C_10  and  C_11
REMARK    5  A    between atoms: C_11  and  C_12
REMARK    6  A    between atoms: C_12  and  N_13
REMARK                            x       y       z     vdW  Elec       q    Type
REMARK                         _______ _______ _______ _____ _____    ______ ____
ROOT
ATOM      1  S   UNL     1       7.433   5.240  17.914  0.00  0.00    +0.000 S 
ENDROOT
BRANCH   1   8
ATOM      2 CL   UNL     1       4.884   2.527  11.055  0.00  0.00    +0.000 Cl
ATOM      3  C   UNL     1       5.778   3.392  12.248  0.00  0.00    +0.000 A 
ATOM      4  C   UNL     1       6.809   4.249  11.843  0.00  0.00    +0.000 A 
ATOM      5  C   UNL     1       7.563   4.969  12.780  0.00  0.00    +0.000 A 
ATOM      6  C   UNL     1       7.214   4.772  14.109  0.00  0.00    +0.000 A 
ATOM      7  O   UNL     1       7.780   5.343  15.209  0.00  0.00    +0.000 OA
ATOM      8  C   UNL     1       7.076   4.815  16.263  0.00  0.00    +0.000 A 
ATOM      9  N   UNL     1       6.123   3.971  15.911  0.00  0.00    +0.000 NA
ATOM     10  C   UNL     1       6.201   3.934  14.543  0.00  0.00    +0.000 A 
ATOM     11  C   UNL     1       5.454   3.218  13.600  0.00  0.00    +0.000 A 
ENDBRANCH   1   8
BRANCH   1  12
ATOM     12  C   UNL     1       6.130   6.469  18.225  0.00  0.00    +0.000 C 
BRANCH  12  13
ATOM     13  C   UNL     1       4.770   5.784  18.362  0.00  0.00    +0.000 C 
BRANCH  13  14
ATOM     14  C   UNL     1       3.653   6.712  17.875  0.00  0.00    +0.000 C 
BRANCH  14  15
ATOM     15  C   UNL     1       2.251   6.286  18.341  0.00  0.00    +0.000 C 
BRANCH  15  16
ATOM     16  N   UNL     1       2.162   4.996  19.055  0.00  0.00    +0.000 NA
ATOM     17  C   UNL     1       1.599   5.113  20.402  0.00  0.00    +0.000 C 
ATOM     18  C   UNL     1       2.174   4.045  21.338  0.00  0.00    +0.000 C 
ATOM     19  C   UNL     1       1.528   2.669  21.231  0.00  0.00    +0.000 C 
ATOM     20  C   UNL     1       1.591   2.047  19.842  0.00  0.00    +0.000 C 
ATOM     21  C   UNL     1       0.764   2.821  18.825  0.00  0.00    +0.000 C 
ATOM     22  C   UNL     1       1.485   4.015  18.190  0.00  0.00    +0.000 C 
ENDBRANCH  15  16
ENDBRANCH  14  15
ENDBRANCH  13  14
ENDBRANCH  12  13
ENDBRANCH   1  12
TORSDOF 6
ENDMDL
MODEL 2
REMARK VINA RESULT:      -7.0      0.908      1.599
REMARK  Name = 
REMARK  6 active torsions:
REMARK  status: ('A' for Active; 'I' for Inactive)
REMARK    1  A    between atoms: C_7  and  S_8
REMARK    2  A    between atoms: S_8  and  C_9
REMARK    3  A    between atoms: C_9  and  C_10
REMARK    4  A    between atoms: C_10  and  C_11
REMARK    5  A    between atoms: C_11  and  C_12
REMARK    6  A    between atoms: C_12  and  N_13
REMARK                            x       y       z     vdW  Elec       q    Type
REMARK                         _______ _______ _______ _____ _____    ______ ____
ROOT
ATOM      1  S   UNL     1       7.194   6.445  17.445  0.00  0.00    +0.000 S 
ENDROOT
BRANCH   1   8
ATOM      2 CL   UNL     1       4.796   2.388  11.226  0.00  0.00    +0.000 Cl
ATOM      3  C   UNL     1       5.734   3.385  12.272  0.00  0.00    +0.000 A 
ATOM      4  C   UNL     1       6.957   3.895  11.818  0.00  0.00    +0.000 A 
ATOM      5  C   UNL     1       7.753   4.708  12.638  0.00  0.00    +0.000 A 
ATOM      6  C   UNL     1       7.245   4.961  13.905  0.00  0.00    +0.000 A 
ATOM      7  O   UNL     1       7.811   5.711  14.890  0.00  0.00    +0.000 OA
ATOM      8  C   UNL     1       6.915   5.638  15.928  0.00  0.00    +0.000 A 
ATOM      9  N   UNL     1       5.844   4.910  15.669  0.00  0.00    +0.000 NA
ATOM     10  C   UNL     1       6.042   4.473  14.384  0.00  0.00    +0.000 A 
ATOM     11  C   UNL     1       5.254   3.662  13.559  0.00  0.00    +0.000 A 
ENDBRANCH   1   8
BRANCH   1  12
ATOM     12  C   UNL     1       7.028   5.048  18.596  0.00  0.00    +0.000 C 
BRANCH  12  13
ATOM     13  C   UNL     1       5.742   5.178  19.414  0.00  0.00    +0.000 C 
BRANCH  13  14
ATOM     14  C   UNL     1       4.729   6.061  18.679  0.00  0.00    +0.000 C 
BRANCH  14  15
ATOM     15  C   UNL     1       3.427   6.288  19.465  0.00  0.00    +0.000 C 
BRANCH  15  16
ATOM     16  N   UNL     1       2.444   5.186  19.438  0.00  0.00    +0.000 NA
ATOM     17  C   UNL     1       2.704   4.199  18.388  0.00  0.00    +0.000 C 
ATOM     18  C   UNL     1       1.402   3.563  17.890  0.00  0.00    +0.000 C 
ATOM     19  C   UNL     1       0.854   2.437  18.757  0.00  0.00    +0.000 C 
ATOM     20  C   UNL     1       0.570   2.831  20.201  0.00  0.00    +0.000 C 
ATOM     21  C   UNL     1       1.840   3.177  20.966  0.00  0.00    +0.000 C 
ATOM     22  C   UNL     1       2.318   4.623  20.793  0.00  0.00    +0.000 C 
ENDBRANCH  15  16
ENDBRANCH  14  15
ENDBRANCH  13  14
ENDBRANCH  12  13
ENDBRANCH   1  12
TORSDOF 6
ENDMDL
MODEL 3
REMARK VINA RESULT:      -7.0      5.774      8.754
REMARK  Name = 
REMARK  6 active torsions:
REMARK  status: ('A' for Active; 'I' for Inactive)
REMARK    1  A    between atoms: C_7  and  S_8
REMARK    2  A    between atoms: S_8  and  C_9
REMARK    3  A    between atoms: C_9  and  C_10
REMARK    4  A    between atoms: C_10  and  C_11
REMARK    5  A    between atoms: C_11  and  C_12
REMARK    6  A    between atoms: C_12  and  N_13
REMARK                            x       y       z     vdW  Elec       q    Type
REMARK                         _______ _______ _______ _____ _____    ______ ____
ROOT
ATOM      1  S   UNL     1       1.770   9.296  17.741  0.00  0.00    +0.000 S 
ENDROOT
BRANCH   1   8
ATOM      2 CL   UNL     1      -2.416  12.541  23.471  0.00  0.00    +0.000 Cl
ATOM      3  C   UNL     1      -1.405  11.462  22.586  0.00  0.00    +0.000 A 
ATOM      4  C   UNL     1      -0.906  10.316  23.220  0.00  0.00    +0.000 A 
ATOM      5  C   UNL     1      -0.079   9.413  22.538  0.00  0.00    +0.000 A 
ATOM      6  C   UNL     1       0.200   9.736  21.217  0.00  0.00    +0.000 A 
ATOM      7  O   UNL     1       0.971   9.038  20.337  0.00  0.00    +0.000 OA
ATOM      8  C   UNL     1       0.923   9.780  19.183  0.00  0.00    +0.000 A 
ATOM      9  N   UNL     1       0.189  10.874  19.272  0.00  0.00    +0.000 NA
ATOM     10  C   UNL     1      -0.277  10.859  20.561  0.00  0.00    +0.000 A 
ATOM     11  C   UNL     1      -1.102  11.755  21.250  0.00  0.00    +0.000 A 
ENDBRANCH   1   8
BRANCH   1  12
ATOM     12  C   UNL     1       2.614   7.802  18.340  0.00  0.00    +0.000 C 
BRANCH  12  13
ATOM     13  C   UNL     1       3.778   7.438  17.418  0.00  0.00    +0.000 C 
BRANCH  13  14
ATOM     14  C   UNL     1       4.176   5.972  17.614  0.00  0.00    +0.000 C 
BRANCH  14  15
ATOM     15  C   UNL     1       4.302   5.561  19.091  0.00  0.00    +0.000 C 
BRANCH  15  16
ATOM     16  N   UNL     1       3.418   4.469  19.545  0.00  0.00    +0.000 NA
ATOM     17  C   UNL     1       2.519   4.862  20.633  0.00  0.00    +0.000 C 
ATOM     18  C   UNL     1       2.201   3.673  21.546  0.00  0.00    +0.000 C 
ATOM     19  C   UNL     1       1.112   2.735  21.038  0.00  0.00    +0.000 C 
ATOM     20  C   UNL     1       1.395   2.117  19.675  0.00  0.00    +0.000 C 
ATOM     21  C   UNL     1       1.407   3.154  18.562  0.00  0.00    +0.000 C 
ATOM     22  C   UNL     1       2.745   3.878  18.376  0.00  0.00    +0.000 C 
ENDBRANCH  15  16
ENDBRANCH  14  15
ENDBRANCH  13  14
ENDBRANCH  12  13
ENDBRANCH   1  12
TORSDOF 6
ENDMDL
MODEL 4
REMARK VINA RESULT:      -7.0      4.108      6.548
REMARK  Name = 
REMARK  6 active torsions:
REMARK  status: ('A' for Active; 'I' for Inactive)
REMARK    1  A    between atoms: C_7  and  S_8
REMARK    2  A    between atoms: S_8  and  C_9
REMARK    3  A    between atoms: C_9  and  C_10
REMARK    4  A    between atoms: C_10  and  C_11
REMARK    5  A    between atoms: C_11  and  C_12
REMARK    6  A    between atoms: C_12  and  N_13
REMARK                            x       y       z     vdW  Elec       q    Type
REMARK                         _______ _______ _______ _____ _____    ______ ____
ROOT
ATOM      1  S   UNL     1       4.678   6.709  16.549  0.00  0.00    +0.000 S 
ENDROOT
BRANCH   1   8
ATOM      2 CL   UNL     1      -0.707  10.616  20.627  0.00  0.00    +0.000 Cl
ATOM      3  C   UNL     1       0.467   9.444  20.161  0.00  0.00    +0.000 A 
ATOM      4  C   UNL     1       0.778   8.398  21.039  0.00  0.00    +0.000 A 
ATOM      5  C   UNL     1       1.729   7.426  20.700  0.00  0.00    +0.000 A 
ATOM      6  C   UNL     1       2.324   7.577  19.455  0.00  0.00    +0.000 A 
ATOM      7  O   UNL     1       3.271   6.780  18.886  0.00  0.00    +0.000 OA
ATOM      8  C   UNL     1       3.517   7.365  17.668  0.00  0.00    +0.000 A 
ATOM      9  N   UNL     1       2.803   8.452  17.434  0.00  0.00    +0.000 NA
ATOM     10  C   UNL     1       2.040   8.598  18.564  0.00  0.00    +0.000 A 
ATOM     11  C   UNL     1       1.090   9.565  18.911  0.00  0.00    +0.000 A 
ENDBRANCH   1   8
BRANCH   1  12
ATOM     12  C   UNL     1       6.000   6.219  17.695  0.00  0.00    +0.000 C 
BRANCH  12  13
ATOM     13  C   UNL     1       6.263   4.716  17.599  0.00  0.00    +0.000 C 
BRANCH  13  14
ATOM     14  C   UNL     1       5.183   4.038  16.749  0.00  0.00    +0.000 C 
BRANCH  14  15
ATOM     15  C   UNL     1       4.442   2.909  17.483  0.00  0.00    +0.000 C 
BRANCH  15  16
ATOM     16  N   UNL     1       3.503   3.323  18.545  0.00  0.00    +0.000 NA
ATOM     17  C   UNL     1       2.108   2.987  18.253  0.00  0.00    +0.000 C 
ATOM     18  C   UNL     1       1.150   4.000  18.890  0.00  0.00    +0.000 C 
ATOM     19  C   UNL     1       0.852   3.775  20.367  0.00  0.00    +0.000 C 
ATOM     20  C   UNL     1       2.082   3.780  21.268  0.00  0.00    +0.000 C 
ATOM     21  C   UNL     1       3.006   2.603  20.989  0.00  0.00    +0.000 C 
ATOM     22  C   UNL     1       3.996   2.825  19.841  0.00  0.00    +0.000 C 
ENDBRANCH  15  16
ENDBRANCH  14  15
ENDBRANCH  13  14
ENDBRANCH  12  13
ENDBRANCH   1  12
TORSDOF 6
ENDMDL
MODEL 5
REMARK VINA RESULT:      -7.0      1.183      1.381
REMARK  Name = 
REMARK  6 active torsions:
REMARK  status: ('A' for Active; 'I' for Inactive)
REMARK    1  A    between atoms: C_7  and  S_8
REMARK    2  A    between atoms: S_8  and  C_9
REMARK    3  A    between atoms: C_9  and  C_10
REMARK    4  A    between atoms: C_10  and  C_11
REMARK    5  A    between atoms: C_11  and  C_12
REMARK    6  A    between atoms: C_12  and  N_13
REMARK                            x       y       z     vdW  Elec       q    Type
REMARK                         _______ _______ _______ _____ _____    ______ ____
ROOT
ATOM      1  S   UNL     1       6.735   5.843  17.839  0.00  0.00    +0.000 S 
ENDROOT
BRANCH   1   8
ATOM      2 CL   UNL     1       5.726   2.010  11.118  0.00  0.00    +0.000 Cl
ATOM      3  C   UNL     1       6.270   3.147  12.292  0.00  0.00    +0.000 A 
ATOM      4  C   UNL     1       7.180   4.142  11.912  0.00  0.00    +0.000 A 
ATOM      5  C   UNL     1       7.650   5.085  12.836  0.00  0.00    +0.000 A 
ATOM      6  C   UNL     1       7.154   4.959  14.126  0.00  0.00    +0.000 A 
ATOM      7  O   UNL     1       7.445   5.737  15.206  0.00  0.00    +0.000 OA
ATOM      8  C   UNL     1       6.702   5.192  16.225  0.00  0.00    +0.000 A 
ATOM      9  N   UNL     1       5.975   4.149  15.867  0.00  0.00    +0.000 NA
ATOM     10  C   UNL     1       6.255   3.989  14.535  0.00  0.00    +0.000 A 
ATOM     11  C   UNL     1       5.791   3.051  13.606  0.00  0.00    +0.000 A 
ENDBRANCH   1   8
BRANCH   1  12
ATOM     12  C   UNL     1       5.681   7.308  17.625  0.00  0.00    +0.000 C 
BRANCH  12  13
ATOM     13  C   UNL     1       4.294   6.902  17.125  0.00  0.00    +0.000 C 
BRANCH  13  14
ATOM     14  C   UNL     1       3.206   7.500  18.023  0.00  0.00    +0.000 C 
BRANCH  14  15
ATOM     15  C   UNL     1       2.470   6.453  18.876  0.00  0.00    +0.000 C 
BRANCH  15  16
ATOM     16  N   UNL     1       2.767   5.038  18.578  0.00  0.00    +0.000 NA
ATOM     17  C   UNL     1       3.505   4.360  19.646  0.00  0.00    +0.000 C 
ATOM     18  C   UNL     1       4.411   3.260  19.082  0.00  0.00    +0.000 C 
ATOM     19  C   UNL     1       3.718   1.938  18.777  0.00  0.00    +0.000 C 
ATOM     20  C   UNL     1       2.565   2.042  17.787  0.00  0.00    +0.000 C 
ATOM     21  C   UNL     1       1.397   2.845  18.342  0.00  0.00    +0.000 C 
ATOM     22  C   UNL     1       1.524   4.363  18.167  0.00  0.00    +0.000 C 
ENDBRANCH  15  16
ENDBRANCH  14  15
ENDBRANCH  13  14
ENDBRANCH  12  13
ENDBRANCH   1  12
TORSDOF 6
ENDMDL
MODEL 6
REMARK VINA RESULT:      -6.9      2.649      4.578
REMARK  Name = 
REMARK  6 active torsions:
REMARK  status: ('A' for Active; 'I' for Inactive)
REMARK    1  A    between atoms: C_7  and  S_8
REMARK    2  A    between atoms: S_8  and  C_9
REMARK    3  A    between atoms: C_9  and  C_10
REMARK    4  A    between atoms: C_10  and  C_11
REMARK    5  A    between atoms: C_11  and  C_12
REMARK    6  A    between atoms: C_12  and  N_13
REMARK                            x       y       z     vdW  Elec       q    Type
REMARK                         _______ _______ _______ _____ _____    ______ ____
ROOT
ATOM      1  S   UNL     1       3.297   2.473  20.105  0.00  0.00    +0.000 S 
ENDROOT
BRANCH   1   8
ATOM      2 CL   UNL     1       7.096   5.011  13.779  0.00  0.00    +0.000 Cl
ATOM      3  C   UNL     1       6.618   4.761  15.416  0.00  0.00    +0.000 A 
ATOM      4  C   UNL     1       7.326   5.400  16.441  0.00  0.00    +0.000 A 
ATOM      5  C   UNL     1       6.973   5.222  17.786  0.00  0.00    +0.000 A 
ATOM      6  C   UNL     1       5.892   4.383  18.016  0.00  0.00    +0.000 A 
ATOM      7  O   UNL     1       5.347   4.041  19.216  0.00  0.00    +0.000 OA
ATOM      8  C   UNL     1       4.315   3.195  18.891  0.00  0.00    +0.000 A 
ATOM      9  N   UNL     1       4.173   2.987  17.594  0.00  0.00    +0.000 NA
ATOM     10  C   UNL     1       5.170   3.736  17.026  0.00  0.00    +0.000 A 
ATOM     11  C   UNL     1       5.531   3.920  15.686  0.00  0.00    +0.000 A 
ENDBRANCH   1   8
BRANCH   1  12
ATOM     12  C   UNL     1       1.716   2.405  19.212  0.00  0.00    +0.000 C 
BRANCH  12  13
ATOM     13  C   UNL     1       1.037   3.776  19.219  0.00  0.00    +0.000 C 
BRANCH  13  14
ATOM     14  C   UNL     1       1.136   4.413  20.608  0.00  0.00    +0.000 C 
BRANCH  14  15
ATOM     15  C   UNL     1       2.114   5.599  20.673  0.00  0.00    +0.000 C 
BRANCH  15  16
ATOM     16  N   UNL     1       1.761   6.784  19.865  0.00  0.00    +0.000 NA
ATOM     17  C   UNL     1       1.732   8.028  20.637  0.00  0.00    +0.000 C 
ATOM     18  C   UNL     1       0.711   9.014  20.061  0.00  0.00    +0.000 C 
ATOM     19  C   UNL     1       1.190   9.819  18.859  0.00  0.00    +0.000 C 
ATOM     20  C   UNL     1       1.634   8.976  17.670  0.00  0.00    +0.000 C 
ATOM     21  C   UNL     1       2.884   8.163  17.974  0.00  0.00    +0.000 C 
ATOM     22  C   UNL     1       2.622   6.823  18.670  0.00  0.00    +0.000 C 
ENDBRANCH  15  16
ENDBRANCH  14  15
ENDBRANCH  13  14
ENDBRANCH  12  13
ENDBRANCH   1  12
TORSDOF 6
ENDMDL
MODEL 7
REMARK VINA RESULT:      -6.8      3.669      5.462
REMARK  Name = 
REMARK  6 active torsions:
REMARK  status: ('A' for Active; 'I' for Inactive)
REMARK    1  A    between atoms: C_7  and  S_8
REMARK    2  A    between atoms: S_8  and  C_9
REMARK    3  A    between atoms: C_9  and  C_10
REMARK    4  A    between atoms: C_10  and  C_11
REMARK    5  A    between atoms: C_11  and  C_12
REMARK    6  A    between atoms: C_12  and  N_13
REMARK                            x       y       z     vdW  Elec       q    Type
REMARK                         _______ _______ _______ _____ _____    ______ ____
ROOT
ATOM      1  S   UNL     1       3.680   1.933  19.993  0.00  0.00    +0.000 S 
ENDROOT
BRANCH   1   8
ATOM      2 CL   UNL     1       7.989   7.944  17.506  0.00  0.00    +0.000 Cl
ATOM      3  C   UNL     1       6.757   6.745  17.621  0.00  0.00    +0.000 A 
ATOM      4  C   UNL     1       5.747   6.706  16.651  0.00  0.00    +0.000 A 
ATOM      5  C   UNL     1       4.725   5.749  16.708  0.00  0.00    +0.000 A 
ATOM      6  C   UNL     1       4.791   4.864  17.775  0.00  0.00    +0.000 A 
ATOM      7  O   UNL     1       3.932   3.847  18.064  0.00  0.00    +0.000 OA
ATOM      8  C   UNL     1       4.441   3.289  19.211  0.00  0.00    +0.000 A 
ATOM      9  N   UNL     1       5.542   3.871  19.654  0.00  0.00    +0.000 NA
ATOM     10  C   UNL     1       5.774   4.875  18.750  0.00  0.00    +0.000 A 
ATOM     11  C   UNL     1       6.791   5.834  18.685  0.00  0.00    +0.000 A 
ENDBRANCH   1   8
BRANCH   1  12
ATOM     12  C   UNL     1       1.957   2.507  20.044  0.00  0.00    +0.000 C 
BRANCH  12  13
ATOM     13  C   UNL     1       1.800   3.641  21.059  0.00  0.00    +0.000 C 
BRANCH  13  14
ATOM     14  C   UNL     1       1.484   4.958  20.344  0.00  0.00    +0.000 C 
BRANCH  14  15
ATOM     15  C   UNL     1       2.232   6.169  20.926  0.00  0.00    +0.000 C 
BRANCH  15  16
ATOM     16  N   UNL     1       2.164   7.420  20.143  0.00  0.00    +0.000 NA
ATOM     17  C   UNL     1       1.925   7.201  18.715  0.00  0.00    +0.000 C 
ATOM     18  C   UNL     1       2.574   8.301  17.869  0.00  0.00    +0.000 C 
ATOM     19  C   UNL     1       1.777   9.596  17.763  0.00  0.00    +0.000 C 
ATOM     20  C   UNL     1       1.469  10.260  19.099  0.00  0.00    +0.000 C 
ATOM     21  C   UNL     1       0.527   9.425  19.955  0.00  0.00    +0.000 C 
ATOM     22  C   UNL     1       1.214   8.340  20.791  0.00  0.00    +0.000 C 
ENDBRANCH  15  16
ENDBRANCH  14  15
ENDBRANCH  13  14
ENDBRANCH  12  13
ENDBRANCH   1  12
TORSDOF 6
ENDMDL
MODEL 8
REMARK VINA RESULT:      -6.7      4.488      6.549
REMARK  Name = 
REMARK  6 active torsions:
REMARK  status: ('A' for Active; 'I' for Inactive)
REMARK    1  A    between atoms: C_7  and  S_8
REMARK    2  A    between atoms: S_8  and  C_9
REMARK    3  A    between atoms: C_9  and  C_10
REMARK    4  A    between atoms: C_10  and  C_11
REMARK    5  A    between atoms: C_11  and  C_12
REMARK    6  A    between atoms: C_12  and  N_13
REMARK                            x       y       z     vdW  Elec       q    Type
REMARK                         _______ _______ _______ _____ _____    ______ ____
ROOT
ATOM      1  S   UNL     1       4.600   6.678  16.602  0.00  0.00    +0.000 S 
ENDROOT
BRANCH   1   8
ATOM      2 CL   UNL     1      -0.322   8.925  22.224  0.00  0.00    +0.000 Cl
ATOM      3  C   UNL     1       0.551   8.853  20.741  0.00  0.00    +0.000 A 
ATOM      4  C   UNL     1       0.297   9.809  19.749  0.00  0.00    +0.000 A 
ATOM      5  C   UNL     1       0.983   9.785  18.527  0.00  0.00    +0.000 A 
ATOM      6  C   UNL     1       1.911   8.764  18.380  0.00  0.00    +0.000 A 
ATOM      7  O   UNL     1       2.706   8.514  17.303  0.00  0.00    +0.000 OA
ATOM      8  C   UNL     1       3.428   7.403  17.665  0.00  0.00    +0.000 A 
ATOM      9  N   UNL     1       3.150   6.947  18.874  0.00  0.00    +0.000 NA
ATOM     10  C   UNL     1       2.186   7.804  19.339  0.00  0.00    +0.000 A 
ATOM     11  C   UNL     1       1.497   7.835  20.557  0.00  0.00    +0.000 A 
ENDBRANCH   1   8
BRANCH   1  12
ATOM     12  C   UNL     1       6.118   6.918  17.573  0.00  0.00    +0.000 C 
BRANCH  12  13
ATOM     13  C   UNL     1       6.745   5.570  17.929  0.00  0.00    +0.000 C 
BRANCH  13  14
ATOM     14  C   UNL     1       5.965   4.901  19.065  0.00  0.00    +0.000 C 
BRANCH  14  15
ATOM     15  C   UNL     1       5.156   3.673  18.615  0.00  0.00    +0.000 C 
BRANCH  15  16
ATOM     16  N   UNL     1       3.740   3.632  19.035  0.00  0.00    +0.000 NA
ATOM     17  C   UNL     1       2.931   2.685  18.264  0.00  0.00    +0.000 C 
ATOM     18  C   UNL     1       1.477   3.156  18.158  0.00  0.00    +0.000 C 
ATOM     19  C   UNL     1       0.604   2.853  19.370  0.00  0.00    +0.000 C 
ATOM     20  C   UNL     1       1.113   3.443  20.679  0.00  0.00    +0.000 C 
ATOM     21  C   UNL     1       2.428   2.818  21.122  0.00  0.00    +0.000 C 
ATOM     22  C   UNL     1       3.678   3.445  20.495  0.00  0.00    +0.000 C 
ENDBRANCH  15  16
ENDBRANCH  14  15
ENDBRANCH  13  14
ENDBRANCH  12  13
ENDBRANCH   1  12
TORSDOF 6
ENDMDL
MODEL 9
REMARK VINA RESULT:      -6.7      5.292      8.812
REMARK  Name = 
REMARK  6 active torsions:
REMARK  status: ('A' for Active; 'I' for Inactive)
REMARK    1  A    between atoms: C_7  and  S_8
REMARK    2  A    between atoms: S_8  and  C_9
REMARK    3  A    between atoms: C_9  and  C_10
REMARK    4  A    between atoms: C_10  and  C_11
REMARK    5  A    between atoms: C_11  and  C_12
REMARK    6  A    between atoms: C_12  and  N_13
REMARK                            x       y       z     vdW  Elec       q    Type
REMARK                         _______ _______ _______ _____ _____    ______ ____
ROOT
ATOM      1  S   UNL     1       2.573   6.608  19.539  0.00  0.00    +0.000 S 
ENDROOT
BRANCH   1   8
ATOM      2 CL   UNL     1      -1.795  11.858  23.313  0.00  0.00    +0.000 Cl
ATOM      3  C   UNL     1      -0.854  11.073  22.102  0.00  0.00    +0.000 A 
ATOM      4  C   UNL     1      -0.649  11.713  20.873  0.00  0.00    +0.000 A 
ATOM      5  C   UNL     1       0.107  11.110  19.859  0.00  0.00    +0.000 A 
ATOM      6  C   UNL     1       0.625   9.858  20.162  0.00  0.00    +0.000 A 
ATOM      7  O   UNL     1       1.388   9.060  19.363  0.00  0.00    +0.000 OA
ATOM      8  C   UNL     1       1.628   7.946  20.129  0.00  0.00    +0.000 A 
ATOM      9  N   UNL     1       1.083   7.987  21.332  0.00  0.00    +0.000 NA
ATOM     10  C   UNL     1       0.442   9.198  21.365  0.00  0.00    +0.000 A 
ATOM     11  C   UNL     1      -0.315   9.808  22.371  0.00  0.00    +0.000 A 
ENDBRANCH   1   8
BRANCH   1  12
ATOM     12  C   UNL     1       1.757   5.227  20.392  0.00  0.00    +0.000 C 
BRANCH  12  13
ATOM     13  C   UNL     1       1.784   3.969  19.523  0.00  0.00    +0.000 C 
BRANCH  13  14
ATOM     14  C   UNL     1       2.237   4.313  18.100  0.00  0.00    +0.000 C 
BRANCH  14  15
ATOM     15  C   UNL     1       3.392   3.433  17.593  0.00  0.00    +0.000 C 
BRANCH  15  16
ATOM     16  N   UNL     1       4.719   4.077  17.509  0.00  0.00    +0.000 NA
ATOM     17  C   UNL     1       4.716   5.316  16.727  0.00  0.00    +0.000 C 
ATOM     18  C   UNL     1       6.067   5.540  16.040  0.00  0.00    +0.000 C 
ATOM     19  C   UNL     1       7.153   6.146  16.921  0.00  0.00    +0.000 C 
ATOM     20  C   UNL     1       7.479   5.336  18.170  0.00  0.00    +0.000 C 
ATOM     21  C   UNL     1       6.316   5.297  19.152  0.00  0.00    +0.000 C 
ATOM     22  C   UNL     1       5.275   4.209  18.867  0.00  0.00    +0.000 C 
ENDBRANCH  15  16
ENDBRANCH  14  15
ENDBRANCH  13  14
ENDBRANCH  12  13
ENDBRANCH   1  12
TORSDOF 6
ENDMDL
