MODEL 1
REMARK VINA RESULT:      -7.9      0.000      0.000
REMARK  Name = 
REMARK  5 active torsions:
REMARK  status: ('A' for Active; 'I' for Inactive)
REMARK    1  A    between atoms: C_1  and  O_2
REMARK    2  A    between atoms: O_2  and  C_3
REMARK    3  A    between atoms: C_9  and  C_11
REMARK    4  A    between atoms: C_11  and  C_12
REMARK    5  A    between atoms: C_21  and  N_22
REMARK                            x       y       z     vdW  Elec       q    Type
REMARK                         _______ _______ _______ _____ _____    ______ ____
ROOT
ATOM      1  C   UNL     1      -3.887  12.634  22.599  0.00  0.00    +0.000 C 
ATOM      2  O   UNL     1      -4.849  12.697  21.850  0.00  0.00    +0.000 OA
ATOM      3  N   UNL     1      -2.577  12.609  22.173  0.00  0.00    +0.000 N 
ATOM      4  C   UNL     1      -1.444  12.275  23.032  0.00  0.00    +0.000 C 
ATOM      5  C   UNL     1      -0.707  11.046  22.491  0.00  0.00    +0.000 C 
ATOM      6  N   UNL     1      -0.390  11.074  21.034  0.00  0.00    +0.000 N 
ATOM      7  C   UNL     1       0.757  10.331  20.721  0.00  0.00    +0.000 C 
ATOM      8  O   UNL     1       1.497   9.929  21.639  0.00  0.00    +0.000 OA
ATOM      9  C   UNL     1      -1.601  11.450  20.180  0.00  0.00    +0.000 C 
ATOM     10  C   UNL     1      -1.433  11.644  18.635  0.00  0.00    +0.000 C 
ATOM     11  C   UNL     1      -0.436  12.798  18.422  0.00  0.00    +0.000 C 
ATOM     12  C   UNL     1      -0.525  14.032  19.303  0.00  0.00    +0.000 C 
ATOM     13  C   UNL     1      -1.486  14.030  20.478  0.00  0.00    +0.000 C 
ATOM     14  C   UNL     1      -2.277  12.739  20.739  0.00  0.00    +0.000 C 
ENDROOT
BRANCH  10  15
ATOM     15  N   UNL     1      -2.660  11.773  17.780  0.00  0.00    +0.000 NA
ATOM     16  C   UNL     1      -3.767  10.874  18.197  0.00  0.00    +0.000 C 
ATOM     17  C   UNL     1      -3.477   9.525  17.554  0.00  0.00    +0.000 C 
ATOM     18  C   UNL     1      -2.951   9.915  16.193  0.00  0.00    +0.000 C 
ATOM     19  C   UNL     1      -2.394  11.326  16.378  0.00  0.00    +0.000 C 
ENDBRANCH  10  15
BRANCH   1  21
ATOM     20  C   UNL     1      -5.359  12.598  24.429  0.00  0.00    +0.000 C 
ATOM     21  O   UNL     1      -4.007  12.583  23.962  0.00  0.00    +0.000 OA
ENDBRANCH   1  21
BRANCH   7  22
ATOM     22  C   UNL     1       1.234   9.972  19.323  0.00  0.00    +0.000 C 
BRANCH  22  23
ATOM     23  C   UNL     1       1.900   8.619  19.122  0.00  0.00    +0.000 A 
ATOM     24  C   UNL     1       2.649   8.410  17.947  0.00  0.00    +0.000 A 
ATOM     25  C   UNL     1       3.265   7.184  17.687  0.00  0.00    +0.000 A 
ATOM     26  C   UNL     1       3.135   6.131  18.590  0.00  0.00    +0.000 A 
ATOM     27 CL   UNL     1       3.900   4.633  18.193  0.00  0.00    +0.000 Cl
ATOM     28  C   UNL     1       2.394   6.316  19.767  0.00  0.00    +0.000 A 
ATOM     29 CL   UNL     1       2.205   5.062  20.937  0.00  0.00    +0.000 Cl
ATOM     30  C   UNL     1       1.784   7.553  20.026  0.00  0.00    +0.000 A 
ENDBRANCH  22  23
ENDBRANCH   7  22
TORSDOF 4
ENDMDL
MODEL 2
REMARK VINA RESULT:      -7.6      0.710      1.381
REMARK  Name = 
REMARK  5 active torsions:
REMARK  status: ('A' for Active; 'I' for Inactive)
REMARK    1  A    between atoms: C_1  and  O_2
REMARK    2  A    between atoms: O_2  and  C_3
REMARK    3  A    between atoms: C_9  and  C_11
REMARK    4  A    between atoms: C_11  and  C_12
REMARK    5  A    between atoms: C_21  and  N_22
REMARK                            x       y       z     vdW  Elec       q    Type
REMARK                         _______ _______ _______ _____ _____    ______ ____
ROOT
ATOM      1  C   UNL     1      -3.569  12.538  22.702  0.00  0.00    +0.000 C 
ATOM      2  O   UNL     1      -4.547  12.704  21.990  0.00  0.00    +0.000 OA
ATOM      3  N   UNL     1      -2.282  12.406  22.228  0.00  0.00    +0.000 N 
ATOM      4  C   UNL     1      -1.155  11.953  23.038  0.00  0.00    +0.000 C 
ATOM      5  C   UNL     1      -0.551  10.676  22.447  0.00  0.00    +0.000 C 
ATOM      6  N   UNL     1      -0.282  10.708  20.979  0.00  0.00    +0.000 N 
ATOM      7  C   UNL     1       0.781   9.874  20.610  0.00  0.00    +0.000 C 
ATOM      8  O   UNL     1       1.513   9.386  21.493  0.00  0.00    +0.000 OA
ATOM      9  C   UNL     1      -1.484  11.210  20.178  0.00  0.00    +0.000 C 
ATOM     10  C   UNL     1      -1.353  11.425  18.632  0.00  0.00    +0.000 C 
ATOM     11  C   UNL     1      -0.264  12.490  18.405  0.00  0.00    +0.000 C 
ATOM     12  C   UNL     1      -0.210  13.706  19.314  0.00  0.00    +0.000 C 
ATOM     13  C   UNL     1      -1.127  13.763  20.523  0.00  0.00    +0.000 C 
ATOM     14  C   UNL     1      -2.022  12.542  20.787  0.00  0.00    +0.000 C 
ENDROOT
BRANCH  10  15
ATOM     15  N   UNL     1      -2.592  11.682  17.825  0.00  0.00    +0.000 NA
ATOM     16  C   UNL     1      -3.748  10.844  18.235  0.00  0.00    +0.000 C 
ATOM     17  C   UNL     1      -3.575   9.512  17.519  0.00  0.00    +0.000 C 
ATOM     18  C   UNL     1      -3.062   9.931  16.162  0.00  0.00    +0.000 C 
ATOM     19  C   UNL     1      -2.401  11.288  16.395  0.00  0.00    +0.000 C 
ENDBRANCH  10  15
BRANCH   1  21
ATOM     20  C   UNL     1      -4.977  12.320  24.569  0.00  0.00    +0.000 C 
ATOM     21  O   UNL     1      -3.646  12.467  24.067  0.00  0.00    +0.000 OA
ENDBRANCH   1  21
BRANCH   7  22
ATOM     22  C   UNL     1       1.175   9.506  19.189  0.00  0.00    +0.000 C 
BRANCH  22  23
ATOM     23  C   UNL     1       2.004   8.246  18.981  0.00  0.00    +0.000 A 
ATOM     24  C   UNL     1       1.916   7.222  19.944  0.00  0.00    +0.000 A 
ATOM     25  C   UNL     1       2.669   6.051  19.828  0.00  0.00    +0.000 A 
ATOM     26  C   UNL     1       3.540   5.883  18.754  0.00  0.00    +0.000 A 
ATOM     27 CL   UNL     1       4.461   4.423  18.688  0.00  0.00    +0.000 Cl
ATOM     28  C   UNL     1       3.644   6.890  17.783  0.00  0.00    +0.000 A 
ATOM     29 CL   UNL     1       4.689   6.743  16.419  0.00  0.00    +0.000 Cl
ATOM     30  C   UNL     1       2.879   8.061  17.901  0.00  0.00    +0.000 A 
ENDBRANCH  22  23
ENDBRANCH   7  22
TORSDOF 4
ENDMDL
MODEL 3
REMARK VINA RESULT:      -7.6      1.075      1.133
REMARK  Name = 
REMARK  5 active torsions:
REMARK  status: ('A' for Active; 'I' for Inactive)
REMARK    1  A    between atoms: C_1  and  O_2
REMARK    2  A    between atoms: O_2  and  C_3
REMARK    3  A    between atoms: C_9  and  C_11
REMARK    4  A    between atoms: C_11  and  C_12
REMARK    5  A    between atoms: C_21  and  N_22
REMARK                            x       y       z     vdW  Elec       q    Type
REMARK                         _______ _______ _______ _____ _____    ______ ____
ROOT
ATOM      1  C   UNL     1      -3.079  12.210  22.561  0.00  0.00    +0.000 C 
ATOM      2  O   UNL     1      -4.037  12.556  21.887  0.00  0.00    +0.000 OA
ATOM      3  N   UNL     1      -1.818  11.990  22.054  0.00  0.00    +0.000 N 
ATOM      4  C   UNL     1      -0.742  11.334  22.793  0.00  0.00    +0.000 C 
ATOM      5  C   UNL     1      -0.286  10.068  22.062  0.00  0.00    +0.000 C 
ATOM      6  N   UNL     1      -0.024  10.226  20.602  0.00  0.00    +0.000 N 
ATOM      7  C   UNL     1       0.940   9.324  20.129  0.00  0.00    +0.000 C 
ATOM      8  O   UNL     1       1.618   8.669  20.944  0.00  0.00    +0.000 OA
ATOM      9  C   UNL     1      -1.167  10.937  19.878  0.00  0.00    +0.000 C 
ATOM     10  C   UNL     1      -1.022  11.297  18.360  0.00  0.00    +0.000 C 
ATOM     11  C   UNL     1       0.177  12.255  18.227  0.00  0.00    +0.000 C 
ATOM     12  C   UNL     1       0.368  13.356  19.256  0.00  0.00    +0.000 C 
ATOM     13  C   UNL     1      -0.530  13.385  20.479  0.00  0.00    +0.000 C 
ATOM     14  C   UNL     1      -1.552  12.247  20.630  0.00  0.00    +0.000 C 
ENDROOT
BRANCH  10  15
ATOM     15  N   UNL     1      -2.229  11.772  17.605  0.00  0.00    +0.000 NA
ATOM     16  C   UNL     1      -3.513  11.301  18.189  0.00  0.00    +0.000 C 
ATOM     17  C   UNL     1      -3.735   9.900  17.638  0.00  0.00    +0.000 C 
ATOM     18  C   UNL     1      -3.262  10.029  16.209  0.00  0.00    +0.000 C 
ATOM     19  C   UNL     1      -2.272  11.191  16.228  0.00  0.00    +0.000 C 
ENDBRANCH  10  15
BRANCH   1  21
ATOM     20  C   UNL     1      -4.335  12.544  24.518  0.00  0.00    +0.000 C 
ATOM     21  O   UNL     1      -3.156  12.005  23.913  0.00  0.00    +0.000 OA
ENDBRANCH   1  21
BRANCH   7  22
ATOM     22  C   UNL     1       1.283   9.067  18.671  0.00  0.00    +0.000 C 
BRANCH  22  23
ATOM     23  C   UNL     1       2.130   7.846  18.341  0.00  0.00    +0.000 A 
ATOM     24  C   UNL     1       3.366   8.045  17.697  0.00  0.00    +0.000 A 
ATOM     25  C   UNL     1       4.182   6.968  17.343  0.00  0.00    +0.000 A 
ATOM     26  C   UNL     1       3.774   5.663  17.612  0.00  0.00    +0.000 A 
ATOM     27 CL   UNL     1       4.818   4.377  17.122  0.00  0.00    +0.000 Cl
ATOM     28  C   UNL     1       2.546   5.442  18.253  0.00  0.00    +0.000 A 
ATOM     29 CL   UNL     1       1.984   3.855  18.632  0.00  0.00    +0.000 Cl
ATOM     30  C   UNL     1       1.734   6.529  18.613  0.00  0.00    +0.000 A 
ENDBRANCH  22  23
ENDBRANCH   7  22
TORSDOF 4
ENDMDL
MODEL 4
REMARK VINA RESULT:      -7.5      5.213     10.092
REMARK  Name = 
REMARK  5 active torsions:
REMARK  status: ('A' for Active; 'I' for Inactive)
REMARK    1  A    between atoms: C_1  and  O_2
REMARK    2  A    between atoms: O_2  and  C_3
REMARK    3  A    between atoms: C_9  and  C_11
REMARK    4  A    between atoms: C_11  and  C_12
REMARK    5  A    between atoms: C_21  and  N_22
REMARK                            x       y       z     vdW  Elec       q    Type
REMARK                         _______ _______ _______ _____ _____    ______ ____
ROOT
ATOM      1  C   UNL     1       6.422   4.473  14.749  0.00  0.00    +0.000 C 
ATOM      2  O   UNL     1       6.246   3.264  14.752  0.00  0.00    +0.000 OA
ATOM      3  N   UNL     1       6.088   5.304  15.795  0.00  0.00    +0.000 N 
ATOM      4  C   UNL     1       6.052   6.761  15.703  0.00  0.00    +0.000 C 
ATOM      5  C   UNL     1       4.646   7.283  16.011  0.00  0.00    +0.000 C 
ATOM      6  N   UNL     1       4.006   6.727  17.239  0.00  0.00    +0.000 N 
ATOM      7  C   UNL     1       3.094   7.619  17.820  0.00  0.00    +0.000 C 
ATOM      8  O   UNL     1       3.062   8.802  17.431  0.00  0.00    +0.000 OA
ATOM      9  C   UNL     1       4.089   5.202  17.300  0.00  0.00    +0.000 C 
ATOM     10  C   UNL     1       3.575   4.445  18.572  0.00  0.00    +0.000 C 
ATOM     11  C   UNL     1       4.419   4.926  19.767  0.00  0.00    +0.000 C 
ATOM     12  C   UNL     1       5.916   5.119  19.592  0.00  0.00    +0.000 C 
ATOM     13  C   UNL     1       6.518   4.991  18.204  0.00  0.00    +0.000 C 
ATOM     14  C   UNL     1       5.552   4.728  17.038  0.00  0.00    +0.000 C 
ENDROOT
BRANCH  10  15
ATOM     15  N   UNL     1       3.437   2.951  18.524  0.00  0.00    +0.000 NA
ATOM     16  C   UNL     1       2.276   2.490  17.718  0.00  0.00    +0.000 C 
ATOM     17  C   UNL     1       1.070   2.559  18.644  0.00  0.00    +0.000 C 
ATOM     18  C   UNL     1       1.637   2.084  19.961  0.00  0.00    +0.000 C 
ATOM     19  C   UNL     1       3.131   2.390  19.876  0.00  0.00    +0.000 C 
ENDBRANCH  10  15
BRANCH   1  21
ATOM     20  C   UNL     1       7.137   4.343  12.516  0.00  0.00    +0.000 C 
ATOM     21  O   UNL     1       6.981   5.141  13.693  0.00  0.00    +0.000 OA
ENDBRANCH   1  21
BRANCH   7  22
ATOM     22  C   UNL     1       2.119   7.295  18.940  0.00  0.00    +0.000 C 
BRANCH  22  23
ATOM     23  C   UNL     1       1.494   8.457  19.700  0.00  0.00    +0.000 A 
ATOM     24  C   UNL     1       1.419   8.374  21.103  0.00  0.00    +0.000 A 
ATOM     25  C   UNL     1       0.835   9.392  21.860  0.00  0.00    +0.000 A 
ATOM     26  C   UNL     1       0.298  10.513  21.229  0.00  0.00    +0.000 A 
ATOM     27 CL   UNL     1      -0.435  11.721  22.224  0.00  0.00    +0.000 Cl
ATOM     28  C   UNL     1       0.362  10.616  19.832  0.00  0.00    +0.000 A 
ATOM     29 CL   UNL     1      -0.268  11.982  18.986  0.00  0.00    +0.000 Cl
ATOM     30  C   UNL     1       0.956   9.593  19.077  0.00  0.00    +0.000 A 
ENDBRANCH  22  23
ENDBRANCH   7  22
TORSDOF 4
ENDMDL
MODEL 5
REMARK VINA RESULT:      -7.4      3.916      7.600
REMARK  Name = 
REMARK  5 active torsions:
REMARK  status: ('A' for Active; 'I' for Inactive)
REMARK    1  A    between atoms: C_1  and  O_2
REMARK    2  A    between atoms: O_2  and  C_3
REMARK    3  A    between atoms: C_9  and  C_11
REMARK    4  A    between atoms: C_11  and  C_12
REMARK    5  A    between atoms: C_21  and  N_22
REMARK                            x       y       z     vdW  Elec       q    Type
REMARK                         _______ _______ _______ _____ _____    ______ ____
ROOT
ATOM      1  C   UNL     1       2.026   8.972  18.352  0.00  0.00    +0.000 C 
ATOM      2  O   UNL     1       2.494   9.696  17.487  0.00  0.00    +0.000 OA
ATOM      3  N   UNL     1       0.919   9.290  19.108  0.00  0.00    +0.000 N 
ATOM      4  C   UNL     1       0.511   8.561  20.306  0.00  0.00    +0.000 C 
ATOM      5  C   UNL     1       0.501   9.493  21.522  0.00  0.00    +0.000 C 
ATOM      6  N   UNL     1      -0.193  10.799  21.327  0.00  0.00    +0.000 N 
ATOM      7  C   UNL     1      -0.727  11.305  22.520  0.00  0.00    +0.000 C 
ATOM      8  O   UNL     1      -0.779  10.574  23.528  0.00  0.00    +0.000 OA
ATOM      9  C   UNL     1       0.251  11.511  20.050  0.00  0.00    +0.000 C 
ATOM     10  C   UNL     1      -0.453  12.842  19.617  0.00  0.00    +0.000 C 
ATOM     11  C   UNL     1      -1.941  12.521  19.383  0.00  0.00    +0.000 C 
ATOM     12  C   UNL     1      -2.322  11.233  18.674  0.00  0.00    +0.000 C 
ATOM     13  C   UNL     1      -1.240  10.217  18.358  0.00  0.00    +0.000 C 
ATOM     14  C   UNL     1       0.186  10.535  18.835  0.00  0.00    +0.000 C 
ENDROOT
BRANCH  10  15
ATOM     15  N   UNL     1       0.146  13.654  18.505  0.00  0.00    +0.000 NA
ATOM     16  C   UNL     1       1.632  13.694  18.537  0.00  0.00    +0.000 C 
ATOM     17  C   UNL     1       2.000  14.795  19.522  0.00  0.00    +0.000 C 
ATOM     18  C   UNL     1       0.967  15.857  19.230  0.00  0.00    +0.000 C 
ATOM     19  C   UNL     1      -0.216  15.099  18.632  0.00  0.00    +0.000 C 
ENDBRANCH  10  15
BRANCH   1  21
ATOM     20  C   UNL     1       3.536   7.282  17.734  0.00  0.00    +0.000 C 
ATOM     21  O   UNL     1       2.555   7.749  18.666  0.00  0.00    +0.000 OA
ENDBRANCH   1  21
BRANCH   7  22
ATOM     22  C   UNL     1      -1.300  12.698  22.722  0.00  0.00    +0.000 C 
BRANCH  22  23
ATOM     23  C   UNL     1      -2.793  12.824  22.991  0.00  0.00    +0.000 A 
ATOM     24  C   UNL     1      -3.273  12.480  24.269  0.00  0.00    +0.000 A 
ATOM     25  C   UNL     1      -4.634  12.548  24.576  0.00  0.00    +0.000 A 
ATOM     26  C   UNL     1      -5.551  12.948  23.606  0.00  0.00    +0.000 A 
ATOM     27 CL   UNL     1      -7.221  12.982  24.045  0.00  0.00    +0.000 Cl
ATOM     28  C   UNL     1      -5.095  13.294  22.325  0.00  0.00    +0.000 A 
ATOM     29 CL   UNL     1      -6.171  13.813  21.080  0.00  0.00    +0.000 Cl
ATOM     30  C   UNL     1      -3.725  13.231  22.025  0.00  0.00    +0.000 A 
ENDBRANCH  22  23
ENDBRANCH   7  22
TORSDOF 4
ENDMDL
MODEL 6
REMARK VINA RESULT:      -7.4      5.203     10.055
REMARK  Name = 
REMARK  5 active torsions:
REMARK  status: ('A' for Active; 'I' for Inactive)
REMARK    1  A    between atoms: C_1  and  O_2
REMARK    2  A    between atoms: O_2  and  C_3
REMARK    3  A    between atoms: C_9  and  C_11
REMARK    4  A    between atoms: C_11  and  C_12
REMARK    5  A    between atoms: C_21  and  N_22
REMARK                            x       y       z     vdW  Elec       q    Type
REMARK                         _______ _______ _______ _____ _____    ______ ____
ROOT
ATOM      1  C   UNL     1       6.141   4.143  14.647  0.00  0.00    +0.000 C 
ATOM      2  O   UNL     1       5.924   2.946  14.750  0.00  0.00    +0.000 OA
ATOM      3  N   UNL     1       5.934   5.056  15.657  0.00  0.00    +0.000 N 
ATOM      4  C   UNL     1       5.940   6.504  15.466  0.00  0.00    +0.000 C 
ATOM      5  C   UNL     1       4.587   7.102  15.861  0.00  0.00    +0.000 C 
ATOM      6  N   UNL     1       4.044   6.656  17.177  0.00  0.00    +0.000 N 
ATOM      7  C   UNL     1       3.221   7.622  17.773  0.00  0.00    +0.000 C 
ATOM      8  O   UNL     1       3.194   8.776  17.306  0.00  0.00    +0.000 OA
ATOM      9  C   UNL     1       4.079   5.136  17.338  0.00  0.00    +0.000 C 
ATOM     10  C   UNL     1       3.659   4.488  18.701  0.00  0.00    +0.000 C 
ATOM     11  C   UNL     1       4.625   5.014  19.778  0.00  0.00    +0.000 C 
ATOM     12  C   UNL     1       6.105   5.133  19.457  0.00  0.00    +0.000 C 
ATOM     13  C   UNL     1       6.573   4.888  18.034  0.00  0.00    +0.000 C 
ATOM     14  C   UNL     1       5.495   4.587  16.981  0.00  0.00    +0.000 C 
ENDROOT
BRANCH  10  15
ATOM     15  N   UNL     1       3.466   3.001  18.772  0.00  0.00    +0.000 NA
ATOM     16  C   UNL     1       2.395   2.502  17.870  0.00  0.00    +0.000 C 
ATOM     17  C   UNL     1       1.088   2.694  18.624  0.00  0.00    +0.000 C 
ATOM     18  C   UNL     1       1.468   2.329  20.040  0.00  0.00    +0.000 C 
ATOM     19  C   UNL     1       2.972   2.581  20.119  0.00  0.00    +0.000 C 
ENDBRANCH  10  15
BRANCH   1  21
ATOM     20  C   UNL     1       6.686   3.822  12.384  0.00  0.00    +0.000 C 
ATOM     21  O   UNL     1       6.624   4.716  13.500  0.00  0.00    +0.000 OA
ENDBRANCH   1  21
BRANCH   7  22
ATOM     22  C   UNL     1       2.342   7.414  18.995  0.00  0.00    +0.000 C 
BRANCH  22  23
ATOM     23  C   UNL     1       1.416   8.549  19.410  0.00  0.00    +0.000 A 
ATOM     24  C   UNL     1       0.919   9.405  18.409  0.00  0.00    +0.000 A 
ATOM     25  C   UNL     1       0.086  10.481  18.722  0.00  0.00    +0.000 A 
ATOM     26  C   UNL     1      -0.259  10.736  20.048  0.00  0.00    +0.000 A 
ATOM     27 CL   UNL     1      -1.271  12.099  20.368  0.00  0.00    +0.000 Cl
ATOM     28  C   UNL     1       0.225   9.896  21.062  0.00  0.00    +0.000 A 
ATOM     29 CL   UNL     1      -0.174  10.142  22.722  0.00  0.00    +0.000 Cl
ATOM     30  C   UNL     1       1.056   8.812  20.740  0.00  0.00    +0.000 A 
ENDBRANCH  22  23
ENDBRANCH   7  22
TORSDOF 4
ENDMDL
MODEL 7
REMARK VINA RESULT:      -7.1      4.251      7.771
REMARK  Name = 
REMARK  5 active torsions:
REMARK  status: ('A' for Active; 'I' for Inactive)
REMARK    1  A    between atoms: C_1  and  O_2
REMARK    2  A    between atoms: O_2  and  C_3
REMARK    3  A    between atoms: C_9  and  C_11
REMARK    4  A    between atoms: C_11  and  C_12
REMARK    5  A    between atoms: C_21  and  N_22
REMARK                            x       y       z     vdW  Elec       q    Type
REMARK                         _______ _______ _______ _____ _____    ______ ____
ROOT
ATOM      1  C   UNL     1       1.782   9.237  18.255  0.00  0.00    +0.000 C 
ATOM      2  O   UNL     1       2.354   9.943  17.439  0.00  0.00    +0.000 OA
ATOM      3  N   UNL     1       0.728   9.658  19.035  0.00  0.00    +0.000 N 
ATOM      4  C   UNL     1       0.212   8.917  20.183  0.00  0.00    +0.000 C 
ATOM      5  C   UNL     1       0.329   9.755  21.459  0.00  0.00    +0.000 C 
ATOM      6  N   UNL     1      -0.170  11.158  21.356  0.00  0.00    +0.000 N 
ATOM      7  C   UNL     1      -0.633  11.653  22.583  0.00  0.00    +0.000 C 
ATOM      8  O   UNL     1      -0.796  10.870  23.538  0.00  0.00    +0.000 OA
ATOM      9  C   UNL     1       0.380  11.884  20.129  0.00  0.00    +0.000 C 
ATOM     10  C   UNL     1      -0.124  13.328  19.789  0.00  0.00    +0.000 C 
ATOM     11  C   UNL     1      -1.641  13.241  19.540  0.00  0.00    +0.000 C 
ATOM     12  C   UNL     1      -2.199  12.072  18.746  0.00  0.00    +0.000 C 
ATOM     13  C   UNL     1      -1.271  10.935  18.358  0.00  0.00    +0.000 C 
ATOM     14  C   UNL     1       0.182  11.012  18.851  0.00  0.00    +0.000 C 
ENDROOT
BRANCH  10  15
ATOM     15  N   UNL     1       0.592  14.119  18.733  0.00  0.00    +0.000 NA
ATOM     16  C   UNL     1       1.993  14.457  19.097  0.00  0.00    +0.000 C 
ATOM     17  C   UNL     1       1.912  15.708  19.960  0.00  0.00    +0.000 C 
ATOM     18  C   UNL     1       0.824  16.507  19.282  0.00  0.00    +0.000 C 
ATOM     19  C   UNL     1      -0.026  15.468  18.552  0.00  0.00    +0.000 C 
ENDBRANCH  10  15
BRANCH   1  21
ATOM     20  C   UNL     1       3.292   7.505  17.768  0.00  0.00    +0.000 C 
ATOM     21  O   UNL     1       2.129   7.932  18.483  0.00  0.00    +0.000 OA
ENDBRANCH   1  21
BRANCH   7  22
ATOM     22  C   UNL     1      -1.002  13.098  22.880  0.00  0.00    +0.000 C 
BRANCH  22  23
ATOM     23  C   UNL     1      -2.470  13.427  23.108  0.00  0.00    +0.000 A 
ATOM     24  C   UNL     1      -3.440  12.526  22.627  0.00  0.00    +0.000 A 
ATOM     25  C   UNL     1      -4.805  12.779  22.780  0.00  0.00    +0.000 A 
ATOM     26  C   UNL     1      -5.234  13.948  23.406  0.00  0.00    +0.000 A 
ATOM     27 CL   UNL     1      -6.936  14.212  23.536  0.00  0.00    +0.000 Cl
ATOM     28  C   UNL     1      -4.285  14.860  23.893  0.00  0.00    +0.000 A 
ATOM     29 CL   UNL     1      -4.744  16.319  24.691  0.00  0.00    +0.000 Cl
ATOM     30  C   UNL     1      -2.915  14.596  23.743  0.00  0.00    +0.000 A 
ENDBRANCH  22  23
ENDBRANCH   7  22
TORSDOF 4
ENDMDL
MODEL 8
REMARK VINA RESULT:      -6.8      2.157      4.084
REMARK  Name = 
REMARK  5 active torsions:
REMARK  status: ('A' for Active; 'I' for Inactive)
REMARK    1  A    between atoms: C_1  and  O_2
REMARK    2  A    between atoms: O_2  and  C_3
REMARK    3  A    between atoms: C_9  and  C_11
REMARK    4  A    between atoms: C_11  and  C_12
REMARK    5  A    between atoms: C_21  and  N_22
REMARK                            x       y       z     vdW  Elec       q    Type
REMARK                         _______ _______ _______ _____ _____    ______ ____
ROOT
ATOM      1  C   UNL     1      -3.631  14.395  20.822  0.00  0.00    +0.000 C 
ATOM      2  O   UNL     1      -3.079  15.366  21.317  0.00  0.00    +0.000 OA
ATOM      3  N   UNL     1      -3.029  13.168  20.654  0.00  0.00    +0.000 N 
ATOM      4  C   UNL     1      -3.582  12.090  19.838  0.00  0.00    +0.000 C 
ATOM      5  C   UNL     1      -2.613  11.721  18.712  0.00  0.00    +0.000 C 
ATOM      6  N   UNL     1      -1.194  11.516  19.124  0.00  0.00    +0.000 N 
ATOM      7  C   UNL     1      -0.518  10.613  18.291  0.00  0.00    +0.000 C 
ATOM      8  O   UNL     1      -1.166   9.929  17.475  0.00  0.00    +0.000 OA
ATOM      9  C   UNL     1      -0.669  12.658  19.994  0.00  0.00    +0.000 C 
ATOM     10  C   UNL     1       0.765  12.563  20.620  0.00  0.00    +0.000 C 
ATOM     11  C   UNL     1       0.783  11.331  21.544  0.00  0.00    +0.000 C 
ATOM     12  C   UNL     1      -0.417  11.048  22.432  0.00  0.00    +0.000 C 
ATOM     13  C   UNL     1      -1.669  11.890  22.268  0.00  0.00    +0.000 C 
ATOM     14  C   UNL     1      -1.664  12.953  21.158  0.00  0.00    +0.000 C 
ENDROOT
BRANCH  10  15
ATOM     15  N   UNL     1       1.359  13.781  21.265  0.00  0.00    +0.000 NA
ATOM     16  C   UNL     1       1.031  15.045  20.556  0.00  0.00    +0.000 C 
ATOM     17  C   UNL     1       2.042  15.166  19.425  0.00  0.00    +0.000 C 
ATOM     18  C   UNL     1       3.316  14.671  20.067  0.00  0.00    +0.000 C 
ATOM     19  C   UNL     1       2.853  13.756  21.199  0.00  0.00    +0.000 C 
ENDBRANCH  10  15
BRANCH   1  21
ATOM     20  C   UNL     1      -5.891  14.652  21.406  0.00  0.00    +0.000 C 
ATOM     21  O   UNL     1      -4.925  14.422  20.377  0.00  0.00    +0.000 OA
ENDBRANCH   1  21
BRANCH   7  22
ATOM     22  C   UNL     1       0.978  10.345  18.292  0.00  0.00    +0.000 C 
BRANCH  22  23
ATOM     23  C   UNL     1       1.458   8.977  18.754  0.00  0.00    +0.000 A 
ATOM     24  C   UNL     1       1.097   8.542  20.044  0.00  0.00    +0.000 A 
ATOM     25  C   UNL     1       1.524   7.308  20.540  0.00  0.00    +0.000 A 
ATOM     26  C   UNL     1       2.336   6.484  19.762  0.00  0.00    +0.000 A 
ATOM     27 CL   UNL     1       2.851   4.985  20.447  0.00  0.00    +0.000 Cl
ATOM     28  C   UNL     1       2.707   6.898  18.474  0.00  0.00    +0.000 A 
ATOM     29 CL   UNL     1       3.697   5.923  17.450  0.00  0.00    +0.000 Cl
ATOM     30  C   UNL     1       2.269   8.135  17.978  0.00  0.00    +0.000 A 
ENDBRANCH  22  23
ENDBRANCH   7  22
TORSDOF 4
ENDMDL
MODEL 9
REMARK VINA RESULT:      -6.7      2.294      4.158
REMARK  Name = 
REMARK  5 active torsions:
REMARK  status: ('A' for Active; 'I' for Inactive)
REMARK    1  A    between atoms: C_1  and  O_2
REMARK    2  A    between atoms: O_2  and  C_3
REMARK    3  A    between atoms: C_9  and  C_11
REMARK    4  A    between atoms: C_11  and  C_12
REMARK    5  A    between atoms: C_21  and  N_22
REMARK                            x       y       z     vdW  Elec       q    Type
REMARK                         _______ _______ _______ _____ _____    ______ ____
ROOT
ATOM      1  C   UNL     1      -5.230  14.418  20.418  0.00  0.00    +0.000 C 
ATOM      2  O   UNL     1      -4.947  15.525  20.848  0.00  0.00    +0.000 OA
ATOM      3  N   UNL     1      -4.386  13.331  20.466  0.00  0.00    +0.000 N 
ATOM      4  C   UNL     1      -4.609  12.088  19.732  0.00  0.00    +0.000 C 
ATOM      5  C   UNL     1      -3.448  11.819  18.770  0.00  0.00    +0.000 C 
ATOM      6  N   UNL     1      -2.082  11.953  19.355  0.00  0.00    +0.000 N 
ATOM      7  C   UNL     1      -1.142  11.134  18.716  0.00  0.00    +0.000 C 
ATOM      8  O   UNL     1      -1.533  10.254  17.925  0.00  0.00    +0.000 OA
ATOM      9  C   UNL     1      -1.906  13.258  20.131  0.00  0.00    +0.000 C 
ATOM     10  C   UNL     1      -0.575  13.524  20.915  0.00  0.00    +0.000 C 
ATOM     11  C   UNL     1      -0.439  12.419  21.979  0.00  0.00    +0.000 C 
ATOM     12  C   UNL     1      -1.667  11.981  22.760  0.00  0.00    +0.000 C 
ATOM     13  C   UNL     1      -3.026  12.526  22.361  0.00  0.00    +0.000 C 
ATOM     14  C   UNL     1      -3.082  13.453  21.137  0.00  0.00    +0.000 C 
ENDROOT
BRANCH  10  15
ATOM     15  N   UNL     1      -0.317  14.895  21.468  0.00  0.00    +0.000 NA
ATOM     16  C   UNL     1      -0.337  15.962  20.433  0.00  0.00    +0.000 C 
ATOM     17  C   UNL     1       1.050  15.967  19.808  0.00  0.00    +0.000 C 
ATOM     18  C   UNL     1       1.949  15.732  20.999  0.00  0.00    +0.000 C 
ATOM     19  C   UNL     1       1.070  15.007  22.016  0.00  0.00    +0.000 C 
ENDBRANCH  10  15
BRANCH   1  21
ATOM     20  C   UNL     1      -7.000  15.222  19.099  0.00  0.00    +0.000 C 
ATOM     21  O   UNL     1      -6.437  14.133  19.835  0.00  0.00    +0.000 OA
ENDBRANCH   1  21
BRANCH   7  22
ATOM     22  C   UNL     1       0.364  11.182  18.911  0.00  0.00    +0.000 C 
BRANCH  22  23
ATOM     23  C   UNL     1       1.129   9.866  18.898  0.00  0.00    +0.000 A 
ATOM     24  C   UNL     1       1.956   9.584  17.794  0.00  0.00    +0.000 A 
ATOM     25  C   UNL     1       2.666   8.385  17.707  0.00  0.00    +0.000 A 
ATOM     26  C   UNL     1       2.553   7.430  18.716  0.00  0.00    +0.000 A 
ATOM     27 CL   UNL     1       3.436   5.957  18.531  0.00  0.00    +0.000 Cl
ATOM     28  C   UNL     1       1.734   7.690  19.825  0.00  0.00    +0.000 A 
ATOM     29 CL   UNL     1       1.560   6.561  21.118  0.00  0.00    +0.000 Cl
ATOM     30  C   UNL     1       1.030   8.901  19.911  0.00  0.00    +0.000 A 
ENDBRANCH  22  23
ENDBRANCH   7  22
TORSDOF 4
ENDMDL
