MODEL 1
REMARK VINA RESULT:      -7.6      0.000      0.000
REMARK  Name = 
REMARK  8 active torsions:
REMARK  status: ('A' for Active; 'I' for Inactive)
REMARK    1  A    between atoms: C_1  and  C_2
REMARK    2  A    between atoms: C_2  and  C_3
REMARK    3  A    between atoms: C_3  and  C_4
REMARK    4  A    between atoms: N_6  and  C_7
REMARK    5  A    between atoms: C_10  and  S_11
REMARK    6  A    between atoms: S_11  and  N_14
REMARK    7  A    between atoms: C_17  and  C_18
REMARK    8  A    between atoms: C_20  and  C_21
REMARK                            x       y       z     vdW  Elec       q    Type
REMARK                         _______ _______ _______ _____ _____    ______ ____
ROOT
ATOM      1  C   UNL     1       1.885   6.981  20.330  0.00  0.00    +0.000 A 
ATOM      2  C   UNL     1       2.192   7.087  18.968  0.00  0.00    +0.000 A 
ATOM      3  C   UNL     1       2.448   5.958  18.196  0.00  0.00    +0.000 A 
ATOM      4  C   UNL     1       2.417   4.698  18.786  0.00  0.00    +0.000 A 
ATOM      5  C   UNL     1       2.076   4.564  20.140  0.00  0.00    +0.000 A 
ATOM      6  C   UNL     1       1.835   5.707  20.913  0.00  0.00    +0.000 A 
ENDROOT
BRANCH   1   9
ATOM      7  C   UNL     1       0.408   8.509  21.622  0.00  0.00    +0.000 C 
ATOM      8  O   UNL     1      -0.639   7.874  21.528  0.00  0.00    +0.000 OA
ATOM      9  N   UNL     1       1.652   8.116  21.139  0.00  0.00    +0.000 N 
ATOM     10  H   UNL     1       2.460   8.634  21.454  0.00  0.00    +0.000 HD
BRANCH   7  11
ATOM     11  C   UNL     1       0.410   9.839  22.342  0.00  0.00    +0.000 C 
BRANCH  11  13
ATOM     12  C   UNL     1      -0.196  11.080  20.206  0.00  0.00    +0.000 C 
ATOM     13  C   UNL     1      -0.491  10.881  21.687  0.00  0.00    +0.000 C 
ENDBRANCH  11  13
ENDBRANCH   7  11
ENDBRANCH   1   9
BRANCH   4  14
ATOM     14  S   UNL     1       2.786   3.269  17.786  0.00  0.00    +0.000 S 
ATOM     15  O   UNL     1       2.081   2.136  18.346  0.00  0.00    +0.000 OA
ATOM     16  O   UNL     1       2.591   3.657  16.403  0.00  0.00    +0.000 OA
BRANCH  14  17
ATOM     17  N   UNL     1       4.452   3.045  17.981  0.00  0.00    +0.000 N 
ATOM     18  C   UNL     1       5.257   3.921  17.225  0.00  0.00    +0.000 A 
ATOM     19  C   UNL     1       5.626   5.141  17.739  0.00  0.00    +0.000 A 
ATOM     20  C   UNL     1       6.303   5.965  16.871  0.00  0.00    +0.000 A 
ATOM     21  C   UNL     1       6.770   7.324  17.293  0.00  0.00    +0.000 C 
ATOM     22  N   UNL     1       6.557   5.607  15.595  0.00  0.00    +0.000 NA
ATOM     23  C   UNL     1       6.151   4.388  15.197  0.00  0.00    +0.000 A 
ATOM     24  C   UNL     1       6.372   4.021  13.764  0.00  0.00    +0.000 C 
ATOM     25  N   UNL     1       5.515   3.502  15.984  0.00  0.00    +0.000 NA
ATOM     26  H   UNL     1       4.696   2.067  17.838  0.00  0.00    +0.000 HD
ENDBRANCH  14  17
ENDBRANCH   4  14
TORSDOF 5
ENDMDL
MODEL 2
REMARK VINA RESULT:      -7.5      0.363      1.051
REMARK  Name = 
REMARK  8 active torsions:
REMARK  status: ('A' for Active; 'I' for Inactive)
REMARK    1  A    between atoms: C_1  and  C_2
REMARK    2  A    between atoms: C_2  and  C_3
REMARK    3  A    between atoms: C_3  and  C_4
REMARK    4  A    between atoms: N_6  and  C_7
REMARK    5  A    between atoms: C_10  and  S_11
REMARK    6  A    between atoms: S_11  and  N_14
REMARK    7  A    between atoms: C_17  and  C_18
REMARK    8  A    between atoms: C_20  and  C_21
REMARK                            x       y       z     vdW  Elec       q    Type
REMARK                         _______ _______ _______ _____ _____    ______ ____
ROOT
ATOM      1  C   UNL     1       1.946   7.084  20.324  0.00  0.00    +0.000 A 
ATOM      2  C   UNL     1       1.922   5.811  20.907  0.00  0.00    +0.000 A 
ATOM      3  C   UNL     1       2.201   4.671  20.161  0.00  0.00    +0.000 A 
ATOM      4  C   UNL     1       2.496   4.789  18.805  0.00  0.00    +0.000 A 
ATOM      5  C   UNL     1       2.564   6.055  18.208  0.00  0.00    +0.000 A 
ATOM      6  C   UNL     1       2.265   7.197  18.963  0.00  0.00    +0.000 A 
ENDROOT
BRANCH   1   9
ATOM      7  C   UNL     1       0.375   8.578  21.544  0.00  0.00    +0.000 C 
ATOM      8  O   UNL     1      -0.617   7.854  21.527  0.00  0.00    +0.000 OA
ATOM      9  N   UNL     1       1.636   8.253  21.055  0.00  0.00    +0.000 N 
ATOM     10  H   UNL     1       2.406   8.858  21.307  0.00  0.00    +0.000 HD
BRANCH   7  11
ATOM     11  C   UNL     1       0.282   9.954  22.164  0.00  0.00    +0.000 C 
BRANCH  11  13
ATOM     12  C   UNL     1       1.038  11.907  20.720  0.00  0.00    +0.000 C 
ATOM     13  C   UNL     1      -0.128  11.036  21.172  0.00  0.00    +0.000 C 
ENDBRANCH  11  13
ENDBRANCH   7  11
ENDBRANCH   1   9
BRANCH   4  14
ATOM     14  S   UNL     1       2.813   3.309  17.861  0.00  0.00    +0.000 S 
ATOM     15  O   UNL     1       2.104   2.216  18.490  0.00  0.00    +0.000 OA
ATOM     16  O   UNL     1       2.586   3.639  16.468  0.00  0.00    +0.000 OA
BRANCH  14  17
ATOM     17  N   UNL     1       4.480   3.064  18.020  0.00  0.00    +0.000 N 
ATOM     18  C   UNL     1       5.280   3.930  17.248  0.00  0.00    +0.000 A 
ATOM     19  C   UNL     1       5.676   5.144  17.753  0.00  0.00    +0.000 A 
ATOM     20  C   UNL     1       6.344   5.959  16.870  0.00  0.00    +0.000 A 
ATOM     21  C   UNL     1       6.838   7.312  17.282  0.00  0.00    +0.000 C 
ATOM     22  N   UNL     1       6.567   5.598  15.589  0.00  0.00    +0.000 NA
ATOM     23  C   UNL     1       6.136   4.384  15.201  0.00  0.00    +0.000 A 
ATOM     24  C   UNL     1       6.322   4.014  13.763  0.00  0.00    +0.000 C 
ATOM     25  N   UNL     1       5.506   3.507  16.001  0.00  0.00    +0.000 NA
ATOM     26  H   UNL     1       4.708   2.083  17.873  0.00  0.00    +0.000 HD
ENDBRANCH  14  17
ENDBRANCH   4  14
TORSDOF 5
ENDMDL
MODEL 3
REMARK VINA RESULT:      -7.4      0.793      1.396
REMARK  Name = 
REMARK  8 active torsions:
REMARK  status: ('A' for Active; 'I' for Inactive)
REMARK    1  A    between atoms: C_1  and  C_2
REMARK    2  A    between atoms: C_2  and  C_3
REMARK    3  A    between atoms: C_3  and  C_4
REMARK    4  A    between atoms: N_6  and  C_7
REMARK    5  A    between atoms: C_10  and  S_11
REMARK    6  A    between atoms: S_11  and  N_14
REMARK    7  A    between atoms: C_17  and  C_18
REMARK    8  A    between atoms: C_20  and  C_21
REMARK                            x       y       z     vdW  Elec       q    Type
REMARK                         _______ _______ _______ _____ _____    ______ ____
ROOT
ATOM      1  C   UNL     1       1.979   7.184  20.159  0.00  0.00    +0.000 A 
ATOM      2  C   UNL     1       1.821   5.924  20.749  0.00  0.00    +0.000 A 
ATOM      3  C   UNL     1       2.074   4.757  20.036  0.00  0.00    +0.000 A 
ATOM      4  C   UNL     1       2.478   4.835  18.706  0.00  0.00    +0.000 A 
ATOM      5  C   UNL     1       2.679   6.085  18.105  0.00  0.00    +0.000 A 
ATOM      6  C   UNL     1       2.406   7.256  18.825  0.00  0.00    +0.000 A 
ENDROOT
BRANCH   1   9
ATOM      7  C   UNL     1       0.885   9.408  20.381  0.00  0.00    +0.000 C 
ATOM      8  O   UNL     1       0.198   9.376  19.364  0.00  0.00    +0.000 OA
ATOM      9  N   UNL     1       1.698   8.382  20.854  0.00  0.00    +0.000 N 
ATOM     10  H   UNL     1       2.051   8.463  21.797  0.00  0.00    +0.000 HD
BRANCH   7  11
ATOM     11  C   UNL     1       0.867  10.642  21.255  0.00  0.00    +0.000 C 
BRANCH  11  13
ATOM     12  C   UNL     1      -0.584   9.853  23.190  0.00  0.00    +0.000 C 
ATOM     13  C   UNL     1      -0.440  10.819  22.020  0.00  0.00    +0.000 C 
ENDBRANCH  11  13
ENDBRANCH   7  11
ENDBRANCH   1   9
BRANCH   4  14
ATOM     14  S   UNL     1       2.760   3.324  17.802  0.00  0.00    +0.000 S 
ATOM     15  O   UNL     1       2.018   2.267  18.454  0.00  0.00    +0.000 OA
ATOM     16  O   UNL     1       2.550   3.624  16.399  0.00  0.00    +0.000 OA
BRANCH  14  17
ATOM     17  N   UNL     1       4.418   3.038  17.978  0.00  0.00    +0.000 N 
ATOM     18  C   UNL     1       5.248   3.898  17.230  0.00  0.00    +0.000 A 
ATOM     19  C   UNL     1       5.664   5.094  17.762  0.00  0.00    +0.000 A 
ATOM     20  C   UNL     1       6.363   5.909  16.902  0.00  0.00    +0.000 A 
ATOM     21  C   UNL     1       6.882   7.243  17.343  0.00  0.00    +0.000 C 
ATOM     22  N   UNL     1       6.594   5.565  15.618  0.00  0.00    +0.000 NA
ATOM     23  C   UNL     1       6.141   4.368  15.203  0.00  0.00    +0.000 A 
ATOM     24  C   UNL     1       6.337   4.018  13.761  0.00  0.00    +0.000 C 
ATOM     25  N   UNL     1       5.481   3.492  15.980  0.00  0.00    +0.000 NA
ATOM     26  H   UNL     1       4.625   2.054  17.816  0.00  0.00    +0.000 HD
ENDBRANCH  14  17
ENDBRANCH   4  14
TORSDOF 5
ENDMDL
MODEL 4
REMARK VINA RESULT:      -7.4      2.870      8.384
REMARK  Name = 
REMARK  8 active torsions:
REMARK  status: ('A' for Active; 'I' for Inactive)
REMARK    1  A    between atoms: C_1  and  C_2
REMARK    2  A    between atoms: C_2  and  C_3
REMARK    3  A    between atoms: C_3  and  C_4
REMARK    4  A    between atoms: N_6  and  C_7
REMARK    5  A    between atoms: C_10  and  S_11
REMARK    6  A    between atoms: S_11  and  N_14
REMARK    7  A    between atoms: C_17  and  C_18
REMARK    8  A    between atoms: C_20  and  C_21
REMARK                            x       y       z     vdW  Elec       q    Type
REMARK                         _______ _______ _______ _____ _____    ______ ____
ROOT
ATOM      1  C   UNL     1       2.880   6.079  18.464  0.00  0.00    +0.000 A 
ATOM      2  C   UNL     1       2.700   7.400  18.036  0.00  0.00    +0.000 A 
ATOM      3  C   UNL     1       2.101   8.350  18.856  0.00  0.00    +0.000 A 
ATOM      4  C   UNL     1       1.655   7.983  20.123  0.00  0.00    +0.000 A 
ATOM      5  C   UNL     1       1.858   6.677  20.589  0.00  0.00    +0.000 A 
ATOM      6  C   UNL     1       2.447   5.722  19.750  0.00  0.00    +0.000 A 
ENDROOT
BRANCH   1   9
ATOM      7  C   UNL     1       4.754   5.130  17.132  0.00  0.00    +0.000 C 
ATOM      8  O   UNL     1       5.620   5.949  17.425  0.00  0.00    +0.000 OA
ATOM      9  N   UNL     1       3.458   5.091  17.636  0.00  0.00    +0.000 N 
ATOM     10  H   UNL     1       2.914   4.257  17.464  0.00  0.00    +0.000 HD
BRANCH   7  11
ATOM     11  C   UNL     1       5.076   4.023  16.154  0.00  0.00    +0.000 C 
BRANCH  11  13
ATOM     12  C   UNL     1       6.199   4.023  13.871  0.00  0.00    +0.000 C 
ATOM     13  C   UNL     1       6.359   4.268  15.367  0.00  0.00    +0.000 C 
ENDBRANCH  11  13
ENDBRANCH   7  11
ENDBRANCH   1   9
BRANCH   4  14
ATOM     14  S   UNL     1       0.856   9.209  21.143  0.00  0.00    +0.000 S 
ATOM     15  O   UNL     1      -0.525   8.813  21.319  0.00  0.00    +0.000 OA
ATOM     16  O   UNL     1       1.716   9.435  22.287  0.00  0.00    +0.000 OA
BRANCH  14  17
ATOM     17  N   UNL     1       0.921  10.625  20.219  0.00  0.00    +0.000 N 
ATOM     18  C   UNL     1      -0.317  11.036  19.683  0.00  0.00    +0.000 A 
ATOM     19  C   UNL     1      -1.147  11.858  20.405  0.00  0.00    +0.000 A 
ATOM     20  C   UNL     1      -2.379  12.093  19.842  0.00  0.00    +0.000 A 
ATOM     21  C   UNL     1      -3.388  12.971  20.515  0.00  0.00    +0.000 C 
ATOM     22  N   UNL     1      -2.752  11.529  18.674  0.00  0.00    +0.000 NA
ATOM     23  C   UNL     1      -1.857  10.740  18.050  0.00  0.00    +0.000 A 
ATOM     24  C   UNL     1      -2.298  10.061  16.791  0.00  0.00    +0.000 C 
ATOM     25  N   UNL     1      -0.620  10.482  18.506  0.00  0.00    +0.000 NA
ATOM     26  H   UNL     1       1.650  10.552  19.512  0.00  0.00    +0.000 HD
ENDBRANCH  14  17
ENDBRANCH   4  14
TORSDOF 5
ENDMDL
MODEL 5
REMARK VINA RESULT:      -7.4      2.854      8.414
REMARK  Name = 
REMARK  8 active torsions:
REMARK  status: ('A' for Active; 'I' for Inactive)
REMARK    1  A    between atoms: C_1  and  C_2
REMARK    2  A    between atoms: C_2  and  C_3
REMARK    3  A    between atoms: C_3  and  C_4
REMARK    4  A    between atoms: N_6  and  C_7
REMARK    5  A    between atoms: C_10  and  S_11
REMARK    6  A    between atoms: S_11  and  N_14
REMARK    7  A    between atoms: C_17  and  C_18
REMARK    8  A    between atoms: C_20  and  C_21
REMARK                            x       y       z     vdW  Elec       q    Type
REMARK                         _______ _______ _______ _____ _____    ______ ____
ROOT
ATOM      1  C   UNL     1       2.735   6.036  18.652  0.00  0.00    +0.000 A 
ATOM      2  C   UNL     1       2.239   5.726  19.924  0.00  0.00    +0.000 A 
ATOM      3  C   UNL     1       1.659   6.700  20.730  0.00  0.00    +0.000 A 
ATOM      4  C   UNL     1       1.580   8.013  20.275  0.00  0.00    +0.000 A 
ATOM      5  C   UNL     1       2.035   8.341  18.991  0.00  0.00    +0.000 A 
ATOM      6  C   UNL     1       2.633   7.357  18.192  0.00  0.00    +0.000 A 
ENDROOT
BRANCH   1   9
ATOM      7  C   UNL     1       4.726   4.965  17.615  0.00  0.00    +0.000 C 
ATOM      8  O   UNL     1       5.600   5.603  18.196  0.00  0.00    +0.000 OA
ATOM      9  N   UNL     1       3.355   5.070  17.829  0.00  0.00    +0.000 N 
ATOM     10  H   UNL     1       2.764   4.354  17.430  0.00  0.00    +0.000 HD
BRANCH   7  11
ATOM     11  C   UNL     1       5.119   3.938  16.576  0.00  0.00    +0.000 C 
BRANCH  11  13
ATOM     12  C   UNL     1       6.282   4.073  14.318  0.00  0.00    +0.000 C 
ATOM     13  C   UNL     1       6.392   4.302  15.820  0.00  0.00    +0.000 C 
ENDBRANCH  11  13
ENDBRANCH   7  11
ENDBRANCH   1   9
BRANCH   4  14
ATOM     14  S   UNL     1       0.866   9.252  21.341  0.00  0.00    +0.000 S 
ATOM     15  O   UNL     1      -0.522   8.907  21.563  0.00  0.00    +0.000 OA
ATOM     16  O   UNL     1       1.776   9.426  22.457  0.00  0.00    +0.000 OA
BRANCH  14  17
ATOM     17  N   UNL     1       0.952  10.679  20.437  0.00  0.00    +0.000 N 
ATOM     18  C   UNL     1      -0.271  11.093  19.870  0.00  0.00    +0.000 A 
ATOM     19  C   UNL     1      -1.124  11.903  20.578  0.00  0.00    +0.000 A 
ATOM     20  C   UNL     1      -2.340  12.141  19.982  0.00  0.00    +0.000 A 
ATOM     21  C   UNL     1      -3.371  13.008  20.637  0.00  0.00    +0.000 C 
ATOM     22  N   UNL     1      -2.678  11.589  18.798  0.00  0.00    +0.000 NA
ATOM     23  C   UNL     1      -1.763  10.811  18.190  0.00  0.00    +0.000 A 
ATOM     24  C   UNL     1      -2.165  10.145  16.912  0.00  0.00    +0.000 C 
ATOM     25  N   UNL     1      -0.538  10.551  18.679  0.00  0.00    +0.000 NA
ATOM     26  H   UNL     1       1.702  10.617  19.750  0.00  0.00    +0.000 HD
ENDBRANCH  14  17
ENDBRANCH   4  14
TORSDOF 5
ENDMDL
MODEL 6
REMARK VINA RESULT:      -7.1      2.364      3.465
REMARK  Name = 
REMARK  8 active torsions:
REMARK  status: ('A' for Active; 'I' for Inactive)
REMARK    1  A    between atoms: C_1  and  C_2
REMARK    2  A    between atoms: C_2  and  C_3
REMARK    3  A    between atoms: C_3  and  C_4
REMARK    4  A    between atoms: N_6  and  C_7
REMARK    5  A    between atoms: C_10  and  S_11
REMARK    6  A    between atoms: S_11  and  N_14
REMARK    7  A    between atoms: C_17  and  C_18
REMARK    8  A    between atoms: C_20  and  C_21
REMARK                            x       y       z     vdW  Elec       q    Type
REMARK                         _______ _______ _______ _____ _____    ______ ____
ROOT
ATOM      1  C   UNL     1       0.511   9.555  20.685  0.00  0.00    +0.000 A 
ATOM      2  C   UNL     1       0.900   8.399  21.373  0.00  0.00    +0.000 A 
ATOM      3  C   UNL     1       1.665   7.415  20.755  0.00  0.00    +0.000 A 
ATOM      4  C   UNL     1       2.041   7.568  19.423  0.00  0.00    +0.000 A 
ATOM      5  C   UNL     1       1.695   8.733  18.725  0.00  0.00    +0.000 A 
ATOM      6  C   UNL     1       0.911   9.712  19.350  0.00  0.00    +0.000 A 
ENDROOT
BRANCH   1   9
ATOM      7  C   UNL     1       0.150  11.821  21.645  0.00  0.00    +0.000 C 
ATOM      8  O   UNL     1       1.250  12.304  21.391  0.00  0.00    +0.000 OA
ATOM      9  N   UNL     1      -0.292  10.552  21.282  0.00  0.00    +0.000 N 
ATOM     10  H   UNL     1      -1.278  10.355  21.380  0.00  0.00    +0.000 HD
BRANCH   7  11
ATOM     11  C   UNL     1      -0.870  12.644  22.399  0.00  0.00    +0.000 C 
BRANCH  11  13
ATOM     12  C   UNL     1      -3.288  12.636  23.188  0.00  0.00    +0.000 C 
ATOM     13  C   UNL     1      -2.027  11.816  22.947  0.00  0.00    +0.000 C 
ENDBRANCH  11  13
ENDBRANCH   7  11
ENDBRANCH   1   9
BRANCH   4  14
ATOM     14  S   UNL     1       2.989   6.275  18.642  0.00  0.00    +0.000 S 
ATOM     15  O   UNL     1       3.703   5.557  19.675  0.00  0.00    +0.000 OA
ATOM     16  O   UNL     1       2.094   5.582  17.736  0.00  0.00    +0.000 OA
BRANCH  14  17
ATOM     17  N   UNL     1       4.096   7.104  17.667  0.00  0.00    +0.000 N 
ATOM     18  C   UNL     1       5.203   6.337  17.249  0.00  0.00    +0.000 A 
ATOM     19  C   UNL     1       5.138   5.596  16.094  0.00  0.00    +0.000 A 
ATOM     20  C   UNL     1       6.224   4.790  15.849  0.00  0.00    +0.000 A 
ATOM     21  C   UNL     1       6.294   3.928  14.627  0.00  0.00    +0.000 C 
ATOM     22  N   UNL     1       7.266   4.713  16.704  0.00  0.00    +0.000 NA
ATOM     23  C   UNL     1       7.225   5.484  17.806  0.00  0.00    +0.000 A 
ATOM     24  C   UNL     1       8.348   5.345  18.786  0.00  0.00    +0.000 C 
ATOM     25  N   UNL     1       6.224   6.327  18.110  0.00  0.00    +0.000 NA
ATOM     26  H   UNL     1       4.369   7.979  18.108  0.00  0.00    +0.000 HD
ENDBRANCH  14  17
ENDBRANCH   4  14
TORSDOF 5
ENDMDL
MODEL 7
REMARK VINA RESULT:      -7.1      3.173      8.596
REMARK  Name = 
REMARK  8 active torsions:
REMARK  status: ('A' for Active; 'I' for Inactive)
REMARK    1  A    between atoms: C_1  and  C_2
REMARK    2  A    between atoms: C_2  and  C_3
REMARK    3  A    between atoms: C_3  and  C_4
REMARK    4  A    between atoms: N_6  and  C_7
REMARK    5  A    between atoms: C_10  and  S_11
REMARK    6  A    between atoms: S_11  and  N_14
REMARK    7  A    between atoms: C_17  and  C_18
REMARK    8  A    between atoms: C_20  and  C_21
REMARK                            x       y       z     vdW  Elec       q    Type
REMARK                         _______ _______ _______ _____ _____    ______ ____
ROOT
ATOM      1  C   UNL     1       3.034   6.785  18.472  0.00  0.00    +0.000 A 
ATOM      2  C   UNL     1       2.617   6.494  19.776  0.00  0.00    +0.000 A 
ATOM      3  C   UNL     1       1.825   7.384  20.496  0.00  0.00    +0.000 A 
ATOM      4  C   UNL     1       1.449   8.594  19.919  0.00  0.00    +0.000 A 
ATOM      5  C   UNL     1       1.823   8.890  18.601  0.00  0.00    +0.000 A 
ATOM      6  C   UNL     1       2.634   7.996  17.890  0.00  0.00    +0.000 A 
ENDROOT
BRANCH   1   9
ATOM      7  C   UNL     1       3.516   4.621  17.343  0.00  0.00    +0.000 C 
ATOM      8  O   UNL     1       2.411   4.101  17.464  0.00  0.00    +0.000 OA
ATOM      9  N   UNL     1       3.863   5.911  17.734  0.00  0.00    +0.000 N 
ATOM     10  H   UNL     1       4.742   6.280  17.400  0.00  0.00    +0.000 HD
BRANCH   7  11
ATOM     11  C   UNL     1       4.638   3.844  16.690  0.00  0.00    +0.000 C 
BRANCH  11  13
ATOM     12  C   UNL     1       6.672   4.195  15.203  0.00  0.00    +0.000 C 
ATOM     13  C   UNL     1       5.207   4.531  15.453  0.00  0.00    +0.000 C 
ENDBRANCH  11  13
ENDBRANCH   7  11
ENDBRANCH   1   9
BRANCH   4  14
ATOM     14  S   UNL     1       0.466   9.734  20.875  0.00  0.00    +0.000 S 
ATOM     15  O   UNL     1      -0.846   9.151  21.057  0.00  0.00    +0.000 OA
ATOM     16  O   UNL     1       1.268  10.133  22.015  0.00  0.00    +0.000 OA
BRANCH  14  17
ATOM     17  N   UNL     1       0.339  11.102  19.887  0.00  0.00    +0.000 N 
ATOM     18  C   UNL     1      -0.953  11.346  19.380  0.00  0.00    +0.000 A 
ATOM     19  C   UNL     1      -1.848  12.103  20.096  0.00  0.00    +0.000 A 
ATOM     20  C   UNL     1      -3.116  12.171  19.570  0.00  0.00    +0.000 A 
ATOM     21  C   UNL     1      -4.196  12.962  20.241  0.00  0.00    +0.000 C 
ATOM     22  N   UNL     1      -3.461  11.513  18.443  0.00  0.00    +0.000 NA
ATOM     23  C   UNL     1      -2.503  10.801  17.821  0.00  0.00    +0.000 A 
ATOM     24  C   UNL     1      -2.903  10.016  16.612  0.00  0.00    +0.000 C 
ATOM     25  N   UNL     1      -1.230  10.705  18.242  0.00  0.00    +0.000 NA
ATOM     26  H   UNL     1       1.049  11.078  19.158  0.00  0.00    +0.000 HD
ENDBRANCH  14  17
ENDBRANCH   4  14
TORSDOF 5
ENDMDL
MODEL 8
REMARK VINA RESULT:      -7.1      3.172      8.508
REMARK  Name = 
REMARK  8 active torsions:
REMARK  status: ('A' for Active; 'I' for Inactive)
REMARK    1  A    between atoms: C_1  and  C_2
REMARK    2  A    between atoms: C_2  and  C_3
REMARK    3  A    between atoms: C_3  and  C_4
REMARK    4  A    between atoms: N_6  and  C_7
REMARK    5  A    between atoms: C_10  and  S_11
REMARK    6  A    between atoms: S_11  and  N_14
REMARK    7  A    between atoms: C_17  and  C_18
REMARK    8  A    between atoms: C_20  and  C_21
REMARK                            x       y       z     vdW  Elec       q    Type
REMARK                         _______ _______ _______ _____ _____    ______ ____
ROOT
ATOM      1  C   UNL     1       2.694   6.579  18.688  0.00  0.00    +0.000 A 
ATOM      2  C   UNL     1       2.430   7.833  18.123  0.00  0.00    +0.000 A 
ATOM      3  C   UNL     1       1.777   8.827  18.845  0.00  0.00    +0.000 A 
ATOM      4  C   UNL     1       1.361   8.572  20.148  0.00  0.00    +0.000 A 
ATOM      5  C   UNL     1       1.646   7.337  20.748  0.00  0.00    +0.000 A 
ATOM      6  C   UNL     1       2.290   6.336  20.009  0.00  0.00    +0.000 A 
ENDROOT
BRANCH   1   9
ATOM      7  C   UNL     1       2.694   4.408  17.474  0.00  0.00    +0.000 C 
ATOM      8  O   UNL     1       1.486   4.192  17.485  0.00  0.00    +0.000 OA
ATOM      9  N   UNL     1       3.328   5.546  17.964  0.00  0.00    +0.000 N 
ATOM     10  H   UNL     1       4.299   5.683  17.717  0.00  0.00    +0.000 HD
BRANCH   7  11
ATOM     11  C   UNL     1       3.628   3.388  16.862  0.00  0.00    +0.000 C 
BRANCH  11  13
ATOM     12  C   UNL     1       5.428   4.265  15.293  0.00  0.00    +0.000 C 
ATOM     13  C   UNL     1       5.061   3.890  16.724  0.00  0.00    +0.000 C 
ENDBRANCH  11  13
ENDBRANCH   7  11
ENDBRANCH   1   9
BRANCH   4  14
ATOM     14  S   UNL     1       0.491   9.848  21.040  0.00  0.00    +0.000 S 
ATOM     15  O   UNL     1      -0.832   9.353  21.354  0.00  0.00    +0.000 OA
ATOM     16  O   UNL     1       1.379  10.313  22.088  0.00  0.00    +0.000 OA
BRANCH  14  17
ATOM     17  N   UNL     1       0.366  11.119  19.931  0.00  0.00    +0.000 N 
ATOM     18  C   UNL     1      -0.945  11.387  19.487  0.00  0.00    +0.000 A 
ATOM     19  C   UNL     1      -1.747  12.261  20.180  0.00  0.00    +0.000 A 
ATOM     20  C   UNL     1      -3.044  12.351  19.733  0.00  0.00    +0.000 A 
ATOM     21  C   UNL     1      -4.032  13.265  20.390  0.00  0.00    +0.000 C 
ATOM     22  N   UNL     1      -3.500  11.609  18.702  0.00  0.00    +0.000 NA
ATOM     23  C   UNL     1      -2.626  10.785  18.094  0.00  0.00    +0.000 A 
ATOM     24  C   UNL     1      -3.151   9.911  16.998  0.00  0.00    +0.000 C 
ATOM     25  N   UNL     1      -1.334  10.656  18.439  0.00  0.00    +0.000 NA
ATOM     26  H   UNL     1       1.020  10.983  19.163  0.00  0.00    +0.000 HD
ENDBRANCH  14  17
ENDBRANCH   4  14
TORSDOF 5
ENDMDL
MODEL 9
REMARK VINA RESULT:      -7.1      3.043      8.347
REMARK  Name = 
REMARK  8 active torsions:
REMARK  status: ('A' for Active; 'I' for Inactive)
REMARK    1  A    between atoms: C_1  and  C_2
REMARK    2  A    between atoms: C_2  and  C_3
REMARK    3  A    between atoms: C_3  and  C_4
REMARK    4  A    between atoms: N_6  and  C_7
REMARK    5  A    between atoms: C_10  and  S_11
REMARK    6  A    between atoms: S_11  and  N_14
REMARK    7  A    between atoms: C_17  and  C_18
REMARK    8  A    between atoms: C_20  and  C_21
REMARK                            x       y       z     vdW  Elec       q    Type
REMARK                         _______ _______ _______ _____ _____    ______ ____
ROOT
ATOM      1  C   UNL     1       2.533   6.028  19.047  0.00  0.00    +0.000 A 
ATOM      2  C   UNL     1       1.966   5.834  20.312  0.00  0.00    +0.000 A 
ATOM      3  C   UNL     1       1.413   6.894  21.025  0.00  0.00    +0.000 A 
ATOM      4  C   UNL     1       1.435   8.175  20.482  0.00  0.00    +0.000 A 
ATOM      5  C   UNL     1       1.963   8.387  19.201  0.00  0.00    +0.000 A 
ATOM      6  C   UNL     1       2.532   7.318  18.497  0.00  0.00    +0.000 A 
ENDROOT
BRANCH   1   9
ATOM      7  C   UNL     1       2.430   3.946  17.688  0.00  0.00    +0.000 C 
ATOM      8  O   UNL     1       1.211   3.871  17.561  0.00  0.00    +0.000 OA
ATOM      9  N   UNL     1       3.127   4.973  18.319  0.00  0.00    +0.000 N 
ATOM     10  H   UNL     1       4.127   5.012  18.181  0.00  0.00    +0.000 HD
BRANCH   7  11
ATOM     11  C   UNL     1       3.309   2.864  17.102  0.00  0.00    +0.000 C 
BRANCH  11  13
ATOM     12  C   UNL     1       3.982   2.086  19.429  0.00  0.00    +0.000 C 
ATOM     13  C   UNL     1       3.509   1.678  18.039  0.00  0.00    +0.000 C 
ENDBRANCH  11  13
ENDBRANCH   7  11
ENDBRANCH   1   9
BRANCH   4  14
ATOM     14  S   UNL     1       0.755   9.524  21.431  0.00  0.00    +0.000 S 
ATOM     15  O   UNL     1      -0.626   9.211  21.728  0.00  0.00    +0.000 OA
ATOM     16  O   UNL     1       1.698   9.812  22.494  0.00  0.00    +0.000 OA
BRANCH  14  17
ATOM     17  N   UNL     1       0.817  10.846  20.377  0.00  0.00    +0.000 N 
ATOM     18  C   UNL     1      -0.423  11.208  19.811  0.00  0.00    +0.000 A 
ATOM     19  C   UNL     1      -1.247  12.096  20.458  0.00  0.00    +0.000 A 
ATOM     20  C   UNL     1      -2.482  12.279  19.882  0.00  0.00    +0.000 A 
ATOM     21  C   UNL     1      -3.486  13.220  20.475  0.00  0.00    +0.000 C 
ATOM     22  N   UNL     1      -2.863  11.608  18.774  0.00  0.00    +0.000 NA
ATOM     23  C   UNL     1      -1.973  10.763  18.222  0.00  0.00    +0.000 A 
ATOM     24  C   UNL     1      -2.422   9.968  17.036  0.00  0.00    +0.000 C 
ATOM     25  N   UNL     1      -0.734  10.546  18.694  0.00  0.00    +0.000 NA
ATOM     26  H   UNL     1       1.542  10.706  19.676  0.00  0.00    +0.000 HD
ENDBRANCH  14  17
ENDBRANCH   4  14
TORSDOF 5
ENDMDL
