MODEL 1
REMARK VINA RESULT:      -9.2      0.000      0.000
REMARK  Name = 
REMARK  5 active torsions:
REMARK  status: ('A' for Active; 'I' for Inactive)
REMARK    1  A    between atoms: C_2  and  O_3
REMARK    2  A    between atoms: C_2  and  C_10
REMARK    3  A    between atoms: O_3  and  C_4
REMARK    4  A    between atoms: N_12  and  C_13
REMARK    5  A    between atoms: C_20  and  C_21
REMARK                            x       y       z     vdW  Elec       q    Type
REMARK                         _______ _______ _______ _____ _____    ______ ____
ROOT
ATOM      1  C   UNL     1       5.371   4.629  17.872  0.00  0.00    +0.000 A 
ATOM      2  C   UNL     1       6.064   4.075  16.812  0.00  0.00    +0.000 A 
ATOM      3  N   UNL     1       5.733   4.778  15.682  0.00  0.00    +0.000 N 
ATOM      4  N   UNL     1       4.856   5.768  15.965  0.00  0.00    +0.000 NA
ATOM      5  C   UNL     1       4.600   5.672  17.283  0.00  0.00    +0.000 A 
ENDROOT
BRANCH   5   6
ATOM      6  C   UNL     1       3.630   6.574  17.917  0.00  0.00    +0.000 A 
ATOM      7  C   UNL     1       3.025   6.246  19.139  0.00  0.00    +0.000 A 
ATOM      8  C   UNL     1       2.147   7.135  19.766  0.00  0.00    +0.000 A 
ATOM      9  C   UNL     1       1.844   8.351  19.161  0.00  0.00    +0.000 A 
ATOM     10 CL   UNL     1       0.788   9.456  19.949  0.00  0.00    +0.000 Cl
ATOM     11  C   UNL     1       2.394   8.675  17.924  0.00  0.00    +0.000 A 
ATOM     12  C   UNL     1       3.282   7.789  17.303  0.00  0.00    +0.000 A 
ENDBRANCH   5   6
BRANCH   3  13
ATOM     13  C   UNL     1       6.212   4.554  14.361  0.00  0.00    +0.000 A 
ATOM     14  C   UNL     1       5.575   3.638  13.506  0.00  0.00    +0.000 A 
ATOM     15  C   UNL     1       6.051   3.435  12.209  0.00  0.00    +0.000 A 
ATOM     16  C   UNL     1       7.163   4.139  11.754  0.00  0.00    +0.000 A 
ATOM     17  C   UNL     1       7.804   5.047  12.596  0.00  0.00    +0.000 A 
ATOM     18  C   UNL     1       7.331   5.257  13.896  0.00  0.00    +0.000 A 
ENDBRANCH   3  13
BRANCH   1  20
ATOM     19  O   UNL     1       6.075   4.855  20.126  0.00  0.00    +0.000 OA
ATOM     20  C   UNL     1       5.510   4.207  19.256  0.00  0.00    +0.000 C 
BRANCH  20  21
ATOM     21  O   UNL     1       4.923   2.952  19.449  0.00  0.00    +0.000 OA
BRANCH  21  22
ATOM     22  C   UNL     1       3.528   2.819  19.560  0.00  0.00    +0.000 A 
ATOM     23  C   UNL     1       2.964   3.100  20.804  0.00  0.00    +0.000 A 
ATOM     24  C   UNL     1       1.576   3.172  20.927  0.00  0.00    +0.000 A 
ATOM     25  C   UNL     1       0.766   2.972  19.808  0.00  0.00    +0.000 A 
ATOM     26  C   UNL     1       1.339   2.681  18.568  0.00  0.00    +0.000 A 
ATOM     27  C   UNL     1       2.726   2.605  18.440  0.00  0.00    +0.000 A 
ENDBRANCH  21  22
ENDBRANCH  20  21
ENDBRANCH   1  20
TORSDOF 5
ENDMDL
MODEL 2
REMARK VINA RESULT:      -9.1      0.082      1.317
REMARK  Name = 
REMARK  5 active torsions:
REMARK  status: ('A' for Active; 'I' for Inactive)
REMARK    1  A    between atoms: C_2  and  O_3
REMARK    2  A    between atoms: C_2  and  C_10
REMARK    3  A    between atoms: O_3  and  C_4
REMARK    4  A    between atoms: N_12  and  C_13
REMARK    5  A    between atoms: C_20  and  C_21
REMARK                            x       y       z     vdW  Elec       q    Type
REMARK                         _______ _______ _______ _____ _____    ______ ____
ROOT
ATOM      1  C   UNL     1       5.351   4.616  17.855  0.00  0.00    +0.000 A 
ATOM      2  C   UNL     1       6.018   4.044  16.788  0.00  0.00    +0.000 A 
ATOM      3  N   UNL     1       5.707   4.764  15.664  0.00  0.00    +0.000 N 
ATOM      4  N   UNL     1       4.868   5.784  15.957  0.00  0.00    +0.000 NA
ATOM      5  C   UNL     1       4.615   5.690  17.276  0.00  0.00    +0.000 A 
ENDROOT
BRANCH   5   6
ATOM      6  C   UNL     1       3.682   6.623  17.919  0.00  0.00    +0.000 A 
ATOM      7  C   UNL     1       3.370   7.857  17.330  0.00  0.00    +0.000 A 
ATOM      8  C   UNL     1       2.436   8.717  17.918  0.00  0.00    +0.000 A 
ATOM      9  C   UNL     1       1.826   8.360  19.116  0.00  0.00    +0.000 A 
ATOM     10 CL   UNL     1       0.655   9.404  19.821  0.00  0.00    +0.000 Cl
ATOM     11  C   UNL     1       2.159   7.163  19.744  0.00  0.00    +0.000 A 
ATOM     12  C   UNL     1       3.085   6.299  19.149  0.00  0.00    +0.000 A 
ENDBRANCH   5   6
BRANCH   3  13
ATOM     13  C   UNL     1       6.171   4.531  14.339  0.00  0.00    +0.000 A 
ATOM     14  C   UNL     1       7.309   5.191  13.845  0.00  0.00    +0.000 A 
ATOM     15  C   UNL     1       7.759   4.947  12.546  0.00  0.00    +0.000 A 
ATOM     16  C   UNL     1       7.078   4.048  11.728  0.00  0.00    +0.000 A 
ATOM     17  C   UNL     1       5.944   3.393  12.207  0.00  0.00    +0.000 A 
ATOM     18  C   UNL     1       5.491   3.630  13.509  0.00  0.00    +0.000 A 
ENDBRANCH   3  13
BRANCH   1  20
ATOM     19  O   UNL     1       6.058   4.813  20.110  0.00  0.00    +0.000 OA
ATOM     20  C   UNL     1       5.481   4.181  19.235  0.00  0.00    +0.000 C 
BRANCH  20  21
ATOM     21  O   UNL     1       4.870   2.936  19.419  0.00  0.00    +0.000 OA
BRANCH  21  22
ATOM     22  C   UNL     1       3.475   2.831  19.552  0.00  0.00    +0.000 A 
ATOM     23  C   UNL     1       2.939   3.099  20.812  0.00  0.00    +0.000 A 
ATOM     24  C   UNL     1       1.556   3.199  20.961  0.00  0.00    +0.000 A 
ATOM     25  C   UNL     1       0.722   3.039  19.853  0.00  0.00    +0.000 A 
ATOM     26  C   UNL     1       1.267   2.761  18.598  0.00  0.00    +0.000 A 
ATOM     27  C   UNL     1       2.649   2.658  18.443  0.00  0.00    +0.000 A 
ENDBRANCH  21  22
ENDBRANCH  20  21
ENDBRANCH   1  20
TORSDOF 5
ENDMDL
MODEL 3
REMARK VINA RESULT:      -8.2      3.493      7.033
REMARK  Name = 
REMARK  5 active torsions:
REMARK  status: ('A' for Active; 'I' for Inactive)
REMARK    1  A    between atoms: C_2  and  O_3
REMARK    2  A    between atoms: C_2  and  C_10
REMARK    3  A    between atoms: O_3  and  C_4
REMARK    4  A    between atoms: N_12  and  C_13
REMARK    5  A    between atoms: C_20  and  C_21
REMARK                            x       y       z     vdW  Elec       q    Type
REMARK                         _______ _______ _______ _____ _____    ______ ____
ROOT
ATOM      1  C   UNL     1       1.804   5.894  20.713  0.00  0.00    +0.000 A 
ATOM      2  C   UNL     1       0.955   6.847  21.244  0.00  0.00    +0.000 A 
ATOM      3  N   UNL     1       1.216   8.037  20.616  0.00  0.00    +0.000 N 
ATOM      4  N   UNL     1       2.198   7.897  19.697  0.00  0.00    +0.000 NA
ATOM      5  C   UNL     1       2.589   6.611  19.764  0.00  0.00    +0.000 A 
ENDROOT
BRANCH   5   6
ATOM      6  C   UNL     1       3.694   6.129  18.927  0.00  0.00    +0.000 A 
ATOM      7  C   UNL     1       4.676   5.271  19.446  0.00  0.00    +0.000 A 
ATOM      8  C   UNL     1       5.693   4.768  18.629  0.00  0.00    +0.000 A 
ATOM      9  C   UNL     1       5.753   5.141  17.290  0.00  0.00    +0.000 A 
ATOM     10 CL   UNL     1       6.987   4.497  16.279  0.00  0.00    +0.000 Cl
ATOM     11  C   UNL     1       4.819   6.032  16.767  0.00  0.00    +0.000 A 
ATOM     12  C   UNL     1       3.794   6.525  17.583  0.00  0.00    +0.000 A 
ENDBRANCH   5   6
BRANCH   3  13
ATOM     13  C   UNL     1       0.576   9.288  20.847  0.00  0.00    +0.000 A 
ATOM     14  C   UNL     1       0.137   9.649  22.132  0.00  0.00    +0.000 A 
ATOM     15  C   UNL     1      -0.482  10.883  22.345  0.00  0.00    +0.000 A 
ATOM     16  C   UNL     1      -0.669  11.765  21.282  0.00  0.00    +0.000 A 
ATOM     17  C   UNL     1      -0.241  11.412  20.003  0.00  0.00    +0.000 A 
ATOM     18  C   UNL     1       0.382  10.179  19.784  0.00  0.00    +0.000 A 
ENDBRANCH   3  13
BRANCH   1  20
ATOM     19  O   UNL     1       2.287   4.019  22.082  0.00  0.00    +0.000 OA
ATOM     20  C   UNL     1       1.785   4.486  21.069  0.00  0.00    +0.000 C 
BRANCH  20  21
ATOM     21  O   UNL     1       1.130   3.738  20.084  0.00  0.00    +0.000 OA
BRANCH  21  22
ATOM     22  C   UNL     1       1.858   3.055  19.095  0.00  0.00    +0.000 A 
ATOM     23  C   UNL     1       1.774   3.550  17.794  0.00  0.00    +0.000 A 
ATOM     24  C   UNL     1       2.618   3.036  16.809  0.00  0.00    +0.000 A 
ATOM     25  C   UNL     1       3.543   2.042  17.133  0.00  0.00    +0.000 A 
ATOM     26  C   UNL     1       3.613   1.545  18.436  0.00  0.00    +0.000 A 
ATOM     27  C   UNL     1       2.770   2.053  19.424  0.00  0.00    +0.000 A 
ENDBRANCH  21  22
ENDBRANCH  20  21
ENDBRANCH   1  20
TORSDOF 5
ENDMDL
MODEL 4
REMARK VINA RESULT:      -7.9      3.456      6.975
REMARK  Name = 
REMARK  5 active torsions:
REMARK  status: ('A' for Active; 'I' for Inactive)
REMARK    1  A    between atoms: C_2  and  O_3
REMARK    2  A    between atoms: C_2  and  C_10
REMARK    3  A    between atoms: O_3  and  C_4
REMARK    4  A    between atoms: N_12  and  C_13
REMARK    5  A    between atoms: C_20  and  C_21
REMARK                            x       y       z     vdW  Elec       q    Type
REMARK                         _______ _______ _______ _____ _____    ______ ____
ROOT
ATOM      1  C   UNL     1       1.775   6.141  20.450  0.00  0.00    +0.000 A 
ATOM      2  C   UNL     1       0.910   7.131  20.877  0.00  0.00    +0.000 A 
ATOM      3  N   UNL     1       1.194   8.270  20.169  0.00  0.00    +0.000 N 
ATOM      4  N   UNL     1       2.205   8.060  19.296  0.00  0.00    +0.000 NA
ATOM      5  C   UNL     1       2.592   6.783  19.475  0.00  0.00    +0.000 A 
ENDROOT
BRANCH   5   6
ATOM      6  C   UNL     1       3.724   6.239  18.715  0.00  0.00    +0.000 A 
ATOM      7  C   UNL     1       3.909   6.560  17.362  0.00  0.00    +0.000 A 
ATOM      8  C   UNL     1       5.020   6.086  16.658  0.00  0.00    +0.000 A 
ATOM      9  C   UNL     1       5.944   5.263  17.295  0.00  0.00    +0.000 A 
ATOM     10 CL   UNL     1       7.326   4.707  16.437  0.00  0.00    +0.000 Cl
ATOM     11  C   UNL     1       5.752   4.891  18.624  0.00  0.00    +0.000 A 
ATOM     12  C   UNL     1       4.645   5.376  19.330  0.00  0.00    +0.000 A 
ENDBRANCH   5   6
BRANCH   3  13
ATOM     13  C   UNL     1       0.549   9.534  20.281  0.00  0.00    +0.000 A 
ATOM     14  C   UNL     1       0.388  10.155  21.532  0.00  0.00    +0.000 A 
ATOM     15  C   UNL     1      -0.239  11.399  21.626  0.00  0.00    +0.000 A 
ATOM     16  C   UNL     1      -0.712  12.033  20.479  0.00  0.00    +0.000 A 
ATOM     17  C   UNL     1      -0.561  11.422  19.235  0.00  0.00    +0.000 A 
ATOM     18  C   UNL     1       0.069  10.177  19.133  0.00  0.00    +0.000 A 
ENDBRANCH   3  13
BRANCH   1  20
ATOM     19  O   UNL     1       2.218   4.375  21.970  0.00  0.00    +0.000 OA
ATOM     20  C   UNL     1       1.742   4.764  20.912  0.00  0.00    +0.000 C 
BRANCH  20  21
ATOM     21  O   UNL     1       1.107   3.944  19.972  0.00  0.00    +0.000 OA
BRANCH  21  22
ATOM     22  C   UNL     1       1.855   3.182  19.059  0.00  0.00    +0.000 A 
ATOM     23  C   UNL     1       1.846   3.604  17.729  0.00  0.00    +0.000 A 
ATOM     24  C   UNL     1       2.715   3.009  16.815  0.00  0.00    +0.000 A 
ATOM     25  C   UNL     1       3.591   2.006  17.237  0.00  0.00    +0.000 A 
ATOM     26  C   UNL     1       3.586   1.584  18.568  0.00  0.00    +0.000 A 
ATOM     27  C   UNL     1       2.717   2.174  19.486  0.00  0.00    +0.000 A 
ENDBRANCH  21  22
ENDBRANCH  20  21
ENDBRANCH   1  20
TORSDOF 5
ENDMDL
MODEL 5
REMARK VINA RESULT:      -7.9      2.540      5.890
REMARK  Name = 
REMARK  5 active torsions:
REMARK  status: ('A' for Active; 'I' for Inactive)
REMARK    1  A    between atoms: C_2  and  O_3
REMARK    2  A    between atoms: C_2  and  C_10
REMARK    3  A    between atoms: O_3  and  C_4
REMARK    4  A    between atoms: N_12  and  C_13
REMARK    5  A    between atoms: C_20  and  C_21
REMARK                            x       y       z     vdW  Elec       q    Type
REMARK                         _______ _______ _______ _____ _____    ______ ____
ROOT
ATOM      1  C   UNL     1       4.557   5.366  18.723  0.00  0.00    +0.000 A 
ATOM      2  C   UNL     1       3.693   6.189  19.422  0.00  0.00    +0.000 A 
ATOM      3  N   UNL     1       3.104   7.039  18.522  0.00  0.00    +0.000 N 
ATOM      4  N   UNL     1       3.547   6.801  17.266  0.00  0.00    +0.000 NA
ATOM      5  C   UNL     1       4.454   5.811  17.374  0.00  0.00    +0.000 A 
ENDROOT
BRANCH   5   6
ATOM      6  C   UNL     1       5.181   5.342  16.188  0.00  0.00    +0.000 A 
ATOM      7  C   UNL     1       4.600   4.428  15.296  0.00  0.00    +0.000 A 
ATOM      8  C   UNL     1       5.274   4.030  14.137  0.00  0.00    +0.000 A 
ATOM      9  C   UNL     1       6.549   4.521  13.875  0.00  0.00    +0.000 A 
ATOM     10 CL   UNL     1       7.364   4.054  12.434  0.00  0.00    +0.000 Cl
ATOM     11  C   UNL     1       7.164   5.390  14.773  0.00  0.00    +0.000 A 
ATOM     12  C   UNL     1       6.484   5.797  15.926  0.00  0.00    +0.000 A 
ENDBRANCH   5   6
BRANCH   3  13
ATOM     13  C   UNL     1       2.145   8.053  18.799  0.00  0.00    +0.000 A 
ATOM     14  C   UNL     1       1.655   8.248  20.102  0.00  0.00    +0.000 A 
ATOM     15  C   UNL     1       0.720   9.252  20.362  0.00  0.00    +0.000 A 
ATOM     16  C   UNL     1       0.266  10.069  19.329  0.00  0.00    +0.000 A 
ATOM     17  C   UNL     1       0.743   9.880  18.032  0.00  0.00    +0.000 A 
ATOM     18  C   UNL     1       1.682   8.878  17.766  0.00  0.00    +0.000 A 
ENDBRANCH   3  13
BRANCH   1  20
ATOM     19  O   UNL     1       6.346   4.422  19.961  0.00  0.00    +0.000 OA
ATOM     20  C   UNL     1       5.317   4.279  19.315  0.00  0.00    +0.000 C 
BRANCH  20  21
ATOM     21  O   UNL     1       4.717   3.047  19.030  0.00  0.00    +0.000 OA
BRANCH  21  22
ATOM     22  C   UNL     1       3.359   2.825  19.313  0.00  0.00    +0.000 A 
ATOM     23  C   UNL     1       2.980   2.855  20.656  0.00  0.00    +0.000 A 
ATOM     24  C   UNL     1       1.626   2.833  20.987  0.00  0.00    +0.000 A 
ATOM     25  C   UNL     1       0.662   2.790  19.977  0.00  0.00    +0.000 A 
ATOM     26  C   UNL     1       1.051   2.750  18.636  0.00  0.00    +0.000 A 
ATOM     27  C   UNL     1       2.404   2.770  18.300  0.00  0.00    +0.000 A 
ENDBRANCH  21  22
ENDBRANCH  20  21
ENDBRANCH   1  20
TORSDOF 5
ENDMDL
MODEL 6
REMARK VINA RESULT:      -7.9      2.567      5.893
REMARK  Name = 
REMARK  5 active torsions:
REMARK  status: ('A' for Active; 'I' for Inactive)
REMARK    1  A    between atoms: C_2  and  O_3
REMARK    2  A    between atoms: C_2  and  C_10
REMARK    3  A    between atoms: O_3  and  C_4
REMARK    4  A    between atoms: N_12  and  C_13
REMARK    5  A    between atoms: C_20  and  C_21
REMARK                            x       y       z     vdW  Elec       q    Type
REMARK                         _______ _______ _______ _____ _____    ______ ____
ROOT
ATOM      1  C   UNL     1       4.949   5.321  18.512  0.00  0.00    +0.000 A 
ATOM      2  C   UNL     1       4.108   6.124  19.261  0.00  0.00    +0.000 A 
ATOM      3  N   UNL     1       3.380   6.893  18.391  0.00  0.00    +0.000 N 
ATOM      4  N   UNL     1       3.709   6.621  17.108  0.00  0.00    +0.000 NA
ATOM      5  C   UNL     1       4.682   5.692  17.163  0.00  0.00    +0.000 A 
ENDROOT
BRANCH   5   6
ATOM      6  C   UNL     1       5.315   5.209  15.930  0.00  0.00    +0.000 A 
ATOM      7  C   UNL     1       4.632   4.357  15.050  0.00  0.00    +0.000 A 
ATOM      8  C   UNL     1       5.217   3.947  13.848  0.00  0.00    +0.000 A 
ATOM      9  C   UNL     1       6.506   4.364  13.529  0.00  0.00    +0.000 A 
ATOM     10 CL   UNL     1       7.212   3.884  12.036  0.00  0.00    +0.000 Cl
ATOM     11  C   UNL     1       7.221   5.169  14.411  0.00  0.00    +0.000 A 
ATOM     12  C   UNL     1       6.629   5.588  15.608  0.00  0.00    +0.000 A 
ENDBRANCH   5   6
BRANCH   3  13
ATOM     13  C   UNL     1       2.391   7.862  18.722  0.00  0.00    +0.000 A 
ATOM     14  C   UNL     1       1.900   8.754  17.754  0.00  0.00    +0.000 A 
ATOM     15  C   UNL     1       0.924   9.694  18.091  0.00  0.00    +0.000 A 
ATOM     16  C   UNL     1       0.432   9.755  19.393  0.00  0.00    +0.000 A 
ATOM     17  C   UNL     1       0.917   8.878  20.361  0.00  0.00    +0.000 A 
ATOM     18  C   UNL     1       1.892   7.931  20.029  0.00  0.00    +0.000 A 
ENDBRANCH   3  13
BRANCH   1  20
ATOM     19  O   UNL     1       7.031   4.233  18.838  0.00  0.00    +0.000 OA
ATOM     20  C   UNL     1       5.832   4.310  19.069  0.00  0.00    +0.000 C 
BRANCH  20  21
ATOM     21  O   UNL     1       5.117   3.430  19.889  0.00  0.00    +0.000 OA
BRANCH  21  22
ATOM     22  C   UNL     1       3.878   2.909  19.480  0.00  0.00    +0.000 A 
ATOM     23  C   UNL     1       2.806   3.066  20.359  0.00  0.00    +0.000 A 
ATOM     24  C   UNL     1       1.517   2.744  19.932  0.00  0.00    +0.000 A 
ATOM     25  C   UNL     1       1.309   2.279  18.632  0.00  0.00    +0.000 A 
ATOM     26  C   UNL     1       2.389   2.115  17.763  0.00  0.00    +0.000 A 
ATOM     27  C   UNL     1       3.680   2.433  18.185  0.00  0.00    +0.000 A 
ENDBRANCH  21  22
ENDBRANCH  20  21
ENDBRANCH   1  20
TORSDOF 5
ENDMDL
MODEL 7
REMARK VINA RESULT:      -7.8      4.446      6.105
REMARK  Name = 
REMARK  5 active torsions:
REMARK  status: ('A' for Active; 'I' for Inactive)
REMARK    1  A    between atoms: C_2  and  O_3
REMARK    2  A    between atoms: C_2  and  C_10
REMARK    3  A    between atoms: O_3  and  C_4
REMARK    4  A    between atoms: N_12  and  C_13
REMARK    5  A    between atoms: C_20  and  C_21
REMARK                            x       y       z     vdW  Elec       q    Type
REMARK                         _______ _______ _______ _____ _____    ______ ____
ROOT
ATOM      1  C   UNL     1       7.883   6.691  18.589  0.00  0.00    +0.000 A 
ATOM      2  C   UNL     1       8.442   7.853  19.091  0.00  0.00    +0.000 A 
ATOM      3  N   UNL     1       8.298   8.831  18.141  0.00  0.00    +0.000 N 
ATOM      4  N   UNL     1       7.666   8.354  17.044  0.00  0.00    +0.000 NA
ATOM      5  C   UNL     1       7.436   7.050  17.285  0.00  0.00    +0.000 A 
ENDROOT
BRANCH   5   6
ATOM      6  C   UNL     1       6.807   6.207  16.260  0.00  0.00    +0.000 A 
ATOM      7  C   UNL     1       5.543   6.522  15.738  0.00  0.00    +0.000 A 
ATOM      8  C   UNL     1       4.975   5.750  14.721  0.00  0.00    +0.000 A 
ATOM      9  C   UNL     1       5.654   4.637  14.235  0.00  0.00    +0.000 A 
ATOM     10 CL   UNL     1       4.967   3.707  12.962  0.00  0.00    +0.000 Cl
ATOM     11  C   UNL     1       6.886   4.277  14.775  0.00  0.00    +0.000 A 
ATOM     12  C   UNL     1       7.459   5.058  15.785  0.00  0.00    +0.000 A 
ENDBRANCH   5   6
BRANCH   3  13
ATOM     13  C   UNL     1       8.725  10.185  18.231  0.00  0.00    +0.000 A 
ATOM     14  C   UNL     1       8.095  11.194  17.482  0.00  0.00    +0.000 A 
ATOM     15  C   UNL     1       8.520  12.520  17.587  0.00  0.00    +0.000 A 
ATOM     16  C   UNL     1       9.575  12.852  18.434  0.00  0.00    +0.000 A 
ATOM     17  C   UNL     1      10.209  11.857  19.177  0.00  0.00    +0.000 A 
ATOM     18  C   UNL     1       9.786  10.527  19.080  0.00  0.00    +0.000 A 
ENDBRANCH   3  13
BRANCH   1  20
ATOM     19  O   UNL     1       8.640   4.582  19.366  0.00  0.00    +0.000 OA
ATOM     20  C   UNL     1       7.774   5.445  19.329  0.00  0.00    +0.000 C 
BRANCH  20  21
ATOM     21  O   UNL     1       6.536   5.364  19.976  0.00  0.00    +0.000 OA
BRANCH  21  22
ATOM     22  C   UNL     1       5.389   4.936  19.285  0.00  0.00    +0.000 A 
ATOM     23  C   UNL     1       4.301   5.809  19.268  0.00  0.00    +0.000 A 
ATOM     24  C   UNL     1       3.210   5.529  18.444  0.00  0.00    +0.000 A 
ATOM     25  C   UNL     1       3.220   4.387  17.640  0.00  0.00    +0.000 A 
ATOM     26  C   UNL     1       4.309   3.514  17.671  0.00  0.00    +0.000 A 
ATOM     27  C   UNL     1       5.401   3.788  18.494  0.00  0.00    +0.000 A 
ENDBRANCH  21  22
ENDBRANCH  20  21
ENDBRANCH   1  20
TORSDOF 5
ENDMDL
MODEL 8
REMARK VINA RESULT:      -7.7      2.546      5.963
REMARK  Name = 
REMARK  5 active torsions:
REMARK  status: ('A' for Active; 'I' for Inactive)
REMARK    1  A    between atoms: C_2  and  O_3
REMARK    2  A    between atoms: C_2  and  C_10
REMARK    3  A    between atoms: O_3  and  C_4
REMARK    4  A    between atoms: N_12  and  C_13
REMARK    5  A    between atoms: C_20  and  C_21
REMARK                            x       y       z     vdW  Elec       q    Type
REMARK                         _______ _______ _______ _____ _____    ______ ____
ROOT
ATOM      1  C   UNL     1       4.720   5.491  18.753  0.00  0.00    +0.000 A 
ATOM      2  C   UNL     1       3.849   6.314  19.443  0.00  0.00    +0.000 A 
ATOM      3  N   UNL     1       3.175   7.075  18.523  0.00  0.00    +0.000 N 
ATOM      4  N   UNL     1       3.570   6.778  17.264  0.00  0.00    +0.000 NA
ATOM      5  C   UNL     1       4.530   5.842  17.386  0.00  0.00    +0.000 A 
ENDROOT
BRANCH   5   6
ATOM      6  C   UNL     1       5.223   5.333  16.196  0.00  0.00    +0.000 A 
ATOM      7  C   UNL     1       4.609   4.407  15.340  0.00  0.00    +0.000 A 
ATOM      8  C   UNL     1       5.250   3.970  14.177  0.00  0.00    +0.000 A 
ATOM      9  C   UNL     1       6.526   4.435  13.874  0.00  0.00    +0.000 A 
ATOM     10 CL   UNL     1       7.301   3.921  12.428  0.00  0.00    +0.000 Cl
ATOM     11  C   UNL     1       7.175   5.316  14.737  0.00  0.00    +0.000 A 
ATOM     12  C   UNL     1       6.526   5.761  15.894  0.00  0.00    +0.000 A 
ENDBRANCH   5   6
BRANCH   3  13
ATOM     13  C   UNL     1       2.180   8.057  18.785  0.00  0.00    +0.000 A 
ATOM     14  C   UNL     1       1.657   8.851  17.750  0.00  0.00    +0.000 A 
ATOM     15  C   UNL     1       0.675   9.806  18.020  0.00  0.00    +0.000 A 
ATOM     16  C   UNL     1       0.207   9.980  19.321  0.00  0.00    +0.000 A 
ATOM     17  C   UNL     1       0.723   9.200  20.355  0.00  0.00    +0.000 A 
ATOM     18  C   UNL     1       1.705   8.240  20.091  0.00  0.00    +0.000 A 
ENDBRANCH   3  13
BRANCH   1  20
ATOM     19  O   UNL     1       6.657   4.703  19.873  0.00  0.00    +0.000 OA
ATOM     20  C   UNL     1       5.562   4.482  19.373  0.00  0.00    +0.000 C 
BRANCH  20  21
ATOM     21  O   UNL     1       4.956   3.222  19.301  0.00  0.00    +0.000 OA
BRANCH  21  22
ATOM     22  C   UNL     1       3.566   3.083  19.459  0.00  0.00    +0.000 A 
ATOM     23  C   UNL     1       2.827   2.795  18.311  0.00  0.00    +0.000 A 
ATOM     24  C   UNL     1       1.479   2.458  18.431  0.00  0.00    +0.000 A 
ATOM     25  C   UNL     1       0.884   2.402  19.693  0.00  0.00    +0.000 A 
ATOM     26  C   UNL     1       1.630   2.701  20.835  0.00  0.00    +0.000 A 
ATOM     27  C   UNL     1       2.977   3.042  20.721  0.00  0.00    +0.000 A 
ENDBRANCH  21  22
ENDBRANCH  20  21
ENDBRANCH   1  20
TORSDOF 5
ENDMDL
MODEL 9
REMARK VINA RESULT:      -7.6      2.928      3.596
REMARK  Name = 
REMARK  5 active torsions:
REMARK  status: ('A' for Active; 'I' for Inactive)
REMARK    1  A    between atoms: C_2  and  O_3
REMARK    2  A    between atoms: C_2  and  C_10
REMARK    3  A    between atoms: O_3  and  C_4
REMARK    4  A    between atoms: N_12  and  C_13
REMARK    5  A    between atoms: C_20  and  C_21
REMARK                            x       y       z     vdW  Elec       q    Type
REMARK                         _______ _______ _______ _____ _____    ______ ____
ROOT
ATOM      1  C   UNL     1       5.812   5.139  17.372  0.00  0.00    +0.000 A 
ATOM      2  C   UNL     1       5.493   4.363  16.273  0.00  0.00    +0.000 A 
ATOM      3  N   UNL     1       6.240   4.809  15.214  0.00  0.00    +0.000 N 
ATOM      4  N   UNL     1       7.034   5.841  15.579  0.00  0.00    +0.000 NA
ATOM      5  C   UNL     1       6.765   6.076  16.877  0.00  0.00    +0.000 A 
ENDROOT
BRANCH   5   6
ATOM      6  C   UNL     1       7.422   7.184  17.580  0.00  0.00    +0.000 A 
ATOM      7  C   UNL     1       8.220   6.954  18.710  0.00  0.00    +0.000 A 
ATOM      8  C   UNL     1       8.891   8.006  19.341  0.00  0.00    +0.000 A 
ATOM      9  C   UNL     1       8.747   9.304  18.863  0.00  0.00    +0.000 A 
ATOM     10 CL   UNL     1       9.598  10.592  19.621  0.00  0.00    +0.000 Cl
ATOM     11  C   UNL     1       7.919   9.562  17.773  0.00  0.00    +0.000 A 
ATOM     12  C   UNL     1       7.258   8.506  17.136  0.00  0.00    +0.000 A 
ENDBRANCH   5   6
BRANCH   3  13
ATOM     13  C   UNL     1       6.235   4.299  13.885  0.00  0.00    +0.000 A 
ATOM     14  C   UNL     1       7.339   4.485  13.035  0.00  0.00    +0.000 A 
ATOM     15  C   UNL     1       7.324   3.972  11.736  0.00  0.00    +0.000 A 
ATOM     16  C   UNL     1       6.211   3.275  11.273  0.00  0.00    +0.000 A 
ATOM     17  C   UNL     1       5.109   3.090  12.106  0.00  0.00    +0.000 A 
ATOM     18  C   UNL     1       5.119   3.598  13.410  0.00  0.00    +0.000 A 
ENDBRANCH   3  13
BRANCH   1  20
ATOM     19  O   UNL     1       5.816   4.241  19.567  0.00  0.00    +0.000 OA
ATOM     20  C   UNL     1       5.282   4.931  18.708  0.00  0.00    +0.000 C 
BRANCH  20  21
ATOM     21  O   UNL     1       4.072   5.613  18.871  0.00  0.00    +0.000 OA
BRANCH  21  22
ATOM     22  C   UNL     1       2.890   4.919  19.180  0.00  0.00    +0.000 A 
ATOM     23  C   UNL     1       2.309   4.174  18.153  0.00  0.00    +0.000 A 
ATOM     24  C   UNL     1       1.249   3.315  18.445  0.00  0.00    +0.000 A 
ATOM     25  C   UNL     1       0.785   3.202  19.757  0.00  0.00    +0.000 A 
ATOM     26  C   UNL     1       1.366   3.959  20.776  0.00  0.00    +0.000 A 
ATOM     27  C   UNL     1       2.425   4.821  20.490  0.00  0.00    +0.000 A 
ENDBRANCH  21  22
ENDBRANCH  20  21
ENDBRANCH   1  20
TORSDOF 5
ENDMDL
