MODEL 1
REMARK VINA RESULT:      -7.9      0.000      0.000
REMARK  Name = 
REMARK  11 active torsions:
REMARK  status: ('A' for Active; 'I' for Inactive)
REMARK    1  A    between atoms: C_1  and  C_2
REMARK    2  A    between atoms: C_3  and  C_4
REMARK    3  A    between atoms: C_4  and  O_6
REMARK    4  A    between atoms: O_6  and  C_7
REMARK    5  A    between atoms: C_7  and  C_8
REMARK    6  A    between atoms: C_14  and  C_15
REMARK    7  A    between atoms: N_27  and  C_28
REMARK    8  A    between atoms: C_28  and  C_29
REMARK    9  A    between atoms: C_29  and  C_30
REMARK   10  A    between atoms: C_30  and  C_31
REMARK   11  A    between atoms: C_31  and  O_33
REMARK                            x       y       z     vdW  Elec       q    Type
REMARK                         _______ _______ _______ _____ _____    ______ ____
ROOT
ATOM      1  C   UNL     1       1.109   8.377  21.714  0.00  0.00    +0.000 C 
ATOM      2  C   UNL     1       1.517   8.053  20.289  0.00  0.00    +0.000 C 
ATOM      3  C   UNL     1       1.890   6.822  19.862  0.00  0.00    +0.000 C 
ATOM      4  C   UNL     1       2.322   6.570  18.444  0.00  0.00    +0.000 C 
ATOM      5  N   UNL     1       2.494   7.796  17.718  0.00  0.00    +0.000 N 
ATOM      6  C   UNL     1       2.095   9.026  18.106  0.00  0.00    +0.000 C 
ATOM      7  O   UNL     1       2.277   9.950  17.320  0.00  0.00    +0.000 OA
ATOM      8  N   UNL     1       1.494   9.125  19.351  0.00  0.00    +0.000 N 
ATOM      9  H   UNL     1       2.910   7.762  16.798  0.00  0.00    +0.000 HD
ENDROOT
BRANCH   4  10
ATOM     10  C   UNL     1       3.626   5.798  18.330  0.00  0.00    +0.000 A 
ATOM     11  C   UNL     1       3.924   5.042  17.165  0.00  0.00    +0.000 A 
ATOM     12  C   UNL     1       5.185   4.476  16.979  0.00  0.00    +0.000 A 
ATOM     13  C   UNL     1       6.122   4.696  17.963  0.00  0.00    +0.000 A 
ATOM     14  C   UNL     1       5.814   5.362  19.130  0.00  0.00    +0.000 A 
ATOM     15  C   UNL     1       4.571   5.896  19.361  0.00  0.00    +0.000 A 
ATOM     16  O   UNL     1       6.897   5.505  19.941  0.00  0.00    +0.000 OA
ATOM     17  C   UNL     1       7.934   5.175  18.995  0.00  0.00    +0.000 C 
ATOM     18  O   UNL     1       7.442   4.373  17.901  0.00  0.00    +0.000 OA
ENDBRANCH   4  10
BRANCH   3  19
ATOM     19  C   UNL     1       1.815   5.563  20.662  0.00  0.00    +0.000 C 
ATOM     20  O   UNL     1       2.582   5.333  21.588  0.00  0.00    +0.000 OA
BRANCH  19  21
ATOM     21  O   UNL     1       0.805   4.763  20.263  0.00  0.00    +0.000 OA
BRANCH  21  22
ATOM     22  C   UNL     1       0.913   3.380  20.629  0.00  0.00    +0.000 C 
BRANCH  22  23
ATOM     23  C   UNL     1       1.919   2.707  19.739  0.00  0.00    +0.000 A 
ATOM     24  C   UNL     1       3.188   2.377  20.235  0.00  0.00    +0.000 A 
ATOM     25  C   UNL     1       4.136   1.784  19.403  0.00  0.00    +0.000 A 
ATOM     26  C   UNL     1       3.819   1.504  18.073  0.00  0.00    +0.000 A 
ATOM     27  C   UNL     1       2.560   1.829  17.572  0.00  0.00    +0.000 A 
ATOM     28  C   UNL     1       1.610   2.427  18.402  0.00  0.00    +0.000 A 
ENDBRANCH  22  23
ENDBRANCH  21  22
ENDBRANCH  19  21
ENDBRANCH   3  19
BRANCH   8  29
ATOM     29  C   UNL     1       1.005  10.456  19.791  0.00  0.00    +0.000 C 
BRANCH  29  30
ATOM     30  C   UNL     1      -0.193  11.080  19.052  0.00  0.00    +0.000 C 
BRANCH  30  31
ATOM     31  C   UNL     1      -1.427  10.182  18.956  0.00  0.00    +0.000 C 
BRANCH  31  32
ATOM     32  C   UNL     1      -2.342  10.586  17.825  0.00  0.00    +0.000 C 
ATOM     33  O   UNL     1      -2.387  11.702  17.332  0.00  0.00    +0.000 OA
BRANCH  32  34
ATOM     34  O   UNL     1      -3.108   9.568  17.376  0.00  0.00    +0.000 OA
ATOM     35  H   UNL     1      -3.576   9.082  18.082  0.00  0.00    +0.000 HD
ENDBRANCH  32  34
ENDBRANCH  31  32
ENDBRANCH  30  31
ENDBRANCH  29  30
ENDBRANCH   8  29
TORSDOF 10
ENDMDL
MODEL 2
REMARK VINA RESULT:      -7.6      0.988      1.492
REMARK  Name = 
REMARK  11 active torsions:
REMARK  status: ('A' for Active; 'I' for Inactive)
REMARK    1  A    between atoms: C_1  and  C_2
REMARK    2  A    between atoms: C_3  and  C_4
REMARK    3  A    between atoms: C_4  and  O_6
REMARK    4  A    between atoms: O_6  and  C_7
REMARK    5  A    between atoms: C_7  and  C_8
REMARK    6  A    between atoms: C_14  and  C_15
REMARK    7  A    between atoms: N_27  and  C_28
REMARK    8  A    between atoms: C_28  and  C_29
REMARK    9  A    between atoms: C_29  and  C_30
REMARK   10  A    between atoms: C_30  and  C_31
REMARK   11  A    between atoms: C_31  and  O_33
REMARK                            x       y       z     vdW  Elec       q    Type
REMARK                         _______ _______ _______ _____ _____    ______ ____
ROOT
ATOM      1  C   UNL     1       1.110   8.315  21.759  0.00  0.00    +0.000 C 
ATOM      2  C   UNL     1       1.503   7.996  20.329  0.00  0.00    +0.000 C 
ATOM      3  C   UNL     1       1.889   6.769  19.898  0.00  0.00    +0.000 C 
ATOM      4  C   UNL     1       2.306   6.523  18.474  0.00  0.00    +0.000 C 
ATOM      5  N   UNL     1       2.449   7.750  17.745  0.00  0.00    +0.000 N 
ATOM      6  C   UNL     1       2.038   8.974  18.137  0.00  0.00    +0.000 C 
ATOM      7  O   UNL     1       2.196   9.901  17.349  0.00  0.00    +0.000 OA
ATOM      8  N   UNL     1       1.453   9.066  19.390  0.00  0.00    +0.000 N 
ATOM      9  H   UNL     1       2.854   7.721  16.819  0.00  0.00    +0.000 HD
ENDROOT
BRANCH   4  10
ATOM     10  C   UNL     1       3.619   5.769  18.343  0.00  0.00    +0.000 A 
ATOM     11  C   UNL     1       3.927   5.046  17.161  0.00  0.00    +0.000 A 
ATOM     12  C   UNL     1       5.196   4.499  16.963  0.00  0.00    +0.000 A 
ATOM     13  C   UNL     1       6.128   4.708  17.953  0.00  0.00    +0.000 A 
ATOM     14  C   UNL     1       5.812   5.342  19.135  0.00  0.00    +0.000 A 
ATOM     15  C   UNL     1       4.562   5.855  19.377  0.00  0.00    +0.000 A 
ATOM     16  O   UNL     1       6.893   5.480  19.950  0.00  0.00    +0.000 OA
ATOM     17  C   UNL     1       7.934   5.184  18.998  0.00  0.00    +0.000 C 
ATOM     18  O   UNL     1       7.453   4.403  17.884  0.00  0.00    +0.000 OA
ENDBRANCH   4  10
BRANCH   3  19
ATOM     19  C   UNL     1       1.844   5.510  20.700  0.00  0.00    +0.000 C 
ATOM     20  O   UNL     1       2.629   5.290  21.612  0.00  0.00    +0.000 OA
BRANCH  19  21
ATOM     21  O   UNL     1       0.836   4.698  20.319  0.00  0.00    +0.000 OA
BRANCH  21  22
ATOM     22  C   UNL     1       0.982   3.312  20.657  0.00  0.00    +0.000 C 
BRANCH  22  23
ATOM     23  C   UNL     1       1.993   2.680  19.744  0.00  0.00    +0.000 A 
ATOM     24  C   UNL     1       1.666   2.416  18.407  0.00  0.00    +0.000 A 
ATOM     25  C   UNL     1       2.589   1.799  17.565  0.00  0.00    +0.000 A 
ATOM     26  C   UNL     1       3.851   1.453  18.050  0.00  0.00    +0.000 A 
ATOM     27  C   UNL     1       4.184   1.711  19.378  0.00  0.00    +0.000 A 
ATOM     28  C   UNL     1       3.260   2.326  20.223  0.00  0.00    +0.000 A 
ENDBRANCH  22  23
ENDBRANCH  21  22
ENDBRANCH  19  21
ENDBRANCH   3  19
BRANCH   8  29
ATOM     29  C   UNL     1       0.950  10.390  19.836  0.00  0.00    +0.000 C 
BRANCH  29  30
ATOM     30  C   UNL     1      -0.545  10.708  19.652  0.00  0.00    +0.000 C 
BRANCH  30  31
ATOM     31  C   UNL     1      -0.838  12.022  18.927  0.00  0.00    +0.000 C 
BRANCH  31  32
ATOM     32  C   UNL     1      -1.898  12.839  19.626  0.00  0.00    +0.000 C 
ATOM     33  O   UNL     1      -2.894  12.375  20.160  0.00  0.00    +0.000 OA
BRANCH  32  34
ATOM     34  O   UNL     1      -1.625  14.162  19.635  0.00  0.00    +0.000 OA
ATOM     35  H   UNL     1      -0.674  14.370  19.709  0.00  0.00    +0.000 HD
ENDBRANCH  32  34
ENDBRANCH  31  32
ENDBRANCH  30  31
ENDBRANCH  29  30
ENDBRANCH   8  29
TORSDOF 10
ENDMDL
MODEL 3
REMARK VINA RESULT:      -7.6      1.041      1.382
REMARK  Name = 
REMARK  11 active torsions:
REMARK  status: ('A' for Active; 'I' for Inactive)
REMARK    1  A    between atoms: C_1  and  C_2
REMARK    2  A    between atoms: C_3  and  C_4
REMARK    3  A    between atoms: C_4  and  O_6
REMARK    4  A    between atoms: O_6  and  C_7
REMARK    5  A    between atoms: C_7  and  C_8
REMARK    6  A    between atoms: C_14  and  C_15
REMARK    7  A    between atoms: N_27  and  C_28
REMARK    8  A    between atoms: C_28  and  C_29
REMARK    9  A    between atoms: C_29  and  C_30
REMARK   10  A    between atoms: C_30  and  C_31
REMARK   11  A    between atoms: C_31  and  O_33
REMARK                            x       y       z     vdW  Elec       q    Type
REMARK                         _______ _______ _______ _____ _____    ______ ____
ROOT
ATOM      1  C   UNL     1       1.106   8.311  21.748  0.00  0.00    +0.000 C 
ATOM      2  C   UNL     1       1.499   7.989  20.319  0.00  0.00    +0.000 C 
ATOM      3  C   UNL     1       1.889   6.762  19.892  0.00  0.00    +0.000 C 
ATOM      4  C   UNL     1       2.306   6.513  18.469  0.00  0.00    +0.000 C 
ATOM      5  N   UNL     1       2.445   7.739  17.736  0.00  0.00    +0.000 N 
ATOM      6  C   UNL     1       2.030   8.962  18.125  0.00  0.00    +0.000 C 
ATOM      7  O   UNL     1       2.185   9.887  17.333  0.00  0.00    +0.000 OA
ATOM      8  N   UNL     1       1.445   9.056  19.377  0.00  0.00    +0.000 N 
ATOM      9  H   UNL     1       2.849   7.708  16.810  0.00  0.00    +0.000 HD
ENDROOT
BRANCH   4  10
ATOM     10  C   UNL     1       3.621   5.763  18.340  0.00  0.00    +0.000 A 
ATOM     11  C   UNL     1       3.933   5.040  17.158  0.00  0.00    +0.000 A 
ATOM     12  C   UNL     1       5.204   4.498  16.962  0.00  0.00    +0.000 A 
ATOM     13  C   UNL     1       6.135   4.709  17.953  0.00  0.00    +0.000 A 
ATOM     14  C   UNL     1       5.814   5.342  19.135  0.00  0.00    +0.000 A 
ATOM     15  C   UNL     1       4.563   5.851  19.375  0.00  0.00    +0.000 A 
ATOM     16  O   UNL     1       6.894   5.483  19.952  0.00  0.00    +0.000 OA
ATOM     17  C   UNL     1       7.937   5.191  19.001  0.00  0.00    +0.000 C 
ATOM     18  O   UNL     1       7.460   4.408  17.886  0.00  0.00    +0.000 OA
ENDBRANCH   4  10
BRANCH   3  19
ATOM     19  C   UNL     1       1.848   5.506  20.697  0.00  0.00    +0.000 C 
ATOM     20  O   UNL     1       2.639   5.287  21.606  0.00  0.00    +0.000 OA
BRANCH  19  21
ATOM     21  O   UNL     1       0.837   4.693  20.326  0.00  0.00    +0.000 OA
BRANCH  21  22
ATOM     22  C   UNL     1       0.976   3.310  20.682  0.00  0.00    +0.000 C 
BRANCH  22  23
ATOM     23  C   UNL     1       1.968   2.657  19.764  0.00  0.00    +0.000 A 
ATOM     24  C   UNL     1       3.252   2.335  20.228  0.00  0.00    +0.000 A 
ATOM     25  C   UNL     1       4.187   1.761  19.370  0.00  0.00    +0.000 A 
ATOM     26  C   UNL     1       3.844   1.491  18.044  0.00  0.00    +0.000 A 
ATOM     27  C   UNL     1       2.571   1.808  17.574  0.00  0.00    +0.000 A 
ATOM     28  C   UNL     1       1.634   2.387  18.432  0.00  0.00    +0.000 A 
ENDBRANCH  22  23
ENDBRANCH  21  22
ENDBRANCH  19  21
ENDBRANCH   3  19
BRANCH   8  29
ATOM     29  C   UNL     1       0.938  10.379  19.819  0.00  0.00    +0.000 C 
BRANCH  29  30
ATOM     30  C   UNL     1      -0.566  10.677  19.672  0.00  0.00    +0.000 C 
BRANCH  30  31
ATOM     31  C   UNL     1      -0.981  12.094  20.070  0.00  0.00    +0.000 C 
BRANCH  31  32
ATOM     32  C   UNL     1      -0.346  13.145  19.191  0.00  0.00    +0.000 C 
ATOM     33  O   UNL     1      -0.558  13.272  17.995  0.00  0.00    +0.000 OA
BRANCH  32  34
ATOM     34  O   UNL     1       0.476  13.975  19.870  0.00  0.00    +0.000 OA
ATOM     35  H   UNL     1       1.418  13.720  19.827  0.00  0.00    +0.000 HD
ENDBRANCH  32  34
ENDBRANCH  31  32
ENDBRANCH  30  31
ENDBRANCH  29  30
ENDBRANCH   8  29
TORSDOF 10
ENDMDL
MODEL 4
REMARK VINA RESULT:      -7.4      3.720      7.196
REMARK  Name = 
REMARK  11 active torsions:
REMARK  status: ('A' for Active; 'I' for Inactive)
REMARK    1  A    between atoms: C_1  and  C_2
REMARK    2  A    between atoms: C_3  and  C_4
REMARK    3  A    between atoms: C_4  and  O_6
REMARK    4  A    between atoms: O_6  and  C_7
REMARK    5  A    between atoms: C_7  and  C_8
REMARK    6  A    between atoms: C_14  and  C_15
REMARK    7  A    between atoms: N_27  and  C_28
REMARK    8  A    between atoms: C_28  and  C_29
REMARK    9  A    between atoms: C_29  and  C_30
REMARK   10  A    between atoms: C_30  and  C_31
REMARK   11  A    between atoms: C_31  and  O_33
REMARK                            x       y       z     vdW  Elec       q    Type
REMARK                         _______ _______ _______ _____ _____    ______ ____
ROOT
ATOM      1  C   UNL     1       3.032   6.995  19.095  0.00  0.00    +0.000 C 
ATOM      2  C   UNL     1       4.063   5.900  18.901  0.00  0.00    +0.000 C 
ATOM      3  C   UNL     1       5.107   5.976  18.038  0.00  0.00    +0.000 C 
ATOM      4  C   UNL     1       6.075   4.840  17.861  0.00  0.00    +0.000 C 
ATOM      5  N   UNL     1       5.623   3.651  18.525  0.00  0.00    +0.000 N 
ATOM      6  C   UNL     1       4.613   3.559  19.415  0.00  0.00    +0.000 C 
ATOM      7  O   UNL     1       4.410   2.462  19.925  0.00  0.00    +0.000 OA
ATOM      8  N   UNL     1       3.912   4.723  19.689  0.00  0.00    +0.000 N 
ATOM      9  H   UNL     1       6.121   2.786  18.366  0.00  0.00    +0.000 HD
ENDROOT
BRANCH   4  10
ATOM     10  C   UNL     1       6.327   4.472  16.408  0.00  0.00    +0.000 A 
ATOM     11  C   UNL     1       5.434   3.617  15.710  0.00  0.00    +0.000 A 
ATOM     12  C   UNL     1       5.560   3.416  14.335  0.00  0.00    +0.000 A 
ATOM     13  C   UNL     1       6.572   4.092  13.693  0.00  0.00    +0.000 A 
ATOM     14  C   UNL     1       7.488   4.861  14.379  0.00  0.00    +0.000 A 
ATOM     15  C   UNL     1       7.416   5.046  15.736  0.00  0.00    +0.000 A 
ATOM     16  O   UNL     1       8.372   5.473  13.545  0.00  0.00    +0.000 OA
ATOM     17  C   UNL     1       7.680   5.274  12.295  0.00  0.00    +0.000 C 
ATOM     18  O   UNL     1       6.764   4.160  12.347  0.00  0.00    +0.000 OA
ENDBRANCH   4  10
BRANCH   3  19
ATOM     19  C   UNL     1       5.507   7.187  17.261  0.00  0.00    +0.000 C 
ATOM     20  O   UNL     1       5.076   7.413  16.138  0.00  0.00    +0.000 OA
BRANCH  19  21
ATOM     21  O   UNL     1       6.347   7.984  17.954  0.00  0.00    +0.000 OA
BRANCH  21  22
ATOM     22  C   UNL     1       7.648   8.177  17.381  0.00  0.00    +0.000 C 
BRANCH  22  23
ATOM     23  C   UNL     1       8.274   9.408  17.971  0.00  0.00    +0.000 A 
ATOM     24  C   UNL     1       9.020   9.322  19.155  0.00  0.00    +0.000 A 
ATOM     25  C   UNL     1       9.573  10.467  19.724  0.00  0.00    +0.000 A 
ATOM     26  C   UNL     1       9.396  11.707  19.107  0.00  0.00    +0.000 A 
ATOM     27  C   UNL     1       8.657  11.802  17.930  0.00  0.00    +0.000 A 
ATOM     28  C   UNL     1       8.099  10.656  17.360  0.00  0.00    +0.000 A 
ENDBRANCH  22  23
ENDBRANCH  21  22
ENDBRANCH  19  21
ENDBRANCH   3  19
BRANCH   8  29
ATOM     29  C   UNL     1       2.823   4.667  20.696  0.00  0.00    +0.000 C 
BRANCH  29  30
ATOM     30  C   UNL     1       1.404   4.301  20.225  0.00  0.00    +0.000 C 
BRANCH  30  31
ATOM     31  C   UNL     1       1.045   2.821  20.357  0.00  0.00    +0.000 C 
BRANCH  31  32
ATOM     32  C   UNL     1       0.970   2.127  19.018  0.00  0.00    +0.000 C 
ATOM     33  O   UNL     1       0.049   2.245  18.225  0.00  0.00    +0.000 OA
BRANCH  32  34
ATOM     34  O   UNL     1       2.056   1.367  18.755  0.00  0.00    +0.000 OA
ATOM     35  H   UNL     1       2.689   1.311  19.496  0.00  0.00    +0.000 HD
ENDBRANCH  32  34
ENDBRANCH  31  32
ENDBRANCH  30  31
ENDBRANCH  29  30
ENDBRANCH   8  29
TORSDOF 10
ENDMDL
MODEL 5
REMARK VINA RESULT:      -7.3      1.006      1.495
REMARK  Name = 
REMARK  11 active torsions:
REMARK  status: ('A' for Active; 'I' for Inactive)
REMARK    1  A    between atoms: C_1  and  C_2
REMARK    2  A    between atoms: C_3  and  C_4
REMARK    3  A    between atoms: C_4  and  O_6
REMARK    4  A    between atoms: O_6  and  C_7
REMARK    5  A    between atoms: C_7  and  C_8
REMARK    6  A    between atoms: C_14  and  C_15
REMARK    7  A    between atoms: N_27  and  C_28
REMARK    8  A    between atoms: C_28  and  C_29
REMARK    9  A    between atoms: C_29  and  C_30
REMARK   10  A    between atoms: C_30  and  C_31
REMARK   11  A    between atoms: C_31  and  O_33
REMARK                            x       y       z     vdW  Elec       q    Type
REMARK                         _______ _______ _______ _____ _____    ______ ____
ROOT
ATOM      1  C   UNL     1       0.811   8.590  21.741  0.00  0.00    +0.000 C 
ATOM      2  C   UNL     1       1.310   8.429  20.318  0.00  0.00    +0.000 C 
ATOM      3  C   UNL     1       1.810   7.276  19.809  0.00  0.00    +0.000 C 
ATOM      4  C   UNL     1       2.327   7.189  18.399  0.00  0.00    +0.000 C 
ATOM      5  N   UNL     1       2.423   8.484  17.790  0.00  0.00    +0.000 N 
ATOM      6  C   UNL     1       1.900   9.637  18.258  0.00  0.00    +0.000 C 
ATOM      7  O   UNL     1       2.035  10.639  17.564  0.00  0.00    +0.000 OA
ATOM      8  N   UNL     1       1.236   9.574  19.473  0.00  0.00    +0.000 N 
ATOM      9  H   UNL     1       2.882   8.567  16.894  0.00  0.00    +0.000 HD
ENDROOT
BRANCH   4  10
ATOM     10  C   UNL     1       3.698   6.542  18.290  0.00  0.00    +0.000 A 
ATOM     11  C   UNL     1       4.220   5.761  19.355  0.00  0.00    +0.000 A 
ATOM     12  C   UNL     1       5.394   5.023  19.196  0.00  0.00    +0.000 A 
ATOM     13  C   UNL     1       6.005   5.076  17.965  0.00  0.00    +0.000 A 
ATOM     14  C   UNL     1       5.546   5.893  16.955  0.00  0.00    +0.000 A 
ATOM     15  C   UNL     1       4.418   6.662  17.092  0.00  0.00    +0.000 A 
ATOM     16  O   UNL     1       6.271   5.755  15.812  0.00  0.00    +0.000 OA
ATOM     17  C   UNL     1       6.973   4.537  16.134  0.00  0.00    +0.000 C 
ATOM     18  O   UNL     1       7.056   4.313  17.557  0.00  0.00    +0.000 OA
ENDBRANCH   4  10
BRANCH   3  19
ATOM     19  C   UNL     1       1.811   5.950  20.494  0.00  0.00    +0.000 C 
ATOM     20  O   UNL     1       2.649   5.651  21.335  0.00  0.00    +0.000 OA
BRANCH  19  21
ATOM     21  O   UNL     1       0.780   5.171  20.102  0.00  0.00    +0.000 OA
BRANCH  21  22
ATOM     22  C   UNL     1       0.916   3.768  20.365  0.00  0.00    +0.000 C 
BRANCH  22  23
ATOM     23  C   UNL     1       1.857   3.162  19.364  0.00  0.00    +0.000 A 
ATOM     24  C   UNL     1       2.872   2.292  19.789  0.00  0.00    +0.000 A 
ATOM     25  C   UNL     1       3.769   1.756  18.868  0.00  0.00    +0.000 A 
ATOM     26  C   UNL     1       3.652   2.073  17.513  0.00  0.00    +0.000 A 
ATOM     27  C   UNL     1       2.647   2.937  17.084  0.00  0.00    +0.000 A 
ATOM     28  C   UNL     1       1.749   3.478  18.005  0.00  0.00    +0.000 A 
ENDBRANCH  22  23
ENDBRANCH  21  22
ENDBRANCH  19  21
ENDBRANCH   3  19
BRANCH   8  29
ATOM     29  C   UNL     1       0.611  10.815  19.998  0.00  0.00    +0.000 C 
BRANCH  29  30
ATOM     30  C   UNL     1      -0.897  11.028  19.776  0.00  0.00    +0.000 C 
BRANCH  30  31
ATOM     31  C   UNL     1      -1.435  10.486  18.452  0.00  0.00    +0.000 C 
BRANCH  31  32
ATOM     32  C   UNL     1      -2.067  11.565  17.605  0.00  0.00    +0.000 C 
ATOM     33  O   UNL     1      -3.216  11.538  17.190  0.00  0.00    +0.000 OA
BRANCH  32  34
ATOM     34  O   UNL     1      -1.237  12.603  17.366  0.00  0.00    +0.000 OA
ATOM     35  H   UNL     1      -0.663  12.479  16.586  0.00  0.00    +0.000 HD
ENDBRANCH  32  34
ENDBRANCH  31  32
ENDBRANCH  30  31
ENDBRANCH  29  30
ENDBRANCH   8  29
TORSDOF 10
ENDMDL
MODEL 6
REMARK VINA RESULT:      -7.3      2.664      8.607
REMARK  Name = 
REMARK  11 active torsions:
REMARK  status: ('A' for Active; 'I' for Inactive)
REMARK    1  A    between atoms: C_1  and  C_2
REMARK    2  A    between atoms: C_3  and  C_4
REMARK    3  A    between atoms: C_4  and  O_6
REMARK    4  A    between atoms: O_6  and  C_7
REMARK    5  A    between atoms: C_7  and  C_8
REMARK    6  A    between atoms: C_14  and  C_15
REMARK    7  A    between atoms: N_27  and  C_28
REMARK    8  A    between atoms: C_28  and  C_29
REMARK    9  A    between atoms: C_29  and  C_30
REMARK   10  A    between atoms: C_30  and  C_31
REMARK   11  A    between atoms: C_31  and  O_33
REMARK                            x       y       z     vdW  Elec       q    Type
REMARK                         _______ _______ _______ _____ _____    ______ ____
ROOT
ATOM      1  C   UNL     1       1.632   6.360  20.952  0.00  0.00    +0.000 C 
ATOM      2  C   UNL     1       1.649   7.569  20.035  0.00  0.00    +0.000 C 
ATOM      3  C   UNL     1       0.861   8.660  20.195  0.00  0.00    +0.000 C 
ATOM      4  C   UNL     1       0.896   9.813  19.229  0.00  0.00    +0.000 C 
ATOM      5  N   UNL     1       1.667   9.500  18.060  0.00  0.00    +0.000 N 
ATOM      6  C   UNL     1       2.487   8.441  17.894  0.00  0.00    +0.000 C 
ATOM      7  O   UNL     1       3.112   8.373  16.841  0.00  0.00    +0.000 OA
ATOM      8  N   UNL     1       2.564   7.539  18.943  0.00  0.00    +0.000 N 
ATOM      9  H   UNL     1       1.652  10.144  17.282  0.00  0.00    +0.000 HD
ENDROOT
BRANCH   4  10
ATOM     10  C   UNL     1      -0.479  10.252  18.753  0.00  0.00    +0.000 A 
ATOM     11  C   UNL     1      -1.125  11.374  19.336  0.00  0.00    +0.000 A 
ATOM     12  C   UNL     1      -2.302  11.888  18.790  0.00  0.00    +0.000 A 
ATOM     13  C   UNL     1      -2.792  11.271  17.662  0.00  0.00    +0.000 A 
ATOM     14  C   UNL     1      -2.211  10.136  17.139  0.00  0.00    +0.000 A 
ATOM     15  C   UNL     1      -1.077   9.582  17.676  0.00  0.00    +0.000 A 
ATOM     16  O   UNL     1      -2.829   9.721  15.999  0.00  0.00    +0.000 OA
ATOM     17  C   UNL     1      -3.598  10.906  15.714  0.00  0.00    +0.000 C 
ATOM     18  O   UNL     1      -3.823  11.711  16.890  0.00  0.00    +0.000 OA
ENDBRANCH   4  10
BRANCH   3  19
ATOM     19  C   UNL     1      -0.028   8.929  21.364  0.00  0.00    +0.000 C 
ATOM     20  O   UNL     1      -0.939   8.173  21.677  0.00  0.00    +0.000 OA
BRANCH  19  21
ATOM     21  O   UNL     1       0.318  10.055  22.022  0.00  0.00    +0.000 OA
BRANCH  21  22
ATOM     22  C   UNL     1      -0.493  10.398  23.154  0.00  0.00    +0.000 C 
BRANCH  22  23
ATOM     23  C   UNL     1      -1.187  11.703  22.892  0.00  0.00    +0.000 A 
ATOM     24  C   UNL     1      -2.558  11.837  23.155  0.00  0.00    +0.000 A 
ATOM     25  C   UNL     1      -3.214  13.035  22.881  0.00  0.00    +0.000 A 
ATOM     26  C   UNL     1      -2.502  14.115  22.354  0.00  0.00    +0.000 A 
ATOM     27  C   UNL     1      -1.139  13.990  22.090  0.00  0.00    +0.000 A 
ATOM     28  C   UNL     1      -0.482  12.789  22.361  0.00  0.00    +0.000 A 
ENDBRANCH  22  23
ENDBRANCH  21  22
ENDBRANCH  19  21
ENDBRANCH   3  19
BRANCH   8  29
ATOM     29  C   UNL     1       3.489   6.385  18.812  0.00  0.00    +0.000 C 
BRANCH  29  30
ATOM     30  C   UNL     1       3.198   5.328  17.731  0.00  0.00    +0.000 C 
BRANCH  30  31
ATOM     31  C   UNL     1       1.799   4.714  17.794  0.00  0.00    +0.000 C 
BRANCH  31  32
ATOM     32  C   UNL     1       1.838   3.221  18.017  0.00  0.00    +0.000 C 
ATOM     33  O   UNL     1       0.877   2.542  18.345  0.00  0.00    +0.000 OA
BRANCH  32  34
ATOM     34  O   UNL     1       3.056   2.684  17.787  0.00  0.00    +0.000 OA
ATOM     35  H   UNL     1       3.392   2.837  16.883  0.00  0.00    +0.000 HD
ENDBRANCH  32  34
ENDBRANCH  31  32
ENDBRANCH  30  31
ENDBRANCH  29  30
ENDBRANCH   8  29
TORSDOF 10
ENDMDL
MODEL 7
REMARK VINA RESULT:      -7.2      2.624      8.871
REMARK  Name = 
REMARK  11 active torsions:
REMARK  status: ('A' for Active; 'I' for Inactive)
REMARK    1  A    between atoms: C_1  and  C_2
REMARK    2  A    between atoms: C_3  and  C_4
REMARK    3  A    between atoms: C_4  and  O_6
REMARK    4  A    between atoms: O_6  and  C_7
REMARK    5  A    between atoms: C_7  and  C_8
REMARK    6  A    between atoms: C_14  and  C_15
REMARK    7  A    between atoms: N_27  and  C_28
REMARK    8  A    between atoms: C_28  and  C_29
REMARK    9  A    between atoms: C_29  and  C_30
REMARK   10  A    between atoms: C_30  and  C_31
REMARK   11  A    between atoms: C_31  and  O_33
REMARK                            x       y       z     vdW  Elec       q    Type
REMARK                         _______ _______ _______ _____ _____    ______ ____
ROOT
ATOM      1  C   UNL     1       1.594   6.437  20.921  0.00  0.00    +0.000 C 
ATOM      2  C   UNL     1       1.577   7.672  20.039  0.00  0.00    +0.000 C 
ATOM      3  C   UNL     1       0.772   8.744  20.241  0.00  0.00    +0.000 C 
ATOM      4  C   UNL     1       0.772   9.924  19.308  0.00  0.00    +0.000 C 
ATOM      5  N   UNL     1       1.530   9.657  18.120  0.00  0.00    +0.000 N 
ATOM      6  C   UNL     1       2.366   8.619  17.911  0.00  0.00    +0.000 C 
ATOM      7  O   UNL     1       2.975   8.591  16.847  0.00  0.00    +0.000 OA
ATOM      8  N   UNL     1       2.474   7.689  18.933  0.00  0.00    +0.000 N 
ATOM      9  H   UNL     1       1.492  10.323  17.360  0.00  0.00    +0.000 HD
ENDROOT
BRANCH   4  10
ATOM     10  C   UNL     1      -0.617  10.352  18.866  0.00  0.00    +0.000 A 
ATOM     11  C   UNL     1      -1.234  11.503  19.422  0.00  0.00    +0.000 A 
ATOM     12  C   UNL     1      -2.428  12.002  18.899  0.00  0.00    +0.000 A 
ATOM     13  C   UNL     1      -2.964  11.339  17.819  0.00  0.00    +0.000 A 
ATOM     14  C   UNL     1      -2.410  10.178  17.325  0.00  0.00    +0.000 A 
ATOM     15  C   UNL     1      -1.259   9.639  17.843  0.00  0.00    +0.000 A 
ATOM     16  O   UNL     1      -3.073   9.717  16.230  0.00  0.00    +0.000 OA
ATOM     17  C   UNL     1      -3.846  10.895  15.921  0.00  0.00    +0.000 C 
ATOM     18  O   UNL     1      -4.022  11.752  17.068  0.00  0.00    +0.000 OA
ENDBRANCH   4  10
BRANCH   3  19
ATOM     19  C   UNL     1      -0.103   8.964  21.431  0.00  0.00    +0.000 C 
ATOM     20  O   UNL     1      -0.967   8.162  21.761  0.00  0.00    +0.000 OA
BRANCH  19  21
ATOM     21  O   UNL     1       0.200  10.104  22.086  0.00  0.00    +0.000 OA
BRANCH  21  22
ATOM     22  C   UNL     1      -0.640  10.434  23.200  0.00  0.00    +0.000 C 
BRANCH  22  23
ATOM     23  C   UNL     1      -1.295  11.762  22.954  0.00  0.00    +0.000 A 
ATOM     24  C   UNL     1      -2.668  11.925  23.188  0.00  0.00    +0.000 A 
ATOM     25  C   UNL     1      -3.287  13.146  22.928  0.00  0.00    +0.000 A 
ATOM     26  C   UNL     1      -2.536  14.219  22.445  0.00  0.00    +0.000 A 
ATOM     27  C   UNL     1      -1.171  14.066  22.210  0.00  0.00    +0.000 A 
ATOM     28  C   UNL     1      -0.550  12.843  22.466  0.00  0.00    +0.000 A 
ENDBRANCH  22  23
ENDBRANCH  21  22
ENDBRANCH  19  21
ENDBRANCH   3  19
BRANCH   8  29
ATOM     29  C   UNL     1       3.417   6.556  18.755  0.00  0.00    +0.000 C 
BRANCH  29  30
ATOM     30  C   UNL     1       2.980   5.365  17.882  0.00  0.00    +0.000 C 
BRANCH  30  31
ATOM     31  C   UNL     1       3.456   3.999  18.375  0.00  0.00    +0.000 C 
BRANCH  31  32
ATOM     32  C   UNL     1       4.962   3.887  18.389  0.00  0.00    +0.000 C 
ATOM     33  O   UNL     1       5.651   3.908  19.398  0.00  0.00    +0.000 OA
BRANCH  32  34
ATOM     34  O   UNL     1       5.492   3.730  17.157  0.00  0.00    +0.000 OA
ATOM     35  H   UNL     1       5.638   4.568  16.678  0.00  0.00    +0.000 HD
ENDBRANCH  32  34
ENDBRANCH  31  32
ENDBRANCH  30  31
ENDBRANCH  29  30
ENDBRANCH   8  29
TORSDOF 10
ENDMDL
MODEL 8
REMARK VINA RESULT:      -7.1      2.590      8.498
REMARK  Name = 
REMARK  11 active torsions:
REMARK  status: ('A' for Active; 'I' for Inactive)
REMARK    1  A    between atoms: C_1  and  C_2
REMARK    2  A    between atoms: C_3  and  C_4
REMARK    3  A    between atoms: C_4  and  O_6
REMARK    4  A    between atoms: O_6  and  C_7
REMARK    5  A    between atoms: C_7  and  C_8
REMARK    6  A    between atoms: C_14  and  C_15
REMARK    7  A    between atoms: N_27  and  C_28
REMARK    8  A    between atoms: C_28  and  C_29
REMARK    9  A    between atoms: C_29  and  C_30
REMARK   10  A    between atoms: C_30  and  C_31
REMARK   11  A    between atoms: C_31  and  O_33
REMARK                            x       y       z     vdW  Elec       q    Type
REMARK                         _______ _______ _______ _____ _____    ______ ____
ROOT
ATOM      1  C   UNL     1       1.661   6.330  20.975  0.00  0.00    +0.000 C 
ATOM      2  C   UNL     1       1.687   7.546  20.068  0.00  0.00    +0.000 C 
ATOM      3  C   UNL     1       0.885   8.629  20.218  0.00  0.00    +0.000 C 
ATOM      4  C   UNL     1       0.930   9.789  19.262  0.00  0.00    +0.000 C 
ATOM      5  N   UNL     1       1.730   9.492  18.108  0.00  0.00    +0.000 N 
ATOM      6  C   UNL     1       2.563   8.443  17.952  0.00  0.00    +0.000 C 
ATOM      7  O   UNL     1       3.211   8.388  16.912  0.00  0.00    +0.000 OA
ATOM      8  N   UNL     1       2.625   7.533  18.996  0.00  0.00    +0.000 N 
ATOM      9  H   UNL     1       1.726  10.142  17.334  0.00  0.00    +0.000 HD
ENDROOT
BRANCH   4  10
ATOM     10  C   UNL     1      -0.438  10.220  18.759  0.00  0.00    +0.000 A 
ATOM     11  C   UNL     1      -1.111  11.325  19.343  0.00  0.00    +0.000 A 
ATOM     12  C   UNL     1      -2.281  11.834  18.776  0.00  0.00    +0.000 A 
ATOM     13  C   UNL     1      -2.736  11.227  17.628  0.00  0.00    +0.000 A 
ATOM     14  C   UNL     1      -2.129  10.107  17.103  0.00  0.00    +0.000 A 
ATOM     15  C   UNL     1      -1.001   9.558  17.659  0.00  0.00    +0.000 A 
ATOM     16  O   UNL     1      -2.714   9.701  15.943  0.00  0.00    +0.000 OA
ATOM     17  C   UNL     1      -3.490  10.881  15.656  0.00  0.00    +0.000 C 
ATOM     18  O   UNL     1      -3.754  11.666  16.838  0.00  0.00    +0.000 OA
ENDBRANCH   4  10
BRANCH   3  19
ATOM     19  C   UNL     1      -0.032   8.881  21.370  0.00  0.00    +0.000 C 
ATOM     20  O   UNL     1      -0.979   8.147  21.621  0.00  0.00    +0.000 OA
BRANCH  19  21
ATOM     21  O   UNL     1       0.333   9.964  22.087  0.00  0.00    +0.000 OA
BRANCH  21  22
ATOM     22  C   UNL     1      -0.526  10.314  23.181  0.00  0.00    +0.000 C 
BRANCH  22  23
ATOM     23  C   UNL     1      -1.193  11.627  22.889  0.00  0.00    +0.000 A 
ATOM     24  C   UNL     1      -0.459  12.679  22.322  0.00  0.00    +0.000 A 
ATOM     25  C   UNL     1      -1.065  13.910  22.081  0.00  0.00    +0.000 A 
ATOM     26  C   UNL     1      -2.414  14.096  22.392  0.00  0.00    +0.000 A 
ATOM     27  C   UNL     1      -3.150  13.056  22.955  0.00  0.00    +0.000 A 
ATOM     28  C   UNL     1      -2.544  11.823  23.201  0.00  0.00    +0.000 A 
ENDBRANCH  22  23
ENDBRANCH  21  22
ENDBRANCH  19  21
ENDBRANCH   3  19
BRANCH   8  29
ATOM     29  C   UNL     1       3.564   6.389  18.877  0.00  0.00    +0.000 C 
BRANCH  29  30
ATOM     30  C   UNL     1       3.549   5.557  17.581  0.00  0.00    +0.000 C 
BRANCH  30  31
ATOM     31  C   UNL     1       3.297   4.063  17.781  0.00  0.00    +0.000 C 
BRANCH  31  32
ATOM     32  C   UNL     1       1.871   3.769  18.180  0.00  0.00    +0.000 C 
ATOM     33  O   UNL     1       1.536   3.262  19.239  0.00  0.00    +0.000 OA
BRANCH  32  34
ATOM     34  O   UNL     1       0.971   4.156  17.249  0.00  0.00    +0.000 OA
ATOM     35  H   UNL     1       1.258   4.922  16.715  0.00  0.00    +0.000 HD
ENDBRANCH  32  34
ENDBRANCH  31  32
ENDBRANCH  30  31
ENDBRANCH  29  30
ENDBRANCH   8  29
TORSDOF 10
ENDMDL
MODEL 9
REMARK VINA RESULT:      -7.1      2.491      8.670
REMARK  Name = 
REMARK  11 active torsions:
REMARK  status: ('A' for Active; 'I' for Inactive)
REMARK    1  A    between atoms: C_1  and  C_2
REMARK    2  A    between atoms: C_3  and  C_4
REMARK    3  A    between atoms: C_4  and  O_6
REMARK    4  A    between atoms: O_6  and  C_7
REMARK    5  A    between atoms: C_7  and  C_8
REMARK    6  A    between atoms: C_14  and  C_15
REMARK    7  A    between atoms: N_27  and  C_28
REMARK    8  A    between atoms: C_28  and  C_29
REMARK    9  A    between atoms: C_29  and  C_30
REMARK   10  A    between atoms: C_30  and  C_31
REMARK   11  A    between atoms: C_31  and  O_33
REMARK                            x       y       z     vdW  Elec       q    Type
REMARK                         _______ _______ _______ _____ _____    ______ ____
ROOT
ATOM      1  C   UNL     1       1.639   6.181  20.877  0.00  0.00    +0.000 C 
ATOM      2  C   UNL     1       1.712   7.403  19.980  0.00  0.00    +0.000 C 
ATOM      3  C   UNL     1       0.956   8.517  20.145  0.00  0.00    +0.000 C 
ATOM      4  C   UNL     1       1.045   9.683  19.199  0.00  0.00    +0.000 C 
ATOM      5  N   UNL     1       1.825   9.364  18.038  0.00  0.00    +0.000 N 
ATOM      6  C   UNL     1       2.613   8.282  17.869  0.00  0.00    +0.000 C 
ATOM      7  O   UNL     1       3.254   8.210  16.825  0.00  0.00    +0.000 OA
ATOM      8  N   UNL     1       2.643   7.361  18.904  0.00  0.00    +0.000 N 
ATOM      9  H   UNL     1       1.845  10.021  17.271  0.00  0.00    +0.000 HD
ENDROOT
BRANCH   4  10
ATOM     10  C   UNL     1      -0.306  10.174  18.708  0.00  0.00    +0.000 A 
ATOM     11  C   UNL     1      -0.890  11.353  19.244  0.00  0.00    +0.000 A 
ATOM     12  C   UNL     1      -2.040  11.905  18.679  0.00  0.00    +0.000 A 
ATOM     13  C   UNL     1      -2.567  11.268  17.579  0.00  0.00    +0.000 A 
ATOM     14  C   UNL     1      -2.049  10.082  17.103  0.00  0.00    +0.000 A 
ATOM     15  C   UNL     1      -0.943   9.492  17.661  0.00  0.00    +0.000 A 
ATOM     16  O   UNL     1      -2.693   9.653  15.984  0.00  0.00    +0.000 OA
ATOM     17  C   UNL     1      -3.399  10.865  15.650  0.00  0.00    +0.000 C 
ATOM     18  O   UNL     1      -3.576  11.729  16.792  0.00  0.00    +0.000 OA
ENDBRANCH   4  10
BRANCH   3  19
ATOM     19  C   UNL     1       0.056   8.796  21.303  0.00  0.00    +0.000 C 
ATOM     20  O   UNL     1      -0.914   8.094  21.558  0.00  0.00    +0.000 OA
BRANCH  19  21
ATOM     21  O   UNL     1       0.464   9.862  22.023  0.00  0.00    +0.000 OA
BRANCH  21  22
ATOM     22  C   UNL     1      -0.345  10.203  23.158  0.00  0.00    +0.000 C 
BRANCH  22  23
ATOM     23  C   UNL     1      -1.068  11.490  22.886  0.00  0.00    +0.000 A 
ATOM     24  C   UNL     1      -0.400  12.556  22.267  0.00  0.00    +0.000 A 
ATOM     25  C   UNL     1      -1.056  13.764  22.044  0.00  0.00    +0.000 A 
ATOM     26  C   UNL     1      -2.391  13.913  22.425  0.00  0.00    +0.000 A 
ATOM     27  C   UNL     1      -3.062  12.859  23.041  0.00  0.00    +0.000 A 
ATOM     28  C   UNL     1      -2.405  11.649  23.269  0.00  0.00    +0.000 A 
ENDBRANCH  22  23
ENDBRANCH  21  22
ENDBRANCH  19  21
ENDBRANCH   3  19
BRANCH   8  29
ATOM     29  C   UNL     1       3.533   6.180  18.769  0.00  0.00    +0.000 C 
BRANCH  29  30
ATOM     30  C   UNL     1       3.090   5.027  17.850  0.00  0.00    +0.000 C 
BRANCH  30  31
ATOM     31  C   UNL     1       4.169   3.981  17.567  0.00  0.00    +0.000 C 
BRANCH  31  32
ATOM     32  C   UNL     1       5.562   4.555  17.661  0.00  0.00    +0.000 C 
ATOM     33  O   UNL     1       6.033   5.370  16.882  0.00  0.00    +0.000 OA
BRANCH  32  34
ATOM     34  O   UNL     1       6.251   4.098  18.730  0.00  0.00    +0.000 OA
ATOM     35  H   UNL     1       6.564   3.178  18.635  0.00  0.00    +0.000 HD
ENDBRANCH  32  34
ENDBRANCH  31  32
ENDBRANCH  30  31
ENDBRANCH  29  30
ENDBRANCH   8  29
TORSDOF 10
ENDMDL
