MODEL 1
REMARK VINA RESULT:      -8.3      0.000      0.000
REMARK  Name = 
REMARK  7 active torsions:
REMARK  status: ('A' for Active; 'I' for Inactive)
REMARK    1  A    between atoms: C_1  and  C_2
REMARK    2  A    between atoms: C_2  and  N_3
REMARK    3  A    between atoms: C_2  and  C_12
REMARK    4  A    between atoms: C_4  and  C_6
REMARK    5  A    between atoms: N_14  and  N_15
REMARK    6  A    between atoms: C_16  and  C_17
REMARK    7  A    between atoms: C_21  and  N_22
REMARK                            x       y       z     vdW  Elec       q    Type
REMARK                         _______ _______ _______ _____ _____    ______ ____
ROOT
ATOM      1  C   UNL     1       7.494   6.537  18.294  0.00  0.00    +0.000 C 
ATOM      2  O   UNL     1       8.136   6.166  19.284  0.00  0.00    +0.000 OA
ATOM      3  N   UNL     1       7.572   7.825  17.747  0.00  0.00    +0.000 N 
ATOM      4  H   UNL     1       7.047   8.098  16.926  0.00  0.00    +0.000 HD
ENDROOT
BRANCH   1   6
ATOM      5  C   UNL     1       7.355   4.419  16.968  0.00  0.00    +0.000 C 
ATOM      6  C   UNL     1       6.539   5.568  17.543  0.00  0.00    +0.000 C 
BRANCH   6   7
ATOM      7  N   UNL     1       5.455   5.074  18.416  0.00  0.00    +0.000 N 
ATOM      8  C   UNL     1       4.182   4.827  17.915  0.00  0.00    +0.000 C 
ATOM      9  O   UNL     1       3.881   4.941  16.739  0.00  0.00    +0.000 OA
ATOM     10  H   UNL     1       5.710   4.753  19.337  0.00  0.00    +0.000 HD
BRANCH   8  11
ATOM     11  C   UNL     1       3.181   4.302  18.884  0.00  0.00    +0.000 A 
ATOM     12  C   UNL     1       2.948   2.928  18.977  0.00  0.00    +0.000 A 
ATOM     13  C   UNL     1       1.943   2.445  19.815  0.00  0.00    +0.000 A 
ATOM     14  C   UNL     1       1.174   3.331  20.568  0.00  0.00    +0.000 A 
ATOM     15  C   UNL     1       1.431   4.702  20.516  0.00  0.00    +0.000 A 
ATOM     16  C   UNL     1       2.442   5.191  19.678  0.00  0.00    +0.000 A 
ENDBRANCH   8  11
ENDBRANCH   6   7
ENDBRANCH   1   6
BRANCH   3  17
ATOM     17  N   UNL     1       8.426   8.718  18.327  0.00  0.00    +0.000 NA
ATOM     18  C   UNL     1       8.441   9.942  17.891  0.00  0.00    +0.000 C 
BRANCH  18  19
ATOM     19  C   UNL     1       9.339  10.939  18.519  0.00  0.00    +0.000 A 
ATOM     20  C   UNL     1       9.672  10.807  19.876  0.00  0.00    +0.000 A 
ATOM     21  C   UNL     1      10.518  11.727  20.494  0.00  0.00    +0.000 A 
ATOM     22  C   UNL     1      11.031  12.797  19.767  0.00  0.00    +0.000 A 
ATOM     23  C   UNL     1      10.691  12.942  18.416  0.00  0.00    +0.000 A 
ATOM     24  C   UNL     1       9.851  12.012  17.777  0.00  0.00    +0.000 A 
BRANCH  23  25
ATOM     25  N   UNL     1      11.224  14.092  17.669  0.00  0.00    +0.000 N 
ATOM     26  O   UNL     1      12.332  13.974  17.131  0.00  0.00    +0.000 OA
ATOM     27  O   UNL     1      10.523  15.116  17.626  0.00  0.00    +0.000 OA
ENDBRANCH  23  25
ENDBRANCH  18  19
ENDBRANCH   3  17
TORSDOF 6
ENDMDL
MODEL 2
REMARK VINA RESULT:      -8.2      0.961      1.285
REMARK  Name = 
REMARK  7 active torsions:
REMARK  status: ('A' for Active; 'I' for Inactive)
REMARK    1  A    between atoms: C_1  and  C_2
REMARK    2  A    between atoms: C_2  and  N_3
REMARK    3  A    between atoms: C_2  and  C_12
REMARK    4  A    between atoms: C_4  and  C_6
REMARK    5  A    between atoms: N_14  and  N_15
REMARK    6  A    between atoms: C_16  and  C_17
REMARK    7  A    between atoms: C_21  and  N_22
REMARK                            x       y       z     vdW  Elec       q    Type
REMARK                         _______ _______ _______ _____ _____    ______ ____
ROOT
ATOM      1  C   UNL     1       7.293   6.631  17.816  0.00  0.00    +0.000 C 
ATOM      2  O   UNL     1       7.721   6.201  18.893  0.00  0.00    +0.000 OA
ATOM      3  N   UNL     1       7.593   7.900  17.304  0.00  0.00    +0.000 N 
ATOM      4  H   UNL     1       7.242   8.223  16.411  0.00  0.00    +0.000 HD
ENDROOT
BRANCH   1   6
ATOM      5  C   UNL     1       7.081   4.444  16.618  0.00  0.00    +0.000 C 
ATOM      6  C   UNL     1       6.379   5.763  16.907  0.00  0.00    +0.000 C 
BRANCH   6   7
ATOM      7  N   UNL     1       5.049   5.543  17.511  0.00  0.00    +0.000 N 
ATOM      8  C   UNL     1       4.847   4.558  18.470  0.00  0.00    +0.000 C 
ATOM      9  O   UNL     1       5.736   3.855  18.919  0.00  0.00    +0.000 OA
ATOM     10  H   UNL     1       4.340   6.239  17.340  0.00  0.00    +0.000 HD
BRANCH   8  11
ATOM     11  C   UNL     1       3.470   4.451  19.028  0.00  0.00    +0.000 A 
ATOM     12  C   UNL     1       3.111   5.191  20.156  0.00  0.00    +0.000 A 
ATOM     13  C   UNL     1       1.853   5.017  20.734  0.00  0.00    +0.000 A 
ATOM     14  C   UNL     1       0.949   4.111  20.183  0.00  0.00    +0.000 A 
ATOM     15  C   UNL     1       1.283   3.401  19.029  0.00  0.00    +0.000 A 
ATOM     16  C   UNL     1       2.544   3.575  18.443  0.00  0.00    +0.000 A 
ENDBRANCH   8  11
ENDBRANCH   6   7
ENDBRANCH   1   6
BRANCH   3  17
ATOM     17  N   UNL     1       8.429   8.703  18.026  0.00  0.00    +0.000 NA
ATOM     18  C   UNL     1       8.503   9.963  17.721  0.00  0.00    +0.000 C 
BRANCH  18  19
ATOM     19  C   UNL     1       9.382  10.863  18.505  0.00  0.00    +0.000 A 
ATOM     20  C   UNL     1       9.390  10.769  19.905  0.00  0.00    +0.000 A 
ATOM     21  C   UNL     1      10.210  11.598  20.669  0.00  0.00    +0.000 A 
ATOM     22  C   UNL     1      11.020  12.541  20.045  0.00  0.00    +0.000 A 
ATOM     23  C   UNL     1      11.008  12.649  18.648  0.00  0.00    +0.000 A 
ATOM     24  C   UNL     1      10.197  11.807  17.865  0.00  0.00    +0.000 A 
BRANCH  23  25
ATOM     25  N   UNL     1      11.854  13.666  18.006  0.00  0.00    +0.000 N 
ATOM     26  O   UNL     1      12.329  13.410  16.892  0.00  0.00    +0.000 OA
ATOM     27  O   UNL     1      12.042  14.725  18.627  0.00  0.00    +0.000 OA
ENDBRANCH  23  25
ENDBRANCH  18  19
ENDBRANCH   3  17
TORSDOF 6
ENDMDL
MODEL 3
REMARK VINA RESULT:      -8.2      2.062      2.550
REMARK  Name = 
REMARK  7 active torsions:
REMARK  status: ('A' for Active; 'I' for Inactive)
REMARK    1  A    between atoms: C_1  and  C_2
REMARK    2  A    between atoms: C_2  and  N_3
REMARK    3  A    between atoms: C_2  and  C_12
REMARK    4  A    between atoms: C_4  and  C_6
REMARK    5  A    between atoms: N_14  and  N_15
REMARK    6  A    between atoms: C_16  and  C_17
REMARK    7  A    between atoms: C_21  and  N_22
REMARK                            x       y       z     vdW  Elec       q    Type
REMARK                         _______ _______ _______ _____ _____    ______ ____
ROOT
ATOM      1  C   UNL     1       7.679   7.120  17.844  0.00  0.00    +0.000 C 
ATOM      2  O   UNL     1       7.198   7.448  16.754  0.00  0.00    +0.000 OA
ATOM      3  N   UNL     1       8.428   7.977  18.662  0.00  0.00    +0.000 N 
ATOM      4  H   UNL     1       8.798   7.687  19.557  0.00  0.00    +0.000 HD
ENDROOT
BRANCH   1   6
ATOM      5  C   UNL     1       8.075   5.630  19.816  0.00  0.00    +0.000 C 
ATOM      6  C   UNL     1       7.467   5.693  18.422  0.00  0.00    +0.000 C 
BRANCH   6   7
ATOM      7  N   UNL     1       6.040   5.310  18.440  0.00  0.00    +0.000 N 
ATOM      8  C   UNL     1       5.498   4.501  17.448  0.00  0.00    +0.000 C 
ATOM      9  O   UNL     1       6.148   4.011  16.541  0.00  0.00    +0.000 OA
ATOM     10  H   UNL     1       5.518   5.503  19.281  0.00  0.00    +0.000 HD
BRANCH   8  11
ATOM     11  C   UNL     1       4.056   4.159  17.591  0.00  0.00    +0.000 A 
ATOM     12  C   UNL     1       3.106   5.172  17.740  0.00  0.00    +0.000 A 
ATOM     13  C   UNL     1       1.769   4.847  17.970  0.00  0.00    +0.000 A 
ATOM     14  C   UNL     1       1.376   3.512  18.044  0.00  0.00    +0.000 A 
ATOM     15  C   UNL     1       2.311   2.494  17.851  0.00  0.00    +0.000 A 
ATOM     16  C   UNL     1       3.654   2.815  17.616  0.00  0.00    +0.000 A 
ENDBRANCH   8  11
ENDBRANCH   6   7
ENDBRANCH   1   6
BRANCH   3  17
ATOM     17  N   UNL     1       8.617   9.262  18.241  0.00  0.00    +0.000 NA
ATOM     18  C   UNL     1       9.403  10.035  18.927  0.00  0.00    +0.000 C 
BRANCH  18  19
ATOM     19  C   UNL     1       9.648  11.427  18.479  0.00  0.00    +0.000 A 
ATOM     20  C   UNL     1      10.796  11.714  17.724  0.00  0.00    +0.000 A 
ATOM     21  C   UNL     1      11.051  13.012  17.285  0.00  0.00    +0.000 A 
ATOM     22  C   UNL     1      10.171  14.040  17.605  0.00  0.00    +0.000 A 
ATOM     23  C   UNL     1       9.030  13.762  18.369  0.00  0.00    +0.000 A 
ATOM     24  C   UNL     1       8.753  12.454  18.806  0.00  0.00    +0.000 A 
BRANCH  23  25
ATOM     25  N   UNL     1       8.122  14.865  18.718  0.00  0.00    +0.000 N 
ATOM     26  O   UNL     1       7.933  15.753  17.876  0.00  0.00    +0.000 OA
ATOM     27  O   UNL     1       7.599  14.838  19.844  0.00  0.00    +0.000 OA
ENDBRANCH  23  25
ENDBRANCH  18  19
ENDBRANCH   3  17
TORSDOF 6
ENDMDL
MODEL 4
REMARK VINA RESULT:      -8.2      2.047      2.263
REMARK  Name = 
REMARK  7 active torsions:
REMARK  status: ('A' for Active; 'I' for Inactive)
REMARK    1  A    between atoms: C_1  and  C_2
REMARK    2  A    between atoms: C_2  and  N_3
REMARK    3  A    between atoms: C_2  and  C_12
REMARK    4  A    between atoms: C_4  and  C_6
REMARK    5  A    between atoms: N_14  and  N_15
REMARK    6  A    between atoms: C_16  and  C_17
REMARK    7  A    between atoms: C_21  and  N_22
REMARK                            x       y       z     vdW  Elec       q    Type
REMARK                         _______ _______ _______ _____ _____    ______ ____
ROOT
ATOM      1  C   UNL     1       7.273   6.814  17.766  0.00  0.00    +0.000 C 
ATOM      2  O   UNL     1       7.723   6.278  18.785  0.00  0.00    +0.000 OA
ATOM      3  N   UNL     1       7.622   8.102  17.337  0.00  0.00    +0.000 N 
ATOM      4  H   UNL     1       7.250   8.512  16.490  0.00  0.00    +0.000 HD
ENDROOT
BRANCH   1   6
ATOM      5  C   UNL     1       7.039   5.088  15.969  0.00  0.00    +0.000 C 
ATOM      6  C   UNL     1       6.269   6.072  16.840  0.00  0.00    +0.000 C 
BRANCH   6   7
ATOM      7  N   UNL     1       5.207   5.392  17.609  0.00  0.00    +0.000 N 
ATOM      8  C   UNL     1       3.976   5.999  17.829  0.00  0.00    +0.000 C 
ATOM      9  O   UNL     1       3.663   7.084  17.372  0.00  0.00    +0.000 OA
ATOM     10  H   UNL     1       5.335   4.413  17.813  0.00  0.00    +0.000 HD
BRANCH   8  11
ATOM     11  C   UNL     1       2.975   5.203  18.591  0.00  0.00    +0.000 A 
ATOM     12  C   UNL     1       2.360   4.098  18.000  0.00  0.00    +0.000 A 
ATOM     13  C   UNL     1       1.353   3.412  18.679  0.00  0.00    +0.000 A 
ATOM     14  C   UNL     1       0.962   3.824  19.953  0.00  0.00    +0.000 A 
ATOM     15  C   UNL     1       1.603   4.899  20.569  0.00  0.00    +0.000 A 
ATOM     16  C   UNL     1       2.617   5.588  19.892  0.00  0.00    +0.000 A 
ENDBRANCH   8  11
ENDBRANCH   6   7
ENDBRANCH   1   6
BRANCH   3  17
ATOM     17  N   UNL     1       8.535   8.798  18.076  0.00  0.00    +0.000 NA
ATOM     18  C   UNL     1       8.518  10.097  18.028  0.00  0.00    +0.000 C 
BRANCH  18  19
ATOM     19  C   UNL     1       9.480  10.879  18.840  0.00  0.00    +0.000 A 
ATOM     20  C   UNL     1      10.823  10.945  18.440  0.00  0.00    +0.000 A 
ATOM     21  C   UNL     1      11.750  11.677  19.181  0.00  0.00    +0.000 A 
ATOM     22  C   UNL     1      11.349  12.341  20.335  0.00  0.00    +0.000 A 
ATOM     23  C   UNL     1      10.012  12.269  20.747  0.00  0.00    +0.000 A 
ATOM     24  C   UNL     1       9.063  11.546  20.000  0.00  0.00    +0.000 A 
BRANCH  23  25
ATOM     25  N   UNL     1       9.610  12.959  21.982  0.00  0.00    +0.000 N 
ATOM     26  O   UNL     1       9.908  14.154  22.105  0.00  0.00    +0.000 OA
ATOM     27  O   UNL     1       8.995  12.293  22.831  0.00  0.00    +0.000 OA
ENDBRANCH  23  25
ENDBRANCH  18  19
ENDBRANCH   3  17
TORSDOF 6
ENDMDL
MODEL 5
REMARK VINA RESULT:      -8.0      1.647      2.178
REMARK  Name = 
REMARK  7 active torsions:
REMARK  status: ('A' for Active; 'I' for Inactive)
REMARK    1  A    between atoms: C_1  and  C_2
REMARK    2  A    between atoms: C_2  and  N_3
REMARK    3  A    between atoms: C_2  and  C_12
REMARK    4  A    between atoms: C_4  and  C_6
REMARK    5  A    between atoms: N_14  and  N_15
REMARK    6  A    between atoms: C_16  and  C_17
REMARK    7  A    between atoms: C_21  and  N_22
REMARK                            x       y       z     vdW  Elec       q    Type
REMARK                         _______ _______ _______ _____ _____    ______ ____
ROOT
ATOM      1  C   UNL     1       7.804   7.569  17.872  0.00  0.00    +0.000 C 
ATOM      2  O   UNL     1       7.263   8.115  16.904  0.00  0.00    +0.000 OA
ATOM      3  N   UNL     1       8.647   8.231  18.776  0.00  0.00    +0.000 N 
ATOM      4  H   UNL     1       9.065   7.764  19.570  0.00  0.00    +0.000 HD
ENDROOT
BRANCH   1   6
ATOM      5  C   UNL     1       8.252   5.724  19.504  0.00  0.00    +0.000 C 
ATOM      6  C   UNL     1       7.568   6.066  18.187  0.00  0.00    +0.000 C 
BRANCH   6   7
ATOM      7  N   UNL     1       6.130   5.728  18.224  0.00  0.00    +0.000 N 
ATOM      8  C   UNL     1       5.587   4.792  17.353  0.00  0.00    +0.000 C 
ATOM      9  O   UNL     1       6.242   4.152  16.549  0.00  0.00    +0.000 OA
ATOM     10  H   UNL     1       5.595   6.061  19.012  0.00  0.00    +0.000 HD
BRANCH   8  11
ATOM     11  C   UNL     1       4.132   4.514  17.507  0.00  0.00    +0.000 A 
ATOM     12  C   UNL     1       3.252   5.544  17.844  0.00  0.00    +0.000 A 
ATOM     13  C   UNL     1       1.907   5.265  18.083  0.00  0.00    +0.000 A 
ATOM     14  C   UNL     1       1.435   3.957  17.977  0.00  0.00    +0.000 A 
ATOM     15  C   UNL     1       2.297   2.929  17.596  0.00  0.00    +0.000 A 
ATOM     16  C   UNL     1       3.648   3.206  17.352  0.00  0.00    +0.000 A 
ENDBRANCH   8  11
ENDBRANCH   6   7
ENDBRANCH   1   6
BRANCH   3  17
ATOM     17  N   UNL     1       8.865   9.566  18.590  0.00  0.00    +0.000 NA
ATOM     18  C   UNL     1       9.337  10.265  19.578  0.00  0.00    +0.000 C 
BRANCH  18  19
ATOM     19  C   UNL     1       9.609  11.711  19.397  0.00  0.00    +0.000 A 
ATOM     20  C   UNL     1       9.163  12.621  20.368  0.00  0.00    +0.000 A 
ATOM     21  C   UNL     1       9.407  13.986  20.228  0.00  0.00    +0.000 A 
ATOM     22  C   UNL     1      10.087  14.460  19.111  0.00  0.00    +0.000 A 
ATOM     23  C   UNL     1      10.524  13.558  18.132  0.00  0.00    +0.000 A 
ATOM     24  C   UNL     1      10.297  12.176  18.269  0.00  0.00    +0.000 A 
BRANCH  23  25
ATOM     25  N   UNL     1      11.222  14.079  16.947  0.00  0.00    +0.000 N 
ATOM     26  O   UNL     1      11.231  15.304  16.768  0.00  0.00    +0.000 OA
ATOM     27  O   UNL     1      11.759  13.251  16.193  0.00  0.00    +0.000 OA
ENDBRANCH  23  25
ENDBRANCH  18  19
ENDBRANCH   3  17
TORSDOF 6
ENDMDL
MODEL 6
REMARK VINA RESULT:      -8.0      1.799      2.195
REMARK  Name = 
REMARK  7 active torsions:
REMARK  status: ('A' for Active; 'I' for Inactive)
REMARK    1  A    between atoms: C_1  and  C_2
REMARK    2  A    between atoms: C_2  and  N_3
REMARK    3  A    between atoms: C_2  and  C_12
REMARK    4  A    between atoms: C_4  and  C_6
REMARK    5  A    between atoms: N_14  and  N_15
REMARK    6  A    between atoms: C_16  and  C_17
REMARK    7  A    between atoms: C_21  and  N_22
REMARK                            x       y       z     vdW  Elec       q    Type
REMARK                         _______ _______ _______ _____ _____    ______ ____
ROOT
ATOM      1  C   UNL     1       7.494   6.715  18.046  0.00  0.00    +0.000 C 
ATOM      2  O   UNL     1       8.109   6.313  19.040  0.00  0.00    +0.000 OA
ATOM      3  N   UNL     1       7.670   7.982  17.473  0.00  0.00    +0.000 N 
ATOM      4  H   UNL     1       7.164   8.281  16.650  0.00  0.00    +0.000 HD
ENDROOT
BRANCH   1   6
ATOM      5  C   UNL     1       7.161   4.545  16.844  0.00  0.00    +0.000 C 
ATOM      6  C   UNL     1       6.460   5.812  17.317  0.00  0.00    +0.000 C 
BRANCH   6   7
ATOM      7  N   UNL     1       5.300   5.496  18.176  0.00  0.00    +0.000 N 
ATOM      8  C   UNL     1       4.156   4.907  17.652  0.00  0.00    +0.000 C 
ATOM      9  O   UNL     1       4.041   4.561  16.489  0.00  0.00    +0.000 OA
ATOM     10  H   UNL     1       5.431   5.556  19.173  0.00  0.00    +0.000 HD
BRANCH   8  11
ATOM     11  C   UNL     1       3.065   4.609  18.621  0.00  0.00    +0.000 A 
ATOM     12  C   UNL     1       3.066   5.204  19.884  0.00  0.00    +0.000 A 
ATOM     13  C   UNL     1       2.099   4.851  20.824  0.00  0.00    +0.000 A 
ATOM     14  C   UNL     1       1.123   3.907  20.503  0.00  0.00    +0.000 A 
ATOM     15  C   UNL     1       1.087   3.342  19.229  0.00  0.00    +0.000 A 
ATOM     16  C   UNL     1       2.055   3.697  18.280  0.00  0.00    +0.000 A 
ENDBRANCH   8  11
ENDBRANCH   6   7
ENDBRANCH   1   6
BRANCH   3  17
ATOM     17  N   UNL     1       8.596   8.815  18.032  0.00  0.00    +0.000 NA
ATOM     18  C   UNL     1       8.399  10.098  17.972  0.00  0.00    +0.000 C 
BRANCH  18  19
ATOM     19  C   UNL     1       9.374  11.026  18.593  0.00  0.00    +0.000 A 
ATOM     20  C   UNL     1      10.593  11.278  17.945  0.00  0.00    +0.000 A 
ATOM     21  C   UNL     1      11.528  12.149  18.502  0.00  0.00    +0.000 A 
ATOM     22  C   UNL     1      11.263  12.768  19.719  0.00  0.00    +0.000 A 
ATOM     23  C   UNL     1      10.053  12.511  20.378  0.00  0.00    +0.000 A 
ATOM     24  C   UNL     1       9.095  11.646  19.818  0.00  0.00    +0.000 A 
BRANCH  23  25
ATOM     25  N   UNL     1       9.799  13.157  21.674  0.00  0.00    +0.000 N 
ATOM     26  O   UNL     1      10.159  14.332  21.820  0.00  0.00    +0.000 OA
ATOM     27  O   UNL     1       9.236  12.477  22.548  0.00  0.00    +0.000 OA
ENDBRANCH  23  25
ENDBRANCH  18  19
ENDBRANCH   3  17
TORSDOF 6
ENDMDL
MODEL 7
REMARK VINA RESULT:      -7.9      6.241      8.356
REMARK  Name = 
REMARK  7 active torsions:
REMARK  status: ('A' for Active; 'I' for Inactive)
REMARK    1  A    between atoms: C_1  and  C_2
REMARK    2  A    between atoms: C_2  and  N_3
REMARK    3  A    between atoms: C_2  and  C_12
REMARK    4  A    between atoms: C_4  and  C_6
REMARK    5  A    between atoms: N_14  and  N_15
REMARK    6  A    between atoms: C_16  and  C_17
REMARK    7  A    between atoms: C_21  and  N_22
REMARK                            x       y       z     vdW  Elec       q    Type
REMARK                         _______ _______ _______ _____ _____    ______ ____
ROOT
ATOM      1  C   UNL     1       2.202   4.959  20.176  0.00  0.00    +0.000 C 
ATOM      2  O   UNL     1       1.082   4.763  20.662  0.00  0.00    +0.000 OA
ATOM      3  N   UNL     1       2.748   6.231  19.953  0.00  0.00    +0.000 N 
ATOM      4  H   UNL     1       3.673   6.364  19.568  0.00  0.00    +0.000 HD
ENDROOT
BRANCH   1   6
ATOM      5  C   UNL     1       2.312   2.492  19.771  0.00  0.00    +0.000 C 
ATOM      6  C   UNL     1       3.129   3.776  19.782  0.00  0.00    +0.000 C 
BRANCH   6   7
ATOM      7  N   UNL     1       3.792   4.003  18.482  0.00  0.00    +0.000 N 
ATOM      8  C   UNL     1       5.174   4.115  18.387  0.00  0.00    +0.000 C 
ATOM      9  O   UNL     1       5.932   3.983  19.332  0.00  0.00    +0.000 OA
ATOM     10  H   UNL     1       3.232   3.895  17.650  0.00  0.00    +0.000 HD
BRANCH   8  11
ATOM     11  C   UNL     1       5.728   4.312  17.019  0.00  0.00    +0.000 A 
ATOM     12  C   UNL     1       7.041   4.757  16.851  0.00  0.00    +0.000 A 
ATOM     13  C   UNL     1       7.527   5.034  15.573  0.00  0.00    +0.000 A 
ATOM     14  C   UNL     1       6.706   4.859  14.459  0.00  0.00    +0.000 A 
ATOM     15  C   UNL     1       5.409   4.370  14.615  0.00  0.00    +0.000 A 
ATOM     16  C   UNL     1       4.918   4.088  15.896  0.00  0.00    +0.000 A 
ENDBRANCH   8  11
ENDBRANCH   6   7
ENDBRANCH   1   6
BRANCH   3  17
ATOM     17  N   UNL     1       2.008   7.319  20.317  0.00  0.00    +0.000 NA
ATOM     18  C   UNL     1       1.759   8.232  19.427  0.00  0.00    +0.000 C 
BRANCH  18  19
ATOM     19  C   UNL     1       0.937   9.411  19.786  0.00  0.00    +0.000 A 
ATOM     20  C   UNL     1       0.532  10.300  18.778  0.00  0.00    +0.000 A 
ATOM     21  C   UNL     1      -0.246  11.415  19.084  0.00  0.00    +0.000 A 
ATOM     22  C   UNL     1      -0.617  11.664  20.402  0.00  0.00    +0.000 A 
ATOM     23  C   UNL     1      -0.205  10.788  21.414  0.00  0.00    +0.000 A 
ATOM     24  C   UNL     1       0.567   9.650  21.116  0.00  0.00    +0.000 A 
BRANCH  23  25
ATOM     25  N   UNL     1      -0.588  11.078  22.805  0.00  0.00    +0.000 N 
ATOM     26  O   UNL     1      -0.989  12.218  23.072  0.00  0.00    +0.000 OA
ATOM     27  O   UNL     1      -0.481  10.155  23.629  0.00  0.00    +0.000 OA
ENDBRANCH  23  25
ENDBRANCH  18  19
ENDBRANCH   3  17
TORSDOF 6
ENDMDL
MODEL 8
REMARK VINA RESULT:      -7.9      6.283      8.364
REMARK  Name = 
REMARK  7 active torsions:
REMARK  status: ('A' for Active; 'I' for Inactive)
REMARK    1  A    between atoms: C_1  and  C_2
REMARK    2  A    between atoms: C_2  and  N_3
REMARK    3  A    between atoms: C_2  and  C_12
REMARK    4  A    between atoms: C_4  and  C_6
REMARK    5  A    between atoms: N_14  and  N_15
REMARK    6  A    between atoms: C_16  and  C_17
REMARK    7  A    between atoms: C_21  and  N_22
REMARK                            x       y       z     vdW  Elec       q    Type
REMARK                         _______ _______ _______ _____ _____    ______ ____
ROOT
ATOM      1  C   UNL     1       2.155   4.679  20.043  0.00  0.00    +0.000 C 
ATOM      2  O   UNL     1       1.164   4.506  20.762  0.00  0.00    +0.000 OA
ATOM      3  N   UNL     1       2.646   5.939  19.674  0.00  0.00    +0.000 N 
ATOM      4  H   UNL     1       3.468   6.053  19.096  0.00  0.00    +0.000 HD
ENDROOT
BRANCH   1   6
ATOM      5  C   UNL     1       2.034   2.295  19.292  0.00  0.00    +0.000 C 
ATOM      6  C   UNL     1       2.972   3.477  19.492  0.00  0.00    +0.000 C 
BRANCH   6   7
ATOM      7  N   UNL     1       3.681   3.818  18.242  0.00  0.00    +0.000 N 
ATOM      8  C   UNL     1       5.048   4.066  18.233  0.00  0.00    +0.000 C 
ATOM      9  O   UNL     1       5.762   3.970  19.217  0.00  0.00    +0.000 OA
ATOM     10  H   UNL     1       3.182   3.691  17.375  0.00  0.00    +0.000 HD
BRANCH   8  11
ATOM     11  C   UNL     1       5.656   4.369  16.908  0.00  0.00    +0.000 A 
ATOM     12  C   UNL     1       4.905   4.219  15.741  0.00  0.00    +0.000 A 
ATOM     13  C   UNL     1       5.503   4.410  14.496  0.00  0.00    +0.000 A 
ATOM     14  C   UNL     1       6.851   4.758  14.412  0.00  0.00    +0.000 A 
ATOM     15  C   UNL     1       7.597   4.955  15.575  0.00  0.00    +0.000 A 
ATOM     16  C   UNL     1       6.999   4.768  16.828  0.00  0.00    +0.000 A 
ENDBRANCH   8  11
ENDBRANCH   6   7
ENDBRANCH   1   6
BRANCH   3  17
ATOM     17  N   UNL     1       2.006   7.044  20.158  0.00  0.00    +0.000 NA
ATOM     18  C   UNL     1       1.792   8.044  19.357  0.00  0.00    +0.000 C 
BRANCH  18  19
ATOM     19  C   UNL     1       1.077   9.245  19.848  0.00  0.00    +0.000 A 
ATOM     20  C   UNL     1       0.919  10.348  18.995  0.00  0.00    +0.000 A 
ATOM     21  C   UNL     1       0.247  11.490  19.426  0.00  0.00    +0.000 A 
ATOM     22  C   UNL     1      -0.264  11.550  20.719  0.00  0.00    +0.000 A 
ATOM     23  C   UNL     1      -0.098  10.458  21.580  0.00  0.00    +0.000 A 
ATOM     24  C   UNL     1       0.565   9.293  21.152  0.00  0.00    +0.000 A 
BRANCH  23  25
ATOM     25  N   UNL     1      -0.624  10.547  22.951  0.00  0.00    +0.000 N 
ATOM     26  O   UNL     1      -1.664  11.192  23.134  0.00  0.00    +0.000 OA
ATOM     27  O   UNL     1       0.015   9.967  23.844  0.00  0.00    +0.000 OA
ENDBRANCH  23  25
ENDBRANCH  18  19
ENDBRANCH   3  17
TORSDOF 6
ENDMDL
MODEL 9
REMARK VINA RESULT:      -7.9      1.144      1.548
REMARK  Name = 
REMARK  7 active torsions:
REMARK  status: ('A' for Active; 'I' for Inactive)
REMARK    1  A    between atoms: C_1  and  C_2
REMARK    2  A    between atoms: C_2  and  N_3
REMARK    3  A    between atoms: C_2  and  C_12
REMARK    4  A    between atoms: C_4  and  C_6
REMARK    5  A    between atoms: N_14  and  N_15
REMARK    6  A    between atoms: C_16  and  C_17
REMARK    7  A    between atoms: C_21  and  N_22
REMARK                            x       y       z     vdW  Elec       q    Type
REMARK                         _______ _______ _______ _____ _____    ______ ____
ROOT
ATOM      1  C   UNL     1       7.002   6.132  17.018  0.00  0.00    +0.000 C 
ATOM      2  O   UNL     1       7.815   5.584  17.771  0.00  0.00    +0.000 OA
ATOM      3  N   UNL     1       7.022   7.498  16.703  0.00  0.00    +0.000 N 
ATOM      4  H   UNL     1       6.353   7.919  16.072  0.00  0.00    +0.000 HD
ENDROOT
BRANCH   1   6
ATOM      5  C   UNL     1       6.494   4.145  15.584  0.00  0.00    +0.000 C 
ATOM      6  C   UNL     1       5.873   5.322  16.323  0.00  0.00    +0.000 C 
BRANCH   6   7
ATOM      7  N   UNL     1       4.845   4.871  17.283  0.00  0.00    +0.000 N 
ATOM      8  C   UNL     1       3.965   5.771  17.873  0.00  0.00    +0.000 C 
ATOM      9  O   UNL     1       3.934   6.961  17.611  0.00  0.00    +0.000 OA
ATOM     10  H   UNL     1       4.685   3.879  17.361  0.00  0.00    +0.000 HD
BRANCH   8  11
ATOM     11  C   UNL     1       2.954   5.194  18.801  0.00  0.00    +0.000 A 
ATOM     12  C   UNL     1       2.374   5.990  19.791  0.00  0.00    +0.000 A 
ATOM     13  C   UNL     1       1.501   5.426  20.720  0.00  0.00    +0.000 A 
ATOM     14  C   UNL     1       1.197   4.066  20.658  0.00  0.00    +0.000 A 
ATOM     15  C   UNL     1       1.736   3.273  19.645  0.00  0.00    +0.000 A 
ATOM     16  C   UNL     1       2.611   3.836  18.708  0.00  0.00    +0.000 A 
ENDBRANCH   8  11
ENDBRANCH   6   7
ENDBRANCH   1   6
BRANCH   3  17
ATOM     17  N   UNL     1       8.014   8.266  17.241  0.00  0.00    +0.000 NA
ATOM     18  C   UNL     1       7.690   9.357  17.867  0.00  0.00    +0.000 C 
BRANCH  18  19
ATOM     19  C   UNL     1       8.744  10.197  18.483  0.00  0.00    +0.000 A 
ATOM     20  C   UNL     1       9.051  10.028  19.842  0.00  0.00    +0.000 A 
ATOM     21  C   UNL     1      10.041  10.799  20.449  0.00  0.00    +0.000 A 
ATOM     22  C   UNL     1      10.726  11.758  19.710  0.00  0.00    +0.000 A 
ATOM     23  C   UNL     1      10.415  11.942  18.356  0.00  0.00    +0.000 A 
ATOM     24  C   UNL     1       9.429  11.158  17.728  0.00  0.00    +0.000 A 
BRANCH  23  25
ATOM     25  N   UNL     1      11.133  12.975  17.596  0.00  0.00    +0.000 N 
ATOM     26  O   UNL     1      12.333  13.152  17.843  0.00  0.00    +0.000 OA
ATOM     27  O   UNL     1      10.486  13.612  16.749  0.00  0.00    +0.000 OA
ENDBRANCH  23  25
ENDBRANCH  18  19
ENDBRANCH   3  17
TORSDOF 6
ENDMDL
