MODEL 1
REMARK VINA RESULT:      -8.1      0.000      0.000
REMARK  Name = 
REMARK  4 active torsions:
REMARK  status: ('A' for Active; 'I' for Inactive)
REMARK    1  A    between atoms: C_2  and  C_3
REMARK    2  A    between atoms: C_7  and  O_8
REMARK    3  A    between atoms: O_8  and  C_9
REMARK    4  A    between atoms: C_15  and  N_16
REMARK                            x       y       z     vdW  Elec       q    Type
REMARK                         _______ _______ _______ _____ _____    ______ ____
ROOT
ATOM      1  C   UNL     1       2.238   6.924  19.703  0.00  0.00    +0.000 A 
ATOM      2  C   UNL     1       1.428   6.068  20.458  0.00  0.00    +0.000 A 
ATOM      3  C   UNL     1       1.894   4.804  20.822  0.00  0.00    +0.000 A 
ATOM      4  C   UNL     1       3.170   4.386  20.434  0.00  0.00    +0.000 A 
ATOM      5  C   UNL     1       3.948   5.192  19.603  0.00  0.00    +0.000 A 
ATOM      6  C   UNL     1       3.460   6.445  19.225  0.00  0.00    +0.000 A 
ENDROOT
BRANCH   1   8
ATOM      7  O   UNL     1       1.620   8.601  18.211  0.00  0.00    +0.000 OA
ATOM      8  C   UNL     1       1.742   8.297  19.396  0.00  0.00    +0.000 C 
ATOM      9  N   UNL     1       1.394   9.184  20.427  0.00  0.00    +0.000 N 
ATOM     10  C   UNL     1       1.366   8.927  21.874  0.00  0.00    +0.000 C 
ATOM     11  C   UNL     1      -0.026   9.097  22.462  0.00  0.00    +0.000 C 
ATOM     12  C   UNL     1      -0.625  10.445  22.094  0.00  0.00    +0.000 C 
ATOM     13  C   UNL     1      -0.554  10.676  20.585  0.00  0.00    +0.000 C 
ATOM     14  C   UNL     1       0.872  10.503  20.059  0.00  0.00    +0.000 C 
ENDBRANCH   1   8
BRANCH   5  15
ATOM     15  O   UNL     1       5.165   4.669  19.205  0.00  0.00    +0.000 OA
BRANCH  15  16
ATOM     16  C   UNL     1       5.516   4.677  17.870  0.00  0.00    +0.000 A 
ATOM     17  C   UNL     1       4.778   4.040  16.861  0.00  0.00    +0.000 A 
ATOM     18 CL   UNL     1       3.414   3.017  17.175  0.00  0.00    +0.000 Cl
ATOM     19  C   UNL     1       5.163   4.145  15.517  0.00  0.00    +0.000 A 
ATOM     20  C   UNL     1       6.351   4.781  15.162  0.00  0.00    +0.000 A 
ATOM     21  C   UNL     1       7.165   5.314  16.156  0.00  0.00    +0.000 A 
ATOM     22  C   UNL     1       6.735   5.264  17.493  0.00  0.00    +0.000 A 
BRANCH  22  23
ATOM     23  N   UNL     1       7.638   5.800  18.492  0.00  0.00    +0.000 N 
ATOM     24  O   UNL     1       7.888   7.011  18.435  0.00  0.00    +0.000 OA
ATOM     25  O   UNL     1       8.141   4.994  19.277  0.00  0.00    +0.000 OA
ENDBRANCH  22  23
ENDBRANCH  15  16
ENDBRANCH   5  15
TORSDOF 4
ENDMDL
MODEL 2
REMARK VINA RESULT:      -8.0      2.358      3.489
REMARK  Name = 
REMARK  4 active torsions:
REMARK  status: ('A' for Active; 'I' for Inactive)
REMARK    1  A    between atoms: C_2  and  C_3
REMARK    2  A    between atoms: C_7  and  O_8
REMARK    3  A    between atoms: O_8  and  C_9
REMARK    4  A    between atoms: C_15  and  N_16
REMARK                            x       y       z     vdW  Elec       q    Type
REMARK                         _______ _______ _______ _____ _____    ______ ____
ROOT
ATOM      1  C   UNL     1       1.420   8.893  19.941  0.00  0.00    +0.000 A 
ATOM      2  C   UNL     1       1.532   9.249  18.592  0.00  0.00    +0.000 A 
ATOM      3  C   UNL     1       2.158   8.386  17.690  0.00  0.00    +0.000 A 
ATOM      4  C   UNL     1       2.677   7.165  18.131  0.00  0.00    +0.000 A 
ATOM      5  C   UNL     1       2.656   6.844  19.487  0.00  0.00    +0.000 A 
ATOM      6  C   UNL     1       2.047   7.726  20.383  0.00  0.00    +0.000 A 
ENDROOT
BRANCH   1   8
ATOM      7  O   UNL     1       1.189  10.037  21.955  0.00  0.00    +0.000 OA
ATOM      8  C   UNL     1       0.678   9.801  20.863  0.00  0.00    +0.000 C 
ATOM      9  N   UNL     1      -0.538  10.387  20.474  0.00  0.00    +0.000 N 
ATOM     10  C   UNL     1      -1.208  10.301  19.168  0.00  0.00    +0.000 C 
ATOM     11  C   UNL     1      -1.362  11.663  18.510  0.00  0.00    +0.000 C 
ATOM     12  C   UNL     1      -2.024  12.662  19.445  0.00  0.00    +0.000 C 
ATOM     13  C   UNL     1      -1.307  12.700  20.794  0.00  0.00    +0.000 C 
ATOM     14  C   UNL     1      -1.196  11.303  21.408  0.00  0.00    +0.000 C 
ENDBRANCH   1   8
BRANCH   5  15
ATOM     15  O   UNL     1       3.259   5.652  19.845  0.00  0.00    +0.000 OA
BRANCH  15  16
ATOM     16  C   UNL     1       2.995   4.502  19.130  0.00  0.00    +0.000 A 
ATOM     17  C   UNL     1       1.807   3.761  19.247  0.00  0.00    +0.000 A 
ATOM     18 CL   UNL     1       0.582   4.100  20.425  0.00  0.00    +0.000 Cl
ATOM     19  C   UNL     1       1.582   2.638  18.439  0.00  0.00    +0.000 A 
ATOM     20  C   UNL     1       2.578   2.156  17.591  0.00  0.00    +0.000 A 
ATOM     21  C   UNL     1       3.810   2.800  17.549  0.00  0.00    +0.000 A 
ATOM     22  C   UNL     1       4.000   3.966  18.308  0.00  0.00    +0.000 A 
BRANCH  22  23
ATOM     23  N   UNL     1       5.314   4.575  18.256  0.00  0.00    +0.000 N 
ATOM     24  O   UNL     1       5.549   5.329  17.303  0.00  0.00    +0.000 OA
ATOM     25  O   UNL     1       6.118   4.239  19.129  0.00  0.00    +0.000 OA
ENDBRANCH  22  23
ENDBRANCH  15  16
ENDBRANCH   5  15
TORSDOF 4
ENDMDL
MODEL 3
REMARK VINA RESULT:      -7.9      3.095      7.811
REMARK  Name = 
REMARK  4 active torsions:
REMARK  status: ('A' for Active; 'I' for Inactive)
REMARK    1  A    between atoms: C_2  and  C_3
REMARK    2  A    between atoms: C_7  and  O_8
REMARK    3  A    between atoms: O_8  and  C_9
REMARK    4  A    between atoms: C_15  and  N_16
REMARK                            x       y       z     vdW  Elec       q    Type
REMARK                         _______ _______ _______ _____ _____    ______ ____
ROOT
ATOM      1  C   UNL     1       2.637   7.158  18.791  0.00  0.00    +0.000 A 
ATOM      2  C   UNL     1       2.224   6.927  20.107  0.00  0.00    +0.000 A 
ATOM      3  C   UNL     1       1.399   7.850  20.754  0.00  0.00    +0.000 A 
ATOM      4  C   UNL     1       0.985   9.008  20.089  0.00  0.00    +0.000 A 
ATOM      5  C   UNL     1       1.468   9.294  18.813  0.00  0.00    +0.000 A 
ATOM      6  C   UNL     1       2.311   8.374  18.186  0.00  0.00    +0.000 A 
ENDROOT
BRANCH   1   8
ATOM      7  O   UNL     1       4.660   6.326  17.992  0.00  0.00    +0.000 OA
ATOM      8  C   UNL     1       3.454   6.116  18.102  0.00  0.00    +0.000 C 
ATOM      9  N   UNL     1       2.864   4.929  17.637  0.00  0.00    +0.000 N 
ATOM     10  C   UNL     1       1.474   4.482  17.803  0.00  0.00    +0.000 C 
ATOM     11  C   UNL     1       1.378   3.179  18.579  0.00  0.00    +0.000 C 
ATOM     12  C   UNL     1       2.272   2.105  17.981  0.00  0.00    +0.000 C 
ATOM     13  C   UNL     1       3.698   2.623  17.807  0.00  0.00    +0.000 C 
ATOM     14  C   UNL     1       3.728   3.927  17.008  0.00  0.00    +0.000 C 
ENDBRANCH   1   8
BRANCH   5  15
ATOM     15  O   UNL     1       1.068  10.497  18.261  0.00  0.00    +0.000 OA
BRANCH  15  16
ATOM     16  C   UNL     1      -0.069  11.126  18.726  0.00  0.00    +0.000 A 
ATOM     17  C   UNL     1      -1.367  10.827  18.283  0.00  0.00    +0.000 A 
ATOM     18 CL   UNL     1      -1.704   9.743  16.973  0.00  0.00    +0.000 Cl
ATOM     19  C   UNL     1      -2.481  11.465  18.848  0.00  0.00    +0.000 A 
ATOM     20  C   UNL     1      -2.321  12.495  19.773  0.00  0.00    +0.000 A 
ATOM     21  C   UNL     1      -1.040  12.895  20.137  0.00  0.00    +0.000 A 
ATOM     22  C   UNL     1       0.067  12.203  19.618  0.00  0.00    +0.000 A 
BRANCH  22  23
ATOM     23  N   UNL     1       1.379  12.685  20.000  0.00  0.00    +0.000 N 
ATOM     24  O   UNL     1       1.774  12.404  21.139  0.00  0.00    +0.000 OA
ATOM     25  O   UNL     1       1.970  13.396  19.184  0.00  0.00    +0.000 OA
ENDBRANCH  22  23
ENDBRANCH  15  16
ENDBRANCH   5  15
TORSDOF 4
ENDMDL
MODEL 4
REMARK VINA RESULT:      -7.8      2.635      7.136
REMARK  Name = 
REMARK  4 active torsions:
REMARK  status: ('A' for Active; 'I' for Inactive)
REMARK    1  A    between atoms: C_2  and  C_3
REMARK    2  A    between atoms: C_7  and  O_8
REMARK    3  A    between atoms: O_8  and  C_9
REMARK    4  A    between atoms: C_15  and  N_16
REMARK                            x       y       z     vdW  Elec       q    Type
REMARK                         _______ _______ _______ _____ _____    ______ ____
ROOT
ATOM      1  C   UNL     1       2.618   4.493  18.661  0.00  0.00    +0.000 A 
ATOM      2  C   UNL     1       1.862   3.659  19.493  0.00  0.00    +0.000 A 
ATOM      3  C   UNL     1       1.175   4.196  20.584  0.00  0.00    +0.000 A 
ATOM      4  C   UNL     1       1.241   5.567  20.850  0.00  0.00    +0.000 A 
ATOM      5  C   UNL     1       2.066   6.390  20.085  0.00  0.00    +0.000 A 
ATOM      6  C   UNL     1       2.767   5.837  19.011  0.00  0.00    +0.000 A 
ENDROOT
BRANCH   1   8
ATOM      7  O   UNL     1       2.558   3.316  16.653  0.00  0.00    +0.000 OA
ATOM      8  C   UNL     1       3.276   3.901  17.460  0.00  0.00    +0.000 C 
ATOM      9  N   UNL     1       4.657   4.046  17.251  0.00  0.00    +0.000 N 
ATOM     10  C   UNL     1       5.620   4.816  18.052  0.00  0.00    +0.000 C 
ATOM     11  C   UNL     1       6.281   5.924  17.249  0.00  0.00    +0.000 C 
ATOM     12  C   UNL     1       6.884   5.394  15.958  0.00  0.00    +0.000 C 
ATOM     13  C   UNL     1       5.854   4.584  15.172  0.00  0.00    +0.000 C 
ATOM     14  C   UNL     1       5.237   3.479  16.031  0.00  0.00    +0.000 C 
ENDBRANCH   1   8
BRANCH   5  15
ATOM     15  O   UNL     1       2.130   7.719  20.465  0.00  0.00    +0.000 OA
BRANCH  15  16
ATOM     16  C   UNL     1       1.300   8.647  19.872  0.00  0.00    +0.000 A 
ATOM     17  C   UNL     1       1.428   9.077  18.541  0.00  0.00    +0.000 A 
ATOM     18 CL   UNL     1       2.747   8.621  17.512  0.00  0.00    +0.000 Cl
ATOM     19  C   UNL     1       0.507   9.977  17.988  0.00  0.00    +0.000 A 
ATOM     20  C   UNL     1      -0.483  10.561  18.776  0.00  0.00    +0.000 A 
ATOM     21  C   UNL     1      -0.554  10.246  20.129  0.00  0.00    +0.000 A 
ATOM     22  C   UNL     1       0.329   9.290  20.657  0.00  0.00    +0.000 A 
BRANCH  22  23
ATOM     23  N   UNL     1       0.236   9.027  22.079  0.00  0.00    +0.000 N 
ATOM     24  O   UNL     1      -0.692   8.302  22.460  0.00  0.00    +0.000 OA
ATOM     25  O   UNL     1       1.048   9.604  22.805  0.00  0.00    +0.000 OA
ENDBRANCH  22  23
ENDBRANCH  15  16
ENDBRANCH   5  15
TORSDOF 4
ENDMDL
MODEL 5
REMARK VINA RESULT:      -7.8      2.318      3.449
REMARK  Name = 
REMARK  4 active torsions:
REMARK  status: ('A' for Active; 'I' for Inactive)
REMARK    1  A    between atoms: C_2  and  C_3
REMARK    2  A    between atoms: C_7  and  O_8
REMARK    3  A    between atoms: O_8  and  C_9
REMARK    4  A    between atoms: C_15  and  N_16
REMARK                            x       y       z     vdW  Elec       q    Type
REMARK                         _______ _______ _______ _____ _____    ______ ____
ROOT
ATOM      1  C   UNL     1       1.098   8.794  19.849  0.00  0.00    +0.000 A 
ATOM      2  C   UNL     1       1.369   9.320  18.582  0.00  0.00    +0.000 A 
ATOM      3  C   UNL     1       2.245   8.656  17.721  0.00  0.00    +0.000 A 
ATOM      4  C   UNL     1       2.856   7.464  18.123  0.00  0.00    +0.000 A 
ATOM      5  C   UNL     1       2.668   6.983  19.418  0.00  0.00    +0.000 A 
ATOM      6  C   UNL     1       1.807   7.670  20.278  0.00  0.00    +0.000 A 
ENDROOT
BRANCH   1   8
ATOM      7  O   UNL     1      -0.470   8.813  21.571  0.00  0.00    +0.000 OA
ATOM      8  C   UNL     1       0.099   9.487  20.715  0.00  0.00    +0.000 C 
ATOM      9  N   UNL     1      -0.147  10.862  20.573  0.00  0.00    +0.000 N 
ATOM     10  C   UNL     1       0.535  11.818  19.689  0.00  0.00    +0.000 C 
ATOM     11  C   UNL     1       1.230  12.925  20.466  0.00  0.00    +0.000 C 
ATOM     12  C   UNL     1       0.281  13.602  21.442  0.00  0.00    +0.000 C 
ATOM     13  C   UNL     1      -0.419  12.568  22.322  0.00  0.00    +0.000 C 
ATOM     14  C   UNL     1      -1.108  11.491  21.481  0.00  0.00    +0.000 C 
ENDBRANCH   1   8
BRANCH   5  15
ATOM     15  O   UNL     1       3.371   5.841  19.757  0.00  0.00    +0.000 OA
BRANCH  15  16
ATOM     16  C   UNL     1       3.105   4.650  19.112  0.00  0.00    +0.000 A 
ATOM     17  C   UNL     1       1.935   3.898  19.304  0.00  0.00    +0.000 A 
ATOM     18 CL   UNL     1       0.740   4.280  20.500  0.00  0.00    +0.000 Cl
ATOM     19  C   UNL     1       1.706   2.729  18.565  0.00  0.00    +0.000 A 
ATOM     20  C   UNL     1       2.684   2.219  17.714  0.00  0.00    +0.000 A 
ATOM     21  C   UNL     1       3.902   2.879  17.599  0.00  0.00    +0.000 A 
ATOM     22  C   UNL     1       4.095   4.087  18.290  0.00  0.00    +0.000 A 
BRANCH  22  23
ATOM     23  N   UNL     1       5.396   4.714  18.165  0.00  0.00    +0.000 N 
ATOM     24  O   UNL     1       5.571   5.462  17.195  0.00  0.00    +0.000 OA
ATOM     25  O   UNL     1       6.249   4.395  18.997  0.00  0.00    +0.000 OA
ENDBRANCH  22  23
ENDBRANCH  15  16
ENDBRANCH   5  15
TORSDOF 4
ENDMDL
MODEL 6
REMARK VINA RESULT:      -7.8      1.850      2.502
REMARK  Name = 
REMARK  4 active torsions:
REMARK  status: ('A' for Active; 'I' for Inactive)
REMARK    1  A    between atoms: C_2  and  C_3
REMARK    2  A    between atoms: C_7  and  O_8
REMARK    3  A    between atoms: O_8  and  C_9
REMARK    4  A    between atoms: C_15  and  N_16
REMARK                            x       y       z     vdW  Elec       q    Type
REMARK                         _______ _______ _______ _____ _____    ______ ____
ROOT
ATOM      1  C   UNL     1       2.261   6.640  19.678  0.00  0.00    +0.000 A 
ATOM      2  C   UNL     1       1.381   5.892  20.468  0.00  0.00    +0.000 A 
ATOM      3  C   UNL     1       1.741   4.613  20.898  0.00  0.00    +0.000 A 
ATOM      4  C   UNL     1       2.981   4.074  20.540  0.00  0.00    +0.000 A 
ATOM      5  C   UNL     1       3.823   4.772  19.675  0.00  0.00    +0.000 A 
ATOM      6  C   UNL     1       3.441   6.040  19.233  0.00  0.00    +0.000 A 
ENDROOT
BRANCH   1   8
ATOM      7  O   UNL     1       1.901   8.318  18.105  0.00  0.00    +0.000 OA
ATOM      8  C   UNL     1       1.879   8.032  19.300  0.00  0.00    +0.000 C 
ATOM      9  N   UNL     1       1.475   8.958  20.275  0.00  0.00    +0.000 N 
ATOM     10  C   UNL     1       1.279   8.732  21.714  0.00  0.00    +0.000 C 
ATOM     11  C   UNL     1      -0.155   8.991  22.148  0.00  0.00    +0.000 C 
ATOM     12  C   UNL     1      -0.634  10.361  21.699  0.00  0.00    +0.000 C 
ATOM     13  C   UNL     1      -0.391  10.558  20.204  0.00  0.00    +0.000 C 
ATOM     14  C   UNL     1       1.071  10.295  19.835  0.00  0.00    +0.000 C 
ENDBRANCH   1   8
BRANCH   5  15
ATOM     15  O   UNL     1       4.995   4.132  19.312  0.00  0.00    +0.000 OA
BRANCH  15  16
ATOM     16  C   UNL     1       5.481   4.261  18.027  0.00  0.00    +0.000 A 
ATOM     17  C   UNL     1       6.577   5.068  17.681  0.00  0.00    +0.000 A 
ATOM     18 CL   UNL     1       7.364   6.139  18.794  0.00  0.00    +0.000 Cl
ATOM     19  C   UNL     1       7.055   5.099  16.364  0.00  0.00    +0.000 A 
ATOM     20  C   UNL     1       6.383   4.429  15.343  0.00  0.00    +0.000 A 
ATOM     21  C   UNL     1       5.223   3.722  15.639  0.00  0.00    +0.000 A 
ATOM     22  C   UNL     1       4.792   3.639  16.973  0.00  0.00    +0.000 A 
BRANCH  22  23
ATOM     23  N   UNL     1       3.556   2.922  17.220  0.00  0.00    +0.000 N 
ATOM     24  O   UNL     1       2.503   3.485  16.896  0.00  0.00    +0.000 OA
ATOM     25  O   UNL     1       3.649   1.837  17.799  0.00  0.00    +0.000 OA
ENDBRANCH  22  23
ENDBRANCH  15  16
ENDBRANCH   5  15
TORSDOF 4
ENDMDL
MODEL 7
REMARK VINA RESULT:      -7.6      3.147      7.794
REMARK  Name = 
REMARK  4 active torsions:
REMARK  status: ('A' for Active; 'I' for Inactive)
REMARK    1  A    between atoms: C_2  and  C_3
REMARK    2  A    between atoms: C_7  and  O_8
REMARK    3  A    between atoms: O_8  and  C_9
REMARK    4  A    between atoms: C_15  and  N_16
REMARK                            x       y       z     vdW  Elec       q    Type
REMARK                         _______ _______ _______ _____ _____    ______ ____
ROOT
ATOM      1  C   UNL     1       2.213   6.765  18.787  0.00  0.00    +0.000 A 
ATOM      2  C   UNL     1       2.023   6.652  20.169  0.00  0.00    +0.000 A 
ATOM      3  C   UNL     1       1.534   7.737  20.899  0.00  0.00    +0.000 A 
ATOM      4  C   UNL     1       1.234   8.941  20.253  0.00  0.00    +0.000 A 
ATOM      5  C   UNL     1       1.509   9.094  18.895  0.00  0.00    +0.000 A 
ATOM      6  C   UNL     1       2.020   8.008  18.180  0.00  0.00    +0.000 A 
ENDROOT
BRANCH   1   8
ATOM      7  O   UNL     1       1.794   4.805  17.603  0.00  0.00    +0.000 OA
ATOM      8  C   UNL     1       2.663   5.564  18.025  0.00  0.00    +0.000 C 
ATOM      9  N   UNL     1       4.026   5.341  17.772  0.00  0.00    +0.000 N 
ATOM     10  C   UNL     1       5.163   6.212  18.099  0.00  0.00    +0.000 C 
ATOM     11  C   UNL     1       5.918   6.663  16.859  0.00  0.00    +0.000 C 
ATOM     12  C   UNL     1       6.315   5.482  15.988  0.00  0.00    +0.000 C 
ATOM     13  C   UNL     1       5.107   4.595  15.693  0.00  0.00    +0.000 C 
ATOM     14  C   UNL     1       4.400   4.166  16.981  0.00  0.00    +0.000 C 
ENDBRANCH   1   8
BRANCH   5  15
ATOM     15  O   UNL     1       1.253  10.341  18.354  0.00  0.00    +0.000 OA
BRANCH  15  16
ATOM     16  C   UNL     1       0.144  11.056  18.760  0.00  0.00    +0.000 A 
ATOM     17  C   UNL     1      -1.160  10.802  18.307  0.00  0.00    +0.000 A 
ATOM     18 CL   UNL     1      -1.533   9.666  17.053  0.00  0.00    +0.000 Cl
ATOM     19  C   UNL     1      -2.247  11.529  18.813  0.00  0.00    +0.000 A 
ATOM     20  C   UNL     1      -2.048  12.600  19.683  0.00  0.00    +0.000 A 
ATOM     21  C   UNL     1      -0.753  12.950  20.051  0.00  0.00    +0.000 A 
ATOM     22  C   UNL     1       0.323  12.171  19.594  0.00  0.00    +0.000 A 
BRANCH  22  23
ATOM     23  N   UNL     1       1.653  12.603  19.976  0.00  0.00    +0.000 N 
ATOM     24  O   UNL     1       1.992  12.414  21.151  0.00  0.00    +0.000 OA
ATOM     25  O   UNL     1       2.316  13.188  19.117  0.00  0.00    +0.000 OA
ENDBRANCH  22  23
ENDBRANCH  15  16
ENDBRANCH   5  15
TORSDOF 4
ENDMDL
MODEL 8
REMARK VINA RESULT:      -7.5      0.847      1.087
REMARK  Name = 
REMARK  4 active torsions:
REMARK  status: ('A' for Active; 'I' for Inactive)
REMARK    1  A    between atoms: C_2  and  C_3
REMARK    2  A    between atoms: C_7  and  O_8
REMARK    3  A    between atoms: O_8  and  C_9
REMARK    4  A    between atoms: C_15  and  N_16
REMARK                            x       y       z     vdW  Elec       q    Type
REMARK                         _______ _______ _______ _____ _____    ______ ____
ROOT
ATOM      1  C   UNL     1       2.341   7.348  19.069  0.00  0.00    +0.000 A 
ATOM      2  C   UNL     1       1.554   6.584  19.938  0.00  0.00    +0.000 A 
ATOM      3  C   UNL     1       2.050   5.388  20.463  0.00  0.00    +0.000 A 
ATOM      4  C   UNL     1       3.333   4.950  20.121  0.00  0.00    +0.000 A 
ATOM      5  C   UNL     1       4.087   5.654  19.183  0.00  0.00    +0.000 A 
ATOM      6  C   UNL     1       3.570   6.836  18.647  0.00  0.00    +0.000 A 
ENDROOT
BRANCH   1   8
ATOM      7  O   UNL     1       1.784   8.842  17.372  0.00  0.00    +0.000 OA
ATOM      8  C   UNL     1       1.812   8.657  18.587  0.00  0.00    +0.000 C 
ATOM      9  N   UNL     1       1.332   9.618  19.492  0.00  0.00    +0.000 N 
ATOM     10  C   UNL     1       1.185   9.496  20.950  0.00  0.00    +0.000 C 
ATOM     11  C   UNL     1      -0.260   9.645  21.397  0.00  0.00    +0.000 C 
ATOM     12  C   UNL     1      -0.884  10.918  20.849  0.00  0.00    +0.000 C 
ATOM     13  C   UNL     1      -0.688  11.010  19.336  0.00  0.00    +0.000 C 
ATOM     14  C   UNL     1       0.786  10.866  18.954  0.00  0.00    +0.000 C 
ENDBRANCH   1   8
BRANCH   5  15
ATOM     15  O   UNL     1       5.312   5.108  18.846  0.00  0.00    +0.000 OA
BRANCH  15  16
ATOM     16  C   UNL     1       5.613   4.850  17.524  0.00  0.00    +0.000 A 
ATOM     17  C   UNL     1       5.012   3.831  16.768  0.00  0.00    +0.000 A 
ATOM     18 CL   UNL     1       3.930   2.655  17.439  0.00  0.00    +0.000 Cl
ATOM     19  C   UNL     1       5.323   3.669  15.411  0.00  0.00    +0.000 A 
ATOM     20  C   UNL     1       6.322   4.433  14.810  0.00  0.00    +0.000 A 
ATOM     21  C   UNL     1       7.020   5.365  15.570  0.00  0.00    +0.000 A 
ATOM     22  C   UNL     1       6.653   5.569  16.911  0.00  0.00    +0.000 A 
BRANCH  22  23
ATOM     23  N   UNL     1       7.437   6.524  17.668  0.00  0.00    +0.000 N 
ATOM     24  O   UNL     1       7.977   6.117  18.704  0.00  0.00    +0.000 OA
ATOM     25  O   UNL     1       7.445   7.687  17.256  0.00  0.00    +0.000 OA
ENDBRANCH  22  23
ENDBRANCH  15  16
ENDBRANCH   5  15
TORSDOF 4
ENDMDL
MODEL 9
REMARK VINA RESULT:      -7.4      2.228      7.296
REMARK  Name = 
REMARK  4 active torsions:
REMARK  status: ('A' for Active; 'I' for Inactive)
REMARK    1  A    between atoms: C_2  and  C_3
REMARK    2  A    between atoms: C_7  and  O_8
REMARK    3  A    between atoms: O_8  and  C_9
REMARK    4  A    between atoms: C_15  and  N_16
REMARK                            x       y       z     vdW  Elec       q    Type
REMARK                         _______ _______ _______ _____ _____    ______ ____
ROOT
ATOM      1  C   UNL     1       3.796   4.759  19.154  0.00  0.00    +0.000 A 
ATOM      2  C   UNL     1       2.710   3.882  19.058  0.00  0.00    +0.000 A 
ATOM      3  C   UNL     1       1.435   4.302  19.440  0.00  0.00    +0.000 A 
ATOM      4  C   UNL     1       1.237   5.600  19.921  0.00  0.00    +0.000 A 
ATOM      5  C   UNL     1       2.326   6.450  20.110  0.00  0.00    +0.000 A 
ATOM      6  C   UNL     1       3.601   6.009  19.746  0.00  0.00    +0.000 A 
ENDROOT
BRANCH   1   8
ATOM      7  O   UNL     1       5.611   3.301  19.187  0.00  0.00    +0.000 OA
ATOM      8  C   UNL     1       5.131   4.305  18.666  0.00  0.00    +0.000 C 
ATOM      9  N   UNL     1       5.786   4.983  17.626  0.00  0.00    +0.000 N 
ATOM     10  C   UNL     1       5.291   6.113  16.826  0.00  0.00    +0.000 C 
ATOM     11  C   UNL     1       5.192   5.772  15.348  0.00  0.00    +0.000 C 
ATOM     12  C   UNL     1       6.500   5.206  14.818  0.00  0.00    +0.000 C 
ATOM     13  C   UNL     1       6.985   4.051  15.692  0.00  0.00    +0.000 C 
ATOM     14  C   UNL     1       7.075   4.463  17.163  0.00  0.00    +0.000 C 
ENDBRANCH   1   8
BRANCH   5  15
ATOM     15  O   UNL     1       2.050   7.688  20.661  0.00  0.00    +0.000 OA
BRANCH  15  16
ATOM     16  C   UNL     1       1.266   8.591  19.973  0.00  0.00    +0.000 A 
ATOM     17  C   UNL     1       1.474   8.946  18.630  0.00  0.00    +0.000 A 
ATOM     18 CL   UNL     1       2.842   8.421  17.704  0.00  0.00    +0.000 Cl
ATOM     19  C   UNL     1       0.597   9.824  17.978  0.00  0.00    +0.000 A 
ATOM     20  C   UNL     1      -0.427  10.460  18.676  0.00  0.00    +0.000 A 
ATOM     21  C   UNL     1      -0.578  10.221  20.038  0.00  0.00    +0.000 A 
ATOM     22  C   UNL     1       0.261   9.286  20.666  0.00  0.00    +0.000 A 
BRANCH  22  23
ATOM     23  N   UNL     1       0.087   9.102  22.093  0.00  0.00    +0.000 N 
ATOM     24  O   UNL     1      -0.823   8.346  22.458  0.00  0.00    +0.000 OA
ATOM     25  O   UNL     1       0.812   9.770  22.833  0.00  0.00    +0.000 OA
ENDBRANCH  22  23
ENDBRANCH  15  16
ENDBRANCH   5  15
TORSDOF 4
ENDMDL
