MODEL 1
REMARK VINA RESULT:      -7.6      0.000      0.000
REMARK  Name = 
REMARK  2 active torsions:
REMARK  status: ('A' for Active; 'I' for Inactive)
REMARK    1  A    between atoms: C_1  and  N_2
REMARK    2  A    between atoms: N_22  and  C_23
REMARK                            x       y       z     vdW  Elec       q    Type
REMARK                         _______ _______ _______ _____ _____    ______ ____
ROOT
ATOM      1  C   UNL     1      -0.701  13.448  20.301  0.00  0.00    +0.000 C 
ATOM      2  N   UNL     1      -0.274  12.180  19.712  0.00  0.00    +0.000 N 
ATOM      3  C   UNL     1      -1.267  11.144  19.450  0.00  0.00    +0.000 C 
ATOM      4  C   UNL     1      -0.742  10.072  18.437  0.00  0.00    +0.000 C 
ATOM      5  C   UNL     1       0.677   9.618  18.853  0.00  0.00    +0.000 C 
ATOM      6  C   UNL     1       0.477   8.931  20.284  0.00  0.00    +0.000 C 
ATOM      7  C   UNL     1       1.590   8.042  20.878  0.00  0.00    +0.000 C 
ATOM      8  N   UNL     1       2.251   7.200  19.868  0.00  0.00    +0.000 NA
ATOM      9  C   UNL     1       1.789   5.785  19.607  0.00  0.00    +0.000 C 
ATOM     10  C   UNL     1       2.009   5.288  18.119  0.00  0.00    +0.000 C 
ATOM     11  C   UNL     1       3.301   5.856  17.634  0.00  0.00    +0.000 A 
ATOM     12  C   UNL     1       3.599   7.152  17.932  0.00  0.00    +0.000 A 
ATOM     13  O   UNL     1       4.851   7.440  17.614  0.00  0.00    +0.000 OA
ATOM     14  C   UNL     1       5.354   6.367  17.038  0.00  0.00    +0.000 A 
ATOM     15  C   UNL     1       6.643   6.186  16.540  0.00  0.00    +0.000 A 
ATOM     16  C   UNL     1       6.941   4.959  15.917  0.00  0.00    +0.000 A 
ATOM     17  C   UNL     1       5.958   3.947  15.822  0.00  0.00    +0.000 A 
ATOM     18  C   UNL     1       4.682   4.131  16.390  0.00  0.00    +0.000 A 
ATOM     19  C   UNL     1       4.413   5.357  16.993  0.00  0.00    +0.000 A 
ATOM     20  C   UNL     1       2.631   7.992  18.696  0.00  0.00    +0.000 C 
ATOM     21  C   UNL     1       1.320   8.480  17.985  0.00  0.00    +0.000 C 
ATOM     22  N   UNL     1       1.479  10.889  18.743  0.00  0.00    +0.000 N 
ATOM     23  C   UNL     1       2.561  11.048  17.751  0.00  0.00    +0.000 C 
ATOM     24  C   UNL     1       1.022  12.053  19.300  0.00  0.00    +0.000 C 
ATOM     25  O   UNL     1       1.759  13.034  19.339  0.00  0.00    +0.000 OA
ENDROOT
TORSDOF 0
ENDMDL
MODEL 2
REMARK VINA RESULT:      -7.1      2.807      7.781
REMARK  Name = 
REMARK  2 active torsions:
REMARK  status: ('A' for Active; 'I' for Inactive)
REMARK    1  A    between atoms: C_1  and  N_2
REMARK    2  A    between atoms: N_22  and  C_23
REMARK                            x       y       z     vdW  Elec       q    Type
REMARK                         _______ _______ _______ _____ _____    ______ ____
ROOT
ATOM      1  C   UNL     1       4.553   0.563  19.314  0.00  0.00    +0.000 C 
ATOM      2  N   UNL     1       3.821   1.811  19.106  0.00  0.00    +0.000 N 
ATOM      3  C   UNL     1       3.332   2.138  17.771  0.00  0.00    +0.000 C 
ATOM      4  C   UNL     1       2.218   3.238  17.809  0.00  0.00    +0.000 C 
ATOM      5  C   UNL     1       2.676   4.407  18.712  0.00  0.00    +0.000 C 
ATOM      6  C   UNL     1       3.970   4.999  17.982  0.00  0.00    +0.000 C 
ATOM      7  C   UNL     1       4.516   6.387  18.376  0.00  0.00    +0.000 C 
ATOM      8  N   UNL     1       3.449   7.365  18.647  0.00  0.00    +0.000 NA
ATOM      9  C   UNL     1       2.949   8.294  17.565  0.00  0.00    +0.000 C 
ATOM     10  C   UNL     1       1.426   8.707  17.710  0.00  0.00    +0.000 C 
ATOM     11  C   UNL     1       1.135   8.873  19.164  0.00  0.00    +0.000 A 
ATOM     12  C   UNL     1       1.641   7.961  20.041  0.00  0.00    +0.000 A 
ATOM     13  O   UNL     1       1.470   8.355  21.292  0.00  0.00    +0.000 OA
ATOM     14  C   UNL     1       0.785   9.480  21.247  0.00  0.00    +0.000 A 
ATOM     15  C   UNL     1       0.371  10.275  22.314  0.00  0.00    +0.000 A 
ATOM     16  C   UNL     1      -0.398  11.418  22.023  0.00  0.00    +0.000 A 
ATOM     17  C   UNL     1      -0.718  11.743  20.685  0.00  0.00    +0.000 A 
ATOM     18  C   UNL     1      -0.234  10.958  19.620  0.00  0.00    +0.000 A 
ATOM     19  C   UNL     1       0.519   9.830  19.938  0.00  0.00    +0.000 A 
ATOM     20  C   UNL     1       2.440   6.802  19.546  0.00  0.00    +0.000 C 
ATOM     21  C   UNL     1       1.706   5.637  18.793  0.00  0.00    +0.000 C 
ATOM     22  N   UNL     1       2.817   3.750  20.061  0.00  0.00    +0.000 N 
ATOM     23  C   UNL     1       1.949   4.107  21.200  0.00  0.00    +0.000 C 
ATOM     24  C   UNL     1       3.501   2.571  20.194  0.00  0.00    +0.000 C 
ATOM     25  O   UNL     1       3.740   2.137  21.317  0.00  0.00    +0.000 OA
ENDROOT
TORSDOF 0
ENDMDL
MODEL 3
REMARK VINA RESULT:      -7.0      2.714      4.271
REMARK  Name = 
REMARK  2 active torsions:
REMARK  status: ('A' for Active; 'I' for Inactive)
REMARK    1  A    between atoms: C_1  and  N_2
REMARK    2  A    between atoms: N_22  and  C_23
REMARK                            x       y       z     vdW  Elec       q    Type
REMARK                         _______ _______ _______ _____ _____    ______ ____
ROOT
ATOM      1  C   UNL     1      -2.940  14.268  22.879  0.00  0.00    +0.000 C 
ATOM      2  N   UNL     1      -1.900  13.405  22.323  0.00  0.00    +0.000 N 
ATOM      3  C   UNL     1      -0.856  13.992  21.490  0.00  0.00    +0.000 C 
ATOM      4  C   UNL     1       0.388  13.049  21.359  0.00  0.00    +0.000 C 
ATOM      5  C   UNL     1      -0.084  11.617  21.016  0.00  0.00    +0.000 C 
ATOM      6  C   UNL     1      -0.788  11.754  19.587  0.00  0.00    +0.000 C 
ATOM      7  C   UNL     1      -1.080  10.496  18.742  0.00  0.00    +0.000 C 
ATOM      8  N   UNL     1      -0.002   9.497  18.813  0.00  0.00    +0.000 NA
ATOM      9  C   UNL     1       1.103   9.464  17.782  0.00  0.00    +0.000 C 
ATOM     10  C   UNL     1       2.493   8.934  18.328  0.00  0.00    +0.000 C 
ATOM     11  C   UNL     1       2.213   7.836  19.298  0.00  0.00    +0.000 A 
ATOM     12  C   UNL     1       1.189   7.990  20.184  0.00  0.00    +0.000 A 
ATOM     13  O   UNL     1       0.941   6.861  20.828  0.00  0.00    +0.000 OA
ATOM     14  C   UNL     1       1.845   5.988  20.430  0.00  0.00    +0.000 A 
ATOM     15  C   UNL     1       1.985   4.659  20.824  0.00  0.00    +0.000 A 
ATOM     16  C   UNL     1       3.065   3.926  20.296  0.00  0.00    +0.000 A 
ATOM     17  C   UNL     1       3.961   4.530  19.384  0.00  0.00    +0.000 A 
ATOM     18  C   UNL     1       3.761   5.857  18.954  0.00  0.00    +0.000 A 
ATOM     19  C   UNL     1       2.688   6.559  19.497  0.00  0.00    +0.000 A 
ATOM     20  C   UNL     1       0.391   9.250  20.202  0.00  0.00    +0.000 C 
ATOM     21  C   UNL     1       1.048  10.559  20.768  0.00  0.00    +0.000 C 
ATOM     22  N   UNL     1      -0.909  11.241  22.219  0.00  0.00    +0.000 N 
ATOM     23  C   UNL     1      -0.507  10.156  23.137  0.00  0.00    +0.000 C 
ATOM     24  C   UNL     1      -1.860  12.096  22.708  0.00  0.00    +0.000 C 
ATOM     25  O   UNL     1      -2.627  11.709  23.585  0.00  0.00    +0.000 OA
ENDROOT
TORSDOF 0
ENDMDL
MODEL 4
REMARK VINA RESULT:      -6.9      2.674      7.336
REMARK  Name = 
REMARK  2 active torsions:
REMARK  status: ('A' for Active; 'I' for Inactive)
REMARK    1  A    between atoms: C_1  and  N_2
REMARK    2  A    between atoms: N_22  and  C_23
REMARK                            x       y       z     vdW  Elec       q    Type
REMARK                         _______ _______ _______ _____ _____    ______ ____
ROOT
ATOM      1  C   UNL     1       6.693   3.994  14.001  0.00  0.00    +0.000 C 
ATOM      2  N   UNL     1       6.069   4.427  15.250  0.00  0.00    +0.000 N 
ATOM      3  C   UNL     1       6.237   3.615  16.451  0.00  0.00    +0.000 C 
ATOM      4  C   UNL     1       5.908   4.420  17.753  0.00  0.00    +0.000 C 
ATOM      5  C   UNL     1       4.565   5.167  17.573  0.00  0.00    +0.000 C 
ATOM      6  C   UNL     1       3.480   4.007  17.388  0.00  0.00    +0.000 C 
ATOM      7  C   UNL     1       1.976   4.324  17.529  0.00  0.00    +0.000 C 
ATOM      8  N   UNL     1       1.692   5.278  18.614  0.00  0.00    +0.000 NA
ATOM      9  C   UNL     1       1.330   4.798  20.001  0.00  0.00    +0.000 C 
ATOM     10  C   UNL     1       1.777   5.773  21.168  0.00  0.00    +0.000 C 
ATOM     11  C   UNL     1       1.598   7.173  20.687  0.00  0.00    +0.000 A 
ATOM     12  C   UNL     1       1.970   7.480  19.412  0.00  0.00    +0.000 A 
ATOM     13  O   UNL     1       1.563   8.693  19.074  0.00  0.00    +0.000 OA
ATOM     14  C   UNL     1       0.995   9.216  20.143  0.00  0.00    +0.000 A 
ATOM     15  C   UNL     1       0.408  10.473  20.274  0.00  0.00    +0.000 A 
ATOM     16  C   UNL     1      -0.096  10.836  21.537  0.00  0.00    +0.000 A 
ATOM     17  C   UNL     1      -0.016   9.935  22.624  0.00  0.00    +0.000 A 
ATOM     18  C   UNL     1       0.525   8.646  22.450  0.00  0.00    +0.000 A 
ATOM     19  C   UNL     1       1.022   8.317  21.191  0.00  0.00    +0.000 A 
ATOM     20  C   UNL     1       2.578   6.440  18.533  0.00  0.00    +0.000 C 
ATOM     21  C   UNL     1       4.045   5.961  18.822  0.00  0.00    +0.000 C 
ATOM     22  N   UNL     1       4.856   6.105  16.430  0.00  0.00    +0.000 N 
ATOM     23  C   UNL     1       4.866   7.571  16.603  0.00  0.00    +0.000 C 
ATOM     24  C   UNL     1       5.458   5.647  15.289  0.00  0.00    +0.000 C 
ATOM     25  O   UNL     1       5.541   6.386  14.312  0.00  0.00    +0.000 OA
ENDROOT
TORSDOF 0
ENDMDL
MODEL 5
REMARK VINA RESULT:      -6.6      6.443      8.796
REMARK  Name = 
REMARK  2 active torsions:
REMARK  status: ('A' for Active; 'I' for Inactive)
REMARK    1  A    between atoms: C_1  and  N_2
REMARK    2  A    between atoms: N_22  and  C_23
REMARK                            x       y       z     vdW  Elec       q    Type
REMARK                         _______ _______ _______ _____ _____    ______ ____
ROOT
ATOM      1  C   UNL     1      -1.656  17.095  26.115  0.00  0.00    +0.000 C 
ATOM      2  N   UNL     1      -2.189  16.542  24.871  0.00  0.00    +0.000 N 
ATOM      3  C   UNL     1      -3.471  17.025  24.367  0.00  0.00    +0.000 C 
ATOM      4  C   UNL     1      -3.670  16.681  22.852  0.00  0.00    +0.000 C 
ATOM      5  C   UNL     1      -3.316  15.196  22.608  0.00  0.00    +0.000 C 
ATOM      6  C   UNL     1      -4.384  14.378  23.474  0.00  0.00    +0.000 C 
ATOM      7  C   UNL     1      -4.590  12.869  23.227  0.00  0.00    +0.000 C 
ATOM      8  N   UNL     1      -4.538  12.511  21.801  0.00  0.00    +0.000 NA
ATOM      9  C   UNL     1      -5.797  12.428  20.969  0.00  0.00    +0.000 C 
ATOM     10  C   UNL     1      -5.596  12.783  19.438  0.00  0.00    +0.000 C 
ATOM     11  C   UNL     1      -4.271  12.245  19.016  0.00  0.00    +0.000 A 
ATOM     12  C   UNL     1      -3.207  12.389  19.856  0.00  0.00    +0.000 A 
ATOM     13  O   UNL     1      -2.167  11.687  19.435  0.00  0.00    +0.000 OA
ATOM     14  C   UNL     1      -2.513  11.147  18.283  0.00  0.00    +0.000 A 
ATOM     15  C   UNL     1      -1.751  10.317  17.463  0.00  0.00    +0.000 A 
ATOM     16  C   UNL     1      -2.318   9.897  16.244  0.00  0.00    +0.000 A 
ATOM     17  C   UNL     1      -3.625  10.300  15.887  0.00  0.00    +0.000 A 
ATOM     18  C   UNL     1      -4.398  11.088  16.763  0.00  0.00    +0.000 A 
ATOM     19  C   UNL     1      -3.809  11.494  17.958  0.00  0.00    +0.000 A 
ATOM     20  C   UNL     1      -3.365  13.103  21.155  0.00  0.00    +0.000 C 
ATOM     21  C   UNL     1      -3.542  14.663  21.150  0.00  0.00    +0.000 C 
ATOM     22  N   UNL     1      -1.856  15.136  22.976  0.00  0.00    +0.000 N 
ATOM     23  C   UNL     1      -0.808  14.843  21.978  0.00  0.00    +0.000 C 
ATOM     24  C   UNL     1      -1.410  15.686  24.148  0.00  0.00    +0.000 C 
ATOM     25  O   UNL     1      -0.252  15.489  24.504  0.00  0.00    +0.000 OA
ENDROOT
TORSDOF 0
ENDMDL
MODEL 6
REMARK VINA RESULT:      -6.5      3.868      6.996
REMARK  Name = 
REMARK  2 active torsions:
REMARK  status: ('A' for Active; 'I' for Inactive)
REMARK    1  A    between atoms: C_1  and  N_2
REMARK    2  A    between atoms: N_22  and  C_23
REMARK                            x       y       z     vdW  Elec       q    Type
REMARK                         _______ _______ _______ _____ _____    ______ ____
ROOT
ATOM      1  C   UNL     1      -4.936  16.790  24.543  0.00  0.00    +0.000 C 
ATOM      2  N   UNL     1      -4.136  16.097  23.534  0.00  0.00    +0.000 N 
ATOM      3  C   UNL     1      -4.021  16.673  22.198  0.00  0.00    +0.000 C 
ATOM      4  C   UNL     1      -2.808  16.076  21.407  0.00  0.00    +0.000 C 
ATOM      5  C   UNL     1      -2.821  14.534  21.526  0.00  0.00    +0.000 C 
ATOM      6  C   UNL     1      -4.181  14.085  20.814  0.00  0.00    +0.000 C 
ATOM      7  C   UNL     1      -4.396  12.610  20.414  0.00  0.00    +0.000 C 
ATOM      8  N   UNL     1      -3.176  11.976  19.888  0.00  0.00    +0.000 NA
ATOM      9  C   UNL     1      -2.894  11.938  18.404  0.00  0.00    +0.000 C 
ATOM     10  C   UNL     1      -1.355  11.949  18.029  0.00  0.00    +0.000 C 
ATOM     11  C   UNL     1      -0.632  11.131  19.046  0.00  0.00    +0.000 A 
ATOM     12  C   UNL     1      -0.977  11.263  20.358  0.00  0.00    +0.000 A 
ATOM     13  O   UNL     1      -0.396  10.334  21.100  0.00  0.00    +0.000 OA
ATOM     14  C   UNL     1       0.390   9.642  20.299  0.00  0.00    +0.000 A 
ATOM     15  C   UNL     1       1.200   8.556  20.622  0.00  0.00    +0.000 A 
ATOM     16  C   UNL     1       1.997   8.003  19.601  0.00  0.00    +0.000 A 
ATOM     17  C   UNL     1       1.952   8.534  18.292  0.00  0.00    +0.000 A 
ATOM     18  C   UNL     1       1.077   9.592  17.977  0.00  0.00    +0.000 A 
ATOM     19  C   UNL     1       0.306  10.124  19.008  0.00  0.00    +0.000 A 
ATOM     20  C   UNL     1      -2.033  12.234  20.765  0.00  0.00    +0.000 C 
ATOM     21  C   UNL     1      -1.713  13.770  20.719  0.00  0.00    +0.000 C 
ATOM     22  N   UNL     1      -2.648  14.313  23.007  0.00  0.00    +0.000 N 
ATOM     23  C   UNL     1      -1.445  13.665  23.566  0.00  0.00    +0.000 C 
ATOM     24  C   UNL     1      -3.413  15.002  23.909  0.00  0.00    +0.000 C 
ATOM     25  O   UNL     1      -3.370  14.694  25.096  0.00  0.00    +0.000 OA
ENDROOT
TORSDOF 0
ENDMDL
MODEL 7
REMARK VINA RESULT:      -6.3      7.731      8.428
REMARK  Name = 
REMARK  2 active torsions:
REMARK  status: ('A' for Active; 'I' for Inactive)
REMARK    1  A    between atoms: C_1  and  N_2
REMARK    2  A    between atoms: N_22  and  C_23
REMARK                            x       y       z     vdW  Elec       q    Type
REMARK                         _______ _______ _______ _____ _____    ______ ____
ROOT
ATOM      1  C   UNL     1       0.948  18.444  18.592  0.00  0.00    +0.000 C 
ATOM      2  N   UNL     1       2.014  17.549  19.042  0.00  0.00    +0.000 N 
ATOM      3  C   UNL     1       2.028  17.098  20.430  0.00  0.00    +0.000 C 
ATOM      4  C   UNL     1       2.932  15.834  20.624  0.00  0.00    +0.000 C 
ATOM      5  C   UNL     1       4.294  16.060  19.928  0.00  0.00    +0.000 C 
ATOM      6  C   UNL     1       4.947  17.294  20.709  0.00  0.00    +0.000 C 
ATOM      7  C   UNL     1       6.450  17.605  20.549  0.00  0.00    +0.000 C 
ATOM      8  N   UNL     1       7.282  16.391  20.491  0.00  0.00    +0.000 NA
ATOM      9  C   UNL     1       7.923  15.824  21.736  0.00  0.00    +0.000 C 
ATOM     10  C   UNL     1       8.114  14.251  21.716  0.00  0.00    +0.000 C 
ATOM     11  C   UNL     1       8.477  13.853  20.326  0.00  0.00    +0.000 A 
ATOM     12  C   UNL     1       7.818  14.436  19.285  0.00  0.00    +0.000 A 
ATOM     13  O   UNL     1       8.388  14.135  18.129  0.00  0.00    +0.000 OA
ATOM     14  C   UNL     1       9.369  13.295  18.395  0.00  0.00    +0.000 A 
ATOM     15  C   UNL     1      10.260  12.706  17.501  0.00  0.00    +0.000 A 
ATOM     16  C   UNL     1      11.203  11.795  18.014  0.00  0.00    +0.000 A 
ATOM     17  C   UNL     1      11.241  11.510  19.399  0.00  0.00    +0.000 A 
ATOM     18  C   UNL     1      10.371  12.168  20.291  0.00  0.00    +0.000 A 
ATOM     19  C   UNL     1       9.445  13.058  19.754  0.00  0.00    +0.000 A 
ATOM     20  C   UNL     1       6.731  15.425  19.540  0.00  0.00    +0.000 C 
ATOM     21  C   UNL     1       5.354  14.916  20.097  0.00  0.00    +0.000 C 
ATOM     22  N   UNL     1       3.907  16.216  18.480  0.00  0.00    +0.000 N 
ATOM     23  C   UNL     1       4.314  15.239  17.451  0.00  0.00    +0.000 C 
ATOM     24  C   UNL     1       2.888  17.057  18.117  0.00  0.00    +0.000 C 
ATOM     25  O   UNL     1       2.694  17.291  16.928  0.00  0.00    +0.000 OA
ENDROOT
TORSDOF 0
ENDMDL
MODEL 8
REMARK VINA RESULT:      -6.2      6.476      9.620
REMARK  Name = 
REMARK  2 active torsions:
REMARK  status: ('A' for Active; 'I' for Inactive)
REMARK    1  A    between atoms: C_1  and  N_2
REMARK    2  A    between atoms: N_22  and  C_23
REMARK                            x       y       z     vdW  Elec       q    Type
REMARK                         _______ _______ _______ _____ _____    ______ ____
ROOT
ATOM      1  C   UNL     1      -5.224  18.403  25.744  0.00  0.00    +0.000 C 
ATOM      2  N   UNL     1      -5.285  17.558  24.552  0.00  0.00    +0.000 N 
ATOM      3  C   UNL     1      -6.514  17.522  23.766  0.00  0.00    +0.000 C 
ATOM      4  C   UNL     1      -6.272  16.952  22.328  0.00  0.00    +0.000 C 
ATOM      5  C   UNL     1      -5.441  15.651  22.421  0.00  0.00    +0.000 C 
ATOM      6  C   UNL     1      -6.369  14.635  23.237  0.00  0.00    +0.000 C 
ATOM      7  C   UNL     1      -6.050  13.125  23.240  0.00  0.00    +0.000 C 
ATOM      8  N   UNL     1      -5.589  12.636  21.931  0.00  0.00    +0.000 NA
ATOM      9  C   UNL     1      -6.556  12.039  20.935  0.00  0.00    +0.000 C 
ATOM     10  C   UNL     1      -6.150  12.254  19.418  0.00  0.00    +0.000 C 
ATOM     11  C   UNL     1      -4.666  12.140  19.323  0.00  0.00    +0.000 A 
ATOM     12  C   UNL     1      -3.901  12.730  20.285  0.00  0.00    +0.000 A 
ATOM     13  O   UNL     1      -2.632  12.370  20.174  0.00  0.00    +0.000 OA
ATOM     14  C   UNL     1      -2.544  11.610  19.100  0.00  0.00    +0.000 A 
ATOM     15  C   UNL     1      -1.410  10.989  18.581  0.00  0.00    +0.000 A 
ATOM     16  C   UNL     1      -1.549  10.260  17.384  0.00  0.00    +0.000 A 
ATOM     17  C   UNL     1      -2.809  10.159  16.751  0.00  0.00    +0.000 A 
ATOM     18  C   UNL     1      -3.952  10.744  17.330  0.00  0.00    +0.000 A 
ATOM     19  C   UNL     1      -3.784  11.464  18.510  0.00  0.00    +0.000 A 
ATOM     20  C   UNL     1      -4.541  13.503  21.388  0.00  0.00    +0.000 C 
ATOM     21  C   UNL     1      -5.177  14.902  21.068  0.00  0.00    +0.000 C 
ATOM     22  N   UNL     1      -4.146  16.126  23.027  0.00  0.00    +0.000 N 
ATOM     23  C   UNL     1      -2.870  16.080  22.284  0.00  0.00    +0.000 C 
ATOM     24  C   UNL     1      -4.148  16.930  24.135  0.00  0.00    +0.000 C 
ATOM     25  O   UNL     1      -3.088  17.174  24.705  0.00  0.00    +0.000 OA
ENDROOT
TORSDOF 0
ENDMDL
MODEL 9
REMARK VINA RESULT:      -6.1      8.512      9.916
REMARK  Name = 
REMARK  2 active torsions:
REMARK  status: ('A' for Active; 'I' for Inactive)
REMARK    1  A    between atoms: C_1  and  N_2
REMARK    2  A    between atoms: N_22  and  C_23
REMARK                            x       y       z     vdW  Elec       q    Type
REMARK                         _______ _______ _______ _____ _____    ______ ____
ROOT
ATOM      1  C   UNL     1       4.351  13.626  28.282  0.00  0.00    +0.000 C 
ATOM      2  N   UNL     1       5.456  13.729  27.331  0.00  0.00    +0.000 N 
ATOM      3  C   UNL     1       6.467  14.764  27.522  0.00  0.00    +0.000 C 
ATOM      4  C   UNL     1       7.775  14.459  26.716  0.00  0.00    +0.000 C 
ATOM      5  C   UNL     1       7.409  14.073  25.264  0.00  0.00    +0.000 C 
ATOM      6  C   UNL     1       6.715  15.381  24.659  0.00  0.00    +0.000 C 
ATOM      7  C   UNL     1       6.522  15.522  23.135  0.00  0.00    +0.000 C 
ATOM      8  N   UNL     1       7.667  15.009  22.364  0.00  0.00    +0.000 NA
ATOM      9  C   UNL     1       8.784  15.926  21.921  0.00  0.00    +0.000 C 
ATOM     10  C   UNL     1      10.200  15.224  21.808  0.00  0.00    +0.000 C 
ATOM     11  C   UNL     1       9.985  13.844  21.285  0.00  0.00    +0.000 A 
ATOM     12  C   UNL     1       8.942  13.115  21.771  0.00  0.00    +0.000 A 
ATOM     13  O   UNL     1       8.765  12.007  21.069  0.00  0.00    +0.000 OA
ATOM     14  C   UNL     1       9.732  11.964  20.174  0.00  0.00    +0.000 A 
ATOM     15  C   UNL     1       9.959  10.990  19.204  0.00  0.00    +0.000 A 
ATOM     16  C   UNL     1      11.095  11.131  18.383  0.00  0.00    +0.000 A 
ATOM     17  C   UNL     1      11.958  12.240  18.542  0.00  0.00    +0.000 A 
ATOM     18  C   UNL     1      11.671  13.243  19.488  0.00  0.00    +0.000 A 
ATOM     19  C   UNL     1      10.545  13.074  20.290  0.00  0.00    +0.000 A 
ATOM     20  C   UNL     1       8.058  13.678  22.832  0.00  0.00    +0.000 C 
ATOM     21  C   UNL     1       8.614  13.814  24.294  0.00  0.00    +0.000 C 
ATOM     22  N   UNL     1       6.596  12.817  25.448  0.00  0.00    +0.000 N 
ATOM     23  C   UNL     1       7.062  11.504  24.958  0.00  0.00    +0.000 C 
ATOM     24  C   UNL     1       5.582  12.771  26.367  0.00  0.00    +0.000 C 
ATOM     25  O   UNL     1       4.833  11.799  26.391  0.00  0.00    +0.000 OA
ENDROOT
TORSDOF 0
ENDMDL
