MODEL 1
REMARK VINA RESULT:      -7.4      0.000      0.000
REMARK  Name = 
REMARK  7 active torsions:
REMARK  status: ('A' for Active; 'I' for Inactive)
REMARK    1  A    between atoms: C_1  and  C_2
REMARK    2  A    between atoms: C_2  and  O_3
REMARK    3  A    between atoms: O_3  and  C_4
REMARK    4  A    between atoms: C_4  and  C_6
REMARK    5  A    between atoms: C_6  and  N_7
REMARK    6  A    between atoms: C_8  and  C_9
REMARK    7  A    between atoms: C_15  and  C_16
REMARK                            x       y       z     vdW  Elec       q    Type
REMARK                         _______ _______ _______ _____ _____    ______ ____
ROOT
ATOM      1  N   UNL     1       5.467   5.622  17.029  0.00  0.00    +0.000 N 
ATOM      2  C   UNL     1       5.576   4.372  16.391  0.00  0.00    +0.000 A 
ATOM      3  C   UNL     1       6.860   3.925  15.737  0.00  0.00    +0.000 C 
ATOM      4  C   UNL     1       4.539   3.511  16.351  0.00  0.00    +0.000 A 
ATOM      5  C   UNL     1       3.253   3.859  16.992  0.00  0.00    +0.000 A 
ATOM      6  O   UNL     1       2.260   3.149  16.971  0.00  0.00    +0.000 OA
ATOM      7  N   UNL     1       3.248   5.085  17.643  0.00  0.00    +0.000 N 
ATOM      8  C   UNL     1       2.210   5.671  18.326  0.00  0.00    +0.000 A 
ATOM      9  C   UNL     1       2.699   6.876  18.779  0.00  0.00    +0.000 A 
ATOM     10  N   UNL     1       4.020   7.028  18.404  0.00  0.00    +0.000 NA
ATOM     11  C   UNL     1       4.317   5.955  17.693  0.00  0.00    +0.000 A 
ENDROOT
BRANCH   9  12
ATOM     12  C   UNL     1       1.936   7.848  19.544  0.00  0.00    +0.000 A 
ATOM     13  C   UNL     1       1.612   7.616  20.892  0.00  0.00    +0.000 A 
ATOM     14  C   UNL     1       0.891   8.558  21.630  0.00  0.00    +0.000 A 
ATOM     15  C   UNL     1       0.489   9.749  21.029  0.00  0.00    +0.000 A 
ATOM     16  C   UNL     1       0.803   9.984  19.692  0.00  0.00    +0.000 A 
ATOM     17 BR   UNL     1       0.260  11.606  18.883  0.00  0.00    +0.000 Br
ATOM     18  C   UNL     1       1.518   9.043  18.947  0.00  0.00    +0.000 A 
ENDBRANCH   9  12
BRANCH   1  19
ATOM     19  C   UNL     1       6.560   6.613  17.120  0.00  0.00    +0.000 C 
BRANCH  19  20
ATOM     20  C   UNL     1       7.496   6.309  18.280  0.00  0.00    +0.000 C 
ATOM     21  O   UNL     1       7.587   5.239  18.871  0.00  0.00    +0.000 OA
BRANCH  20  22
ATOM     22  O   UNL     1       8.229   7.425  18.575  0.00  0.00    +0.000 OA
BRANCH  22  24
ATOM     23  C   UNL     1       8.680   9.757  18.351  0.00  0.00    +0.000 C 
ATOM     24  C   UNL     1       7.950   8.565  17.753  0.00  0.00    +0.000 C 
ENDBRANCH  22  24
ENDBRANCH  20  22
ENDBRANCH  19  20
ENDBRANCH   1  19
TORSDOF 5
ENDMDL
MODEL 2
REMARK VINA RESULT:      -7.3      1.638      2.169
REMARK  Name = 
REMARK  7 active torsions:
REMARK  status: ('A' for Active; 'I' for Inactive)
REMARK    1  A    between atoms: C_1  and  C_2
REMARK    2  A    between atoms: C_2  and  O_3
REMARK    3  A    between atoms: O_3  and  C_4
REMARK    4  A    between atoms: C_4  and  C_6
REMARK    5  A    between atoms: C_6  and  N_7
REMARK    6  A    between atoms: C_8  and  C_9
REMARK    7  A    between atoms: C_15  and  C_16
REMARK                            x       y       z     vdW  Elec       q    Type
REMARK                         _______ _______ _______ _____ _____    ______ ____
ROOT
ATOM      1  N   UNL     1       4.541   5.345  16.721  0.00  0.00    +0.000 N 
ATOM      2  C   UNL     1       4.735   3.950  16.706  0.00  0.00    +0.000 A 
ATOM      3  C   UNL     1       5.748   3.302  15.797  0.00  0.00    +0.000 C 
ATOM      4  C   UNL     1       4.033   3.135  17.519  0.00  0.00    +0.000 A 
ATOM      5  C   UNL     1       3.039   3.692  18.461  0.00  0.00    +0.000 A 
ATOM      6  O   UNL     1       2.343   3.018  19.203  0.00  0.00    +0.000 OA
ATOM      7  N   UNL     1       2.949   5.077  18.449  0.00  0.00    +0.000 N 
ATOM      8  C   UNL     1       2.127   5.873  19.209  0.00  0.00    +0.000 A 
ATOM      9  C   UNL     1       2.406   7.166  18.824  0.00  0.00    +0.000 A 
ATOM     10  N   UNL     1       3.394   7.176  17.860  0.00  0.00    +0.000 NA
ATOM     11  C   UNL     1       3.681   5.908  17.625  0.00  0.00    +0.000 A 
ENDROOT
BRANCH   9  12
ATOM     12  C   UNL     1       1.754   8.351  19.357  0.00  0.00    +0.000 A 
ATOM     13  C   UNL     1       1.562   9.492  18.561  0.00  0.00    +0.000 A 
ATOM     14  C   UNL     1       0.923  10.625  19.070  0.00  0.00    +0.000 A 
ATOM     15  C   UNL     1       0.463  10.628  20.385  0.00  0.00    +0.000 A 
ATOM     16  C   UNL     1       0.653   9.502  21.183  0.00  0.00    +0.000 A 
ATOM     17 BR   UNL     1       0.020   9.509  22.966  0.00  0.00    +0.000 Br
ATOM     18  C   UNL     1       1.298   8.368  20.680  0.00  0.00    +0.000 A 
ENDBRANCH   9  12
BRANCH   1  19
ATOM     19  C   UNL     1       5.277   6.301  15.867  0.00  0.00    +0.000 C 
BRANCH  19  20
ATOM     20  C   UNL     1       6.730   6.433  16.299  0.00  0.00    +0.000 C 
ATOM     21  O   UNL     1       7.708   6.063  15.659  0.00  0.00    +0.000 OA
BRANCH  20  22
ATOM     22  O   UNL     1       6.784   7.028  17.529  0.00  0.00    +0.000 OA
BRANCH  22  24
ATOM     23  C   UNL     1       6.972   5.531  19.378  0.00  0.00    +0.000 C 
ATOM     24  C   UNL     1       7.731   6.453  18.438  0.00  0.00    +0.000 C 
ENDBRANCH  22  24
ENDBRANCH  20  22
ENDBRANCH  19  20
ENDBRANCH   1  19
TORSDOF 5
ENDMDL
MODEL 3
REMARK VINA RESULT:      -7.3      2.531      3.590
REMARK  Name = 
REMARK  7 active torsions:
REMARK  status: ('A' for Active; 'I' for Inactive)
REMARK    1  A    between atoms: C_1  and  C_2
REMARK    2  A    between atoms: C_2  and  O_3
REMARK    3  A    between atoms: O_3  and  C_4
REMARK    4  A    between atoms: C_4  and  C_6
REMARK    5  A    between atoms: C_6  and  N_7
REMARK    6  A    between atoms: C_8  and  C_9
REMARK    7  A    between atoms: C_15  and  C_16
REMARK                            x       y       z     vdW  Elec       q    Type
REMARK                         _______ _______ _______ _____ _____    ______ ____
ROOT
ATOM      1  N   UNL     1       3.483   3.623  18.304  0.00  0.00    +0.000 N 
ATOM      2  C   UNL     1       3.574   2.425  19.039  0.00  0.00    +0.000 A 
ATOM      3  C   UNL     1       4.213   1.188  18.460  0.00  0.00    +0.000 C 
ATOM      4  C   UNL     1       3.106   2.338  20.300  0.00  0.00    +0.000 A 
ATOM      5  C   UNL     1       2.488   3.513  20.951  0.00  0.00    +0.000 A 
ATOM      6  O   UNL     1       2.013   3.505  22.076  0.00  0.00    +0.000 OA
ATOM      7  N   UNL     1       2.487   4.666  20.178  0.00  0.00    +0.000 N 
ATOM      8  C   UNL     1       1.993   5.903  20.511  0.00  0.00    +0.000 A 
ATOM      9  C   UNL     1       2.221   6.701  19.413  0.00  0.00    +0.000 A 
ATOM     10  N   UNL     1       2.863   5.982  18.424  0.00  0.00    +0.000 NA
ATOM     11  C   UNL     1       2.981   4.752  18.892  0.00  0.00    +0.000 A 
ENDROOT
BRANCH   9  12
ATOM     12  C   UNL     1       1.843   8.100  19.309  0.00  0.00    +0.000 A 
ATOM     13  C   UNL     1       2.135   8.846  18.154  0.00  0.00    +0.000 A 
ATOM     14  C   UNL     1       1.758  10.187  18.050  0.00  0.00    +0.000 A 
ATOM     15  C   UNL     1       1.079  10.799  19.101  0.00  0.00    +0.000 A 
ATOM     16  C   UNL     1       0.789  10.068  20.251  0.00  0.00    +0.000 A 
ATOM     17 BR   UNL     1      -0.141  10.902  21.672  0.00  0.00    +0.000 Br
ATOM     18  C   UNL     1       1.169   8.728  20.363  0.00  0.00    +0.000 A 
ENDBRANCH   9  12
BRANCH   1  19
ATOM     19  C   UNL     1       3.979   3.796  16.922  0.00  0.00    +0.000 C 
BRANCH  19  20
ATOM     20  C   UNL     1       5.385   4.378  16.902  0.00  0.00    +0.000 C 
ATOM     21  O   UNL     1       6.201   4.322  17.815  0.00  0.00    +0.000 OA
BRANCH  20  22
ATOM     22  O   UNL     1       5.605   4.988  15.698  0.00  0.00    +0.000 OA
BRANCH  22  24
ATOM     23  C   UNL     1       6.075   3.897  13.628  0.00  0.00    +0.000 C 
ATOM     24  C   UNL     1       6.671   4.428  14.922  0.00  0.00    +0.000 C 
ENDBRANCH  22  24
ENDBRANCH  20  22
ENDBRANCH  19  20
ENDBRANCH   1  19
TORSDOF 5
ENDMDL
MODEL 4
REMARK VINA RESULT:      -7.2      1.241      1.621
REMARK  Name = 
REMARK  7 active torsions:
REMARK  status: ('A' for Active; 'I' for Inactive)
REMARK    1  A    between atoms: C_1  and  C_2
REMARK    2  A    between atoms: C_2  and  O_3
REMARK    3  A    between atoms: O_3  and  C_4
REMARK    4  A    between atoms: C_4  and  C_6
REMARK    5  A    between atoms: C_6  and  N_7
REMARK    6  A    between atoms: C_8  and  C_9
REMARK    7  A    between atoms: C_15  and  C_16
REMARK                            x       y       z     vdW  Elec       q    Type
REMARK                         _______ _______ _______ _____ _____    ______ ____
ROOT
ATOM      1  N   UNL     1       4.903   5.529  16.573  0.00  0.00    +0.000 N 
ATOM      2  C   UNL     1       4.977   4.141  16.351  0.00  0.00    +0.000 A 
ATOM      3  C   UNL     1       6.108   3.523  15.568  0.00  0.00    +0.000 C 
ATOM      4  C   UNL     1       4.045   3.301  16.845  0.00  0.00    +0.000 A 
ATOM      5  C   UNL     1       2.917   3.822  17.646  0.00  0.00    +0.000 A 
ATOM      6  O   UNL     1       2.019   3.131  18.100  0.00  0.00    +0.000 OA
ATOM      7  N   UNL     1       2.950   5.194  17.862  0.00  0.00    +0.000 N 
ATOM      8  C   UNL     1       2.051   5.956  18.566  0.00  0.00    +0.000 A 
ATOM      9  C   UNL     1       2.516   7.249  18.481  0.00  0.00    +0.000 A 
ATOM     10  N   UNL     1       3.692   7.288  17.758  0.00  0.00    +0.000 NA
ATOM     11  C   UNL     1       3.915   6.046  17.366  0.00  0.00    +0.000 A 
ENDROOT
BRANCH   9  12
ATOM     12  C   UNL     1       1.866   8.408  19.071  0.00  0.00    +0.000 A 
ATOM     13  C   UNL     1       1.726   9.605  18.349  0.00  0.00    +0.000 A 
ATOM     14  C   UNL     1       1.088  10.713  18.912  0.00  0.00    +0.000 A 
ATOM     15  C   UNL     1       0.576  10.635  20.205  0.00  0.00    +0.000 A 
ATOM     16  C   UNL     1       0.715   9.452  20.929  0.00  0.00    +0.000 A 
ATOM     17 BR   UNL     1       0.012   9.350  22.683  0.00  0.00    +0.000 Br
ATOM     18  C   UNL     1       1.359   8.343  20.374  0.00  0.00    +0.000 A 
ENDBRANCH   9  12
BRANCH   1  19
ATOM     19  C   UNL     1       5.889   6.510  16.071  0.00  0.00    +0.000 C 
BRANCH  19  20
ATOM     20  C   UNL     1       7.036   6.702  17.052  0.00  0.00    +0.000 C 
ATOM     21  O   UNL     1       7.716   5.811  17.549  0.00  0.00    +0.000 OA
BRANCH  20  22
ATOM     22  O   UNL     1       7.195   8.036  17.306  0.00  0.00    +0.000 OA
BRANCH  22  24
ATOM     23  C   UNL     1       8.444   9.882  18.160  0.00  0.00    +0.000 C 
ATOM     24  C   UNL     1       8.330   8.367  18.117  0.00  0.00    +0.000 C 
ENDBRANCH  22  24
ENDBRANCH  20  22
ENDBRANCH  19  20
ENDBRANCH   1  19
TORSDOF 5
ENDMDL
MODEL 5
REMARK VINA RESULT:      -7.2      2.270      3.305
REMARK  Name = 
REMARK  7 active torsions:
REMARK  status: ('A' for Active; 'I' for Inactive)
REMARK    1  A    between atoms: C_1  and  C_2
REMARK    2  A    between atoms: C_2  and  O_3
REMARK    3  A    between atoms: O_3  and  C_4
REMARK    4  A    between atoms: C_4  and  C_6
REMARK    5  A    between atoms: C_6  and  N_7
REMARK    6  A    between atoms: C_8  and  C_9
REMARK    7  A    between atoms: C_15  and  C_16
REMARK                            x       y       z     vdW  Elec       q    Type
REMARK                         _______ _______ _______ _____ _____    ______ ____
ROOT
ATOM      1  N   UNL     1       3.346   3.649  18.300  0.00  0.00    +0.000 N 
ATOM      2  C   UNL     1       3.470   2.443  19.016  0.00  0.00    +0.000 A 
ATOM      3  C   UNL     1       4.083   1.212  18.395  0.00  0.00    +0.000 C 
ATOM      4  C   UNL     1       3.059   2.341  20.296  0.00  0.00    +0.000 A 
ATOM      5  C   UNL     1       2.472   3.507  20.988  0.00  0.00    +0.000 A 
ATOM      6  O   UNL     1       2.048   3.486  22.133  0.00  0.00    +0.000 OA
ATOM      7  N   UNL     1       2.436   4.669  20.229  0.00  0.00    +0.000 N 
ATOM      8  C   UNL     1       1.957   5.902  20.599  0.00  0.00    +0.000 A 
ATOM      9  C   UNL     1       2.135   6.713  19.501  0.00  0.00    +0.000 A 
ATOM     10  N   UNL     1       2.732   6.006  18.476  0.00  0.00    +0.000 NA
ATOM     11  C   UNL     1       2.872   4.771  18.924  0.00  0.00    +0.000 A 
ENDROOT
BRANCH   9  12
ATOM     12  C   UNL     1       1.753   8.113  19.431  0.00  0.00    +0.000 A 
ATOM     13  C   UNL     1       2.004   8.876  18.278  0.00  0.00    +0.000 A 
ATOM     14  C   UNL     1       1.623  10.218  18.206  0.00  0.00    +0.000 A 
ATOM     15  C   UNL     1       0.980  10.814  19.289  0.00  0.00    +0.000 A 
ATOM     16  C   UNL     1       0.731  10.066  20.437  0.00  0.00    +0.000 A 
ATOM     17 BR   UNL     1      -0.149  10.879  21.901  0.00  0.00    +0.000 Br
ATOM     18  C   UNL     1       1.116   8.725  20.517  0.00  0.00    +0.000 A 
ENDBRANCH   9  12
BRANCH   1  19
ATOM     19  C   UNL     1       3.779   3.839  16.899  0.00  0.00    +0.000 C 
BRANCH  19  20
ATOM     20  C   UNL     1       5.051   4.670  16.816  0.00  0.00    +0.000 C 
ATOM     21  O   UNL     1       5.270   5.575  16.018  0.00  0.00    +0.000 OA
BRANCH  20  22
ATOM     22  O   UNL     1       5.931   4.248  17.774  0.00  0.00    +0.000 OA
BRANCH  22  24
ATOM     23  C   UNL     1       7.632   5.629  18.718  0.00  0.00    +0.000 C 
ATOM     24  C   UNL     1       7.284   4.678  17.584  0.00  0.00    +0.000 C 
ENDBRANCH  22  24
ENDBRANCH  20  22
ENDBRANCH  19  20
ENDBRANCH   1  19
TORSDOF 5
ENDMDL
MODEL 6
REMARK VINA RESULT:      -7.1      4.775      8.558
REMARK  Name = 
REMARK  7 active torsions:
REMARK  status: ('A' for Active; 'I' for Inactive)
REMARK    1  A    between atoms: C_1  and  C_2
REMARK    2  A    between atoms: C_2  and  O_3
REMARK    3  A    between atoms: O_3  and  C_4
REMARK    4  A    between atoms: C_4  and  C_6
REMARK    5  A    between atoms: C_6  and  N_7
REMARK    6  A    between atoms: C_8  and  C_9
REMARK    7  A    between atoms: C_15  and  C_16
REMARK                            x       y       z     vdW  Elec       q    Type
REMARK                         _______ _______ _______ _____ _____    ______ ____
ROOT
ATOM      1  N   UNL     1      -0.647  11.250  20.174  0.00  0.00    +0.000 N 
ATOM      2  C   UNL     1      -1.201  11.780  21.354  0.00  0.00    +0.000 A 
ATOM      3  C   UNL     1      -2.170  12.936  21.323  0.00  0.00    +0.000 C 
ATOM      4  C   UNL     1      -0.902  11.266  22.563  0.00  0.00    +0.000 A 
ATOM      5  C   UNL     1       0.018  10.115  22.680  0.00  0.00    +0.000 A 
ATOM      6  O   UNL     1       0.362   9.615  23.739  0.00  0.00    +0.000 OA
ATOM      7  N   UNL     1       0.477   9.620  21.467  0.00  0.00    +0.000 N 
ATOM      8  C   UNL     1       1.331   8.565  21.257  0.00  0.00    +0.000 A 
ATOM      9  C   UNL     1       1.484   8.479  19.892  0.00  0.00    +0.000 A 
ATOM     10  N   UNL     1       0.725   9.446  19.263  0.00  0.00    +0.000 NA
ATOM     11  C   UNL     1       0.156  10.142  20.231  0.00  0.00    +0.000 A 
ENDROOT
BRANCH   9  12
ATOM     12  C   UNL     1       2.322   7.507  19.209  0.00  0.00    +0.000 A 
ATOM     13  C   UNL     1       3.031   7.853  18.046  0.00  0.00    +0.000 A 
ATOM     14  C   UNL     1       3.848   6.922  17.398  0.00  0.00    +0.000 A 
ATOM     15  C   UNL     1       3.969   5.632  17.911  0.00  0.00    +0.000 A 
ATOM     16  C   UNL     1       3.265   5.281  19.061  0.00  0.00    +0.000 A 
ATOM     17 BR   UNL     1       3.439   3.530  19.756  0.00  0.00    +0.000 Br
ATOM     18  C   UNL     1       2.442   6.206  19.709  0.00  0.00    +0.000 A 
ENDBRANCH   9  12
BRANCH   1  19
ATOM     19  C   UNL     1      -0.932  11.755  18.814  0.00  0.00    +0.000 C 
BRANCH  19  20
ATOM     20  C   UNL     1      -2.209  11.149  18.250  0.00  0.00    +0.000 C 
ATOM     21  O   UNL     1      -3.353  11.444  18.579  0.00  0.00    +0.000 OA
BRANCH  20  22
ATOM     22  O   UNL     1      -1.888  10.209  17.311  0.00  0.00    +0.000 OA
BRANCH  22  24
ATOM     23  C   UNL     1      -2.899  10.596  15.184  0.00  0.00    +0.000 C 
ATOM     24  C   UNL     1      -2.974   9.795  16.473  0.00  0.00    +0.000 C 
ENDBRANCH  22  24
ENDBRANCH  20  22
ENDBRANCH  19  20
ENDBRANCH   1  19
TORSDOF 5
ENDMDL
MODEL 7
REMARK VINA RESULT:      -7.0      2.757      4.866
REMARK  Name = 
REMARK  7 active torsions:
REMARK  status: ('A' for Active; 'I' for Inactive)
REMARK    1  A    between atoms: C_1  and  C_2
REMARK    2  A    between atoms: C_2  and  O_3
REMARK    3  A    between atoms: O_3  and  C_4
REMARK    4  A    between atoms: C_4  and  C_6
REMARK    5  A    between atoms: C_6  and  N_7
REMARK    6  A    between atoms: C_8  and  C_9
REMARK    7  A    between atoms: C_15  and  C_16
REMARK                            x       y       z     vdW  Elec       q    Type
REMARK                         _______ _______ _______ _____ _____    ______ ____
ROOT
ATOM      1  N   UNL     1       3.199   4.904  20.157  0.00  0.00    +0.000 N 
ATOM      2  C   UNL     1       4.095   4.145  19.381  0.00  0.00    +0.000 A 
ATOM      3  C   UNL     1       4.537   2.766  19.803  0.00  0.00    +0.000 C 
ATOM      4  C   UNL     1       4.585   4.613  18.215  0.00  0.00    +0.000 A 
ATOM      5  C   UNL     1       4.181   5.944  17.714  0.00  0.00    +0.000 A 
ATOM      6  O   UNL     1       4.605   6.449  16.687  0.00  0.00    +0.000 OA
ATOM      7  N   UNL     1       3.255   6.602  18.512  0.00  0.00    +0.000 N 
ATOM      8  C   UNL     1       2.695   7.839  18.306  0.00  0.00    +0.000 A 
ATOM      9  C   UNL     1       1.850   8.045  19.374  0.00  0.00    +0.000 A 
ATOM     10  N   UNL     1       1.869   6.951  20.217  0.00  0.00    +0.000 NA
ATOM     11  C   UNL     1       2.746   6.111  19.697  0.00  0.00    +0.000 A 
ENDROOT
BRANCH   9  12
ATOM     12  C   UNL     1       1.052   9.241  19.584  0.00  0.00    +0.000 A 
ATOM     13  C   UNL     1       0.764  10.115  18.522  0.00  0.00    +0.000 A 
ATOM     14  C   UNL     1      -0.016  11.257  18.722  0.00  0.00    +0.000 A 
ATOM     15  C   UNL     1      -0.521  11.537  19.990  0.00  0.00    +0.000 A 
ATOM     16  C   UNL     1      -0.236  10.678  21.049  0.00  0.00    +0.000 A 
ATOM     17 BR   UNL     1      -0.931  11.060  22.766  0.00  0.00    +0.000 Br
ATOM     18  C   UNL     1       0.549   9.538  20.855  0.00  0.00    +0.000 A 
ENDBRANCH   9  12
BRANCH   1  19
ATOM     19  C   UNL     1       2.615   4.456  21.439  0.00  0.00    +0.000 C 
BRANCH  19  20
ATOM     20  C   UNL     1       1.651   3.295  21.238  0.00  0.00    +0.000 C 
ATOM     21  O   UNL     1       1.649   2.243  21.868  0.00  0.00    +0.000 OA
BRANCH  20  22
ATOM     22  O   UNL     1       0.777   3.602  20.233  0.00  0.00    +0.000 OA
BRANCH  22  24
ATOM     23  C   UNL     1       1.121   3.367  17.883  0.00  0.00    +0.000 C 
ATOM     24  C   UNL     1       0.727   2.649  19.163  0.00  0.00    +0.000 C 
ENDBRANCH  22  24
ENDBRANCH  20  22
ENDBRANCH  19  20
ENDBRANCH   1  19
TORSDOF 5
ENDMDL
MODEL 8
REMARK VINA RESULT:      -7.0      4.623      8.322
REMARK  Name = 
REMARK  7 active torsions:
REMARK  status: ('A' for Active; 'I' for Inactive)
REMARK    1  A    between atoms: C_1  and  C_2
REMARK    2  A    between atoms: C_2  and  O_3
REMARK    3  A    between atoms: O_3  and  C_4
REMARK    4  A    between atoms: C_4  and  C_6
REMARK    5  A    between atoms: C_6  and  N_7
REMARK    6  A    between atoms: C_8  and  C_9
REMARK    7  A    between atoms: C_15  and  C_16
REMARK                            x       y       z     vdW  Elec       q    Type
REMARK                         _______ _______ _______ _____ _____    ______ ____
ROOT
ATOM      1  N   UNL     1      -0.424  10.981  19.736  0.00  0.00    +0.000 N 
ATOM      2  C   UNL     1      -1.025  11.677  20.802  0.00  0.00    +0.000 A 
ATOM      3  C   UNL     1      -1.940  12.853  20.564  0.00  0.00    +0.000 C 
ATOM      4  C   UNL     1      -0.821  11.312  22.083  0.00  0.00    +0.000 A 
ATOM      5  C   UNL     1       0.040  10.154  22.403  0.00  0.00    +0.000 A 
ATOM      6  O   UNL     1       0.299   9.781  23.537  0.00  0.00    +0.000 OA
ATOM      7  N   UNL     1       0.549   9.492  21.294  0.00  0.00    +0.000 N 
ATOM      8  C   UNL     1       1.368   8.389  21.274  0.00  0.00    +0.000 A 
ATOM      9  C   UNL     1       1.598   8.123  19.943  0.00  0.00    +0.000 A 
ATOM     10  N   UNL     1       0.920   9.028  19.150  0.00  0.00    +0.000 NA
ATOM     11  C   UNL     1       0.325   9.862  19.984  0.00  0.00    +0.000 A 
ENDROOT
BRANCH   9  12
ATOM     12  C   UNL     1       2.432   7.043  19.443  0.00  0.00    +0.000 A 
ATOM     13  C   UNL     1       2.467   5.796  20.089  0.00  0.00    +0.000 A 
ATOM     14  C   UNL     1       3.259   4.754  19.599  0.00  0.00    +0.000 A 
ATOM     15  C   UNL     1       4.024   4.947  18.451  0.00  0.00    +0.000 A 
ATOM     16  C   UNL     1       3.998   6.183  17.807  0.00  0.00    +0.000 A 
ATOM     17 BR   UNL     1       5.034   6.436  16.244  0.00  0.00    +0.000 Br
ATOM     18  C   UNL     1       3.213   7.230  18.296  0.00  0.00    +0.000 A 
ENDBRANCH   9  12
BRANCH   1  19
ATOM     19  C   UNL     1      -0.606  11.317  18.308  0.00  0.00    +0.000 C 
BRANCH  19  20
ATOM     20  C   UNL     1      -1.903  10.740  17.759  0.00  0.00    +0.000 C 
ATOM     21  O   UNL     1      -2.527   9.796  18.229  0.00  0.00    +0.000 OA
BRANCH  20  22
ATOM     22  O   UNL     1      -2.272  11.439  16.644  0.00  0.00    +0.000 OA
BRANCH  22  24
ATOM     23  C   UNL     1      -3.056  10.273  14.715  0.00  0.00    +0.000 C 
ATOM     24  C   UNL     1      -3.465  10.970  16.002  0.00  0.00    +0.000 C 
ENDBRANCH  22  24
ENDBRANCH  20  22
ENDBRANCH  19  20
ENDBRANCH   1  19
TORSDOF 5
ENDMDL
MODEL 9
REMARK VINA RESULT:      -7.0      2.268      3.047
REMARK  Name = 
REMARK  7 active torsions:
REMARK  status: ('A' for Active; 'I' for Inactive)
REMARK    1  A    between atoms: C_1  and  C_2
REMARK    2  A    between atoms: C_2  and  O_3
REMARK    3  A    between atoms: O_3  and  C_4
REMARK    4  A    between atoms: C_4  and  C_6
REMARK    5  A    between atoms: C_6  and  N_7
REMARK    6  A    between atoms: C_8  and  C_9
REMARK    7  A    between atoms: C_15  and  C_16
REMARK                            x       y       z     vdW  Elec       q    Type
REMARK                         _______ _______ _______ _____ _____    ______ ____
ROOT
ATOM      1  N   UNL     1       3.500   3.786  18.633  0.00  0.00    +0.000 N 
ATOM      2  C   UNL     1       3.452   2.460  19.103  0.00  0.00    +0.000 A 
ATOM      3  C   UNL     1       4.269   1.364  18.466  0.00  0.00    +0.000 C 
ATOM      4  C   UNL     1       2.684   2.115  20.156  0.00  0.00    +0.000 A 
ATOM      5  C   UNL     1       1.872   3.134  20.855  0.00  0.00    +0.000 A 
ATOM      6  O   UNL     1       1.129   2.896  21.794  0.00  0.00    +0.000 OA
ATOM      7  N   UNL     1       2.018   4.424  20.362  0.00  0.00    +0.000 N 
ATOM      8  C   UNL     1       1.404   5.569  20.805  0.00  0.00    +0.000 A 
ATOM      9  C   UNL     1       1.868   6.577  19.991  0.00  0.00    +0.000 A 
ATOM     10  N   UNL     1       2.770   6.074  19.073  0.00  0.00    +0.000 NA
ATOM     11  C   UNL     1       2.818   4.773  19.293  0.00  0.00    +0.000 A 
ENDROOT
BRANCH   9  12
ATOM     12  C   UNL     1       1.470   7.972  20.084  0.00  0.00    +0.000 A 
ATOM     13  C   UNL     1       1.721   8.869  19.032  0.00  0.00    +0.000 A 
ATOM     14  C   UNL     1       1.324  10.206  19.117  0.00  0.00    +0.000 A 
ATOM     15  C   UNL     1       0.666  10.662  20.257  0.00  0.00    +0.000 A 
ATOM     16  C   UNL     1       0.418   9.780  21.307  0.00  0.00    +0.000 A 
ATOM     17 BR   UNL     1      -0.482  10.403  22.850  0.00  0.00    +0.000 Br
ATOM     18  C   UNL     1       0.818   8.443  21.230  0.00  0.00    +0.000 A 
ENDBRANCH   9  12
BRANCH   1  19
ATOM     19  C   UNL     1       4.321   4.240  17.490  0.00  0.00    +0.000 C 
BRANCH  19  20
ATOM     20  C   UNL     1       5.732   4.605  17.928  0.00  0.00    +0.000 C 
ATOM     21  O   UNL     1       6.270   4.273  18.978  0.00  0.00    +0.000 OA
BRANCH  20  22
ATOM     22  O   UNL     1       6.319   5.375  16.963  0.00  0.00    +0.000 OA
BRANCH  22  24
ATOM     23  C   UNL     1       7.475   7.391  17.506  0.00  0.00    +0.000 C 
ATOM     24  C   UNL     1       6.134   6.788  17.120  0.00  0.00    +0.000 C 
ENDBRANCH  22  24
ENDBRANCH  20  22
ENDBRANCH  19  20
ENDBRANCH   1  19
TORSDOF 5
ENDMDL
