MODEL 1
REMARK VINA RESULT:      -8.9      0.000      0.000
REMARK  Name = 
REMARK  6 active torsions:
REMARK  status: ('A' for Active; 'I' for Inactive)
REMARK    1  A    between atoms: C_2  and  C_3
REMARK    2  A    between atoms: C_3  and  C_4
REMARK    3  A    between atoms: C_4  and  N_5
REMARK    4  A    between atoms: N_18  and  N_19
REMARK    5  A    between atoms: C_20  and  C_22
REMARK    6  A    between atoms: C_25  and  N_26
REMARK                            x       y       z     vdW  Elec       q    Type
REMARK                         _______ _______ _______ _____ _____    ______ ____
ROOT
ATOM      1  O   UNL     1       7.156   5.667  20.146  0.00  0.00    +0.000 OA
ATOM      2  C   UNL     1       7.091   5.634  18.921  0.00  0.00    +0.000 C 
ATOM      3  N   UNL     1       7.676   6.592  18.095  0.00  0.00    +0.000 N 
ATOM      4  H   UNL     1       7.679   6.524  17.077  0.00  0.00    +0.000 HD
ENDROOT
BRANCH   3   5
ATOM      5  N   UNL     1       8.438   7.658  18.626  0.00  0.00    +0.000 N 
ATOM      6  C   UNL     1       8.248   8.921  18.072  0.00  0.00    +0.000 C 
ATOM      7  O   UNL     1       7.478   9.119  17.133  0.00  0.00    +0.000 OA
ATOM      8  H   UNL     1       8.877   7.505  19.531  0.00  0.00    +0.000 HD
BRANCH   6   9
ATOM      9  C   UNL     1       8.978  10.062  18.703  0.00  0.00    +0.000 A 
ATOM     10  C   UNL     1       9.178  10.125  20.088  0.00  0.00    +0.000 A 
ATOM     11  C   UNL     1       9.822  11.231  20.660  0.00  0.00    +0.000 A 
ATOM     12  C   UNL     1      10.276  12.275  19.841  0.00  0.00    +0.000 A 
ATOM     13  C   UNL     1      10.136  12.195  18.451  0.00  0.00    +0.000 A 
ATOM     14  C   UNL     1       9.492  11.084  17.885  0.00  0.00    +0.000 A 
BRANCH  12  15
ATOM     15  N   UNL     1      10.882  13.469  20.452  0.00  0.00    +0.000 N 
ATOM     16  O   UNL     1      11.919  13.913  19.939  0.00  0.00    +0.000 OA
ATOM     17  O   UNL     1      10.330  13.949  21.451  0.00  0.00    +0.000 OA
ENDBRANCH  12  15
ENDBRANCH   6   9
ENDBRANCH   3   5
BRANCH   2  18
ATOM     18  C   UNL     1       6.423   4.507  18.129  0.00  0.00    +0.000 C 
BRANCH  18  19
ATOM     19  C   UNL     1       5.112   4.895  17.441  0.00  0.00    +0.000 C 
BRANCH  19  20
ATOM     20  N   UNL     1       4.023   5.198  18.384  0.00  0.00    +0.000 N 
ATOM     21  C   UNL     1       3.296   6.373  18.471  0.00  0.00    +0.000 A 
ATOM     22  C   UNL     1       2.450   6.279  19.563  0.00  0.00    +0.000 A 
ATOM     23  C   UNL     1       2.616   4.997  20.137  0.00  0.00    +0.000 A 
ATOM     24  C   UNL     1       2.004   4.348  21.222  0.00  0.00    +0.000 A 
ATOM     25  C   UNL     1       2.387   3.048  21.558  0.00  0.00    +0.000 A 
ATOM     26  C   UNL     1       3.379   2.404  20.823  0.00  0.00    +0.000 A 
ATOM     27  C   UNL     1       4.005   3.031  19.739  0.00  0.00    +0.000 A 
ATOM     28  C   UNL     1       3.604   4.335  19.397  0.00  0.00    +0.000 A 
ATOM     29  C   UNL     1       1.518   7.367  19.993  0.00  0.00    +0.000 C 
ATOM     30  C   UNL     1       1.912   8.710  19.365  0.00  0.00    +0.000 C 
ATOM     31  C   UNL     1       2.200   8.541  17.865  0.00  0.00    +0.000 C 
ATOM     32  C   UNL     1       3.392   7.586  17.598  0.00  0.00    +0.000 C 
ENDBRANCH  19  20
ENDBRANCH  18  19
ENDBRANCH   2  18
TORSDOF 6
ENDMDL
MODEL 2
REMARK VINA RESULT:      -8.8      2.546      4.444
REMARK  Name = 
REMARK  6 active torsions:
REMARK  status: ('A' for Active; 'I' for Inactive)
REMARK    1  A    between atoms: C_2  and  C_3
REMARK    2  A    between atoms: C_3  and  C_4
REMARK    3  A    between atoms: C_4  and  N_5
REMARK    4  A    between atoms: N_18  and  N_19
REMARK    5  A    between atoms: C_20  and  C_22
REMARK    6  A    between atoms: C_25  and  N_26
REMARK                            x       y       z     vdW  Elec       q    Type
REMARK                         _______ _______ _______ _____ _____    ______ ____
ROOT
ATOM      1  O   UNL     1       7.493   7.850  17.071  0.00  0.00    +0.000 OA
ATOM      2  C   UNL     1       7.929   7.592  18.188  0.00  0.00    +0.000 C 
ATOM      3  N   UNL     1       8.764   8.447  18.903  0.00  0.00    +0.000 N 
ATOM      4  H   UNL     1       9.068   8.260  19.859  0.00  0.00    +0.000 HD
ENDROOT
BRANCH   3   5
ATOM      5  N   UNL     1       9.129   9.716  18.397  0.00  0.00    +0.000 N 
ATOM      6  C   UNL     1       9.422  10.715  19.322  0.00  0.00    +0.000 C 
ATOM      7  O   UNL     1       9.339  10.534  20.536  0.00  0.00    +0.000 OA
ATOM      8  H   UNL     1       9.408   9.761  17.420  0.00  0.00    +0.000 HD
BRANCH   6   9
ATOM      9  C   UNL     1       9.907  12.023  18.785  0.00  0.00    +0.000 A 
ATOM     10  C   UNL     1       9.712  13.219  19.489  0.00  0.00    +0.000 A 
ATOM     11  C   UNL     1      10.131  14.439  18.940  0.00  0.00    +0.000 A 
ATOM     12  C   UNL     1      10.757  14.462  17.685  0.00  0.00    +0.000 A 
ATOM     13  C   UNL     1      11.011  13.267  17.000  0.00  0.00    +0.000 A 
ATOM     14  C   UNL     1      10.591  12.050  17.557  0.00  0.00    +0.000 A 
BRANCH  12  15
ATOM     15  N   UNL     1      11.125  15.751  17.078  0.00  0.00    +0.000 N 
ATOM     16  O   UNL     1      12.332  16.002  16.954  0.00  0.00    +0.000 OA
ATOM     17  O   UNL     1      10.209  16.514  16.744  0.00  0.00    +0.000 OA
ENDBRANCH  12  15
ENDBRANCH   6   9
ENDBRANCH   3   5
BRANCH   2  18
ATOM     18  C   UNL     1       7.566   6.332  18.978  0.00  0.00    +0.000 C 
BRANCH  18  19
ATOM     19  C   UNL     1       7.721   5.021  18.204  0.00  0.00    +0.000 C 
BRANCH  19  20
ATOM     20  N   UNL     1       6.519   4.641  17.445  0.00  0.00    +0.000 N 
ATOM     21  C   UNL     1       5.291   4.264  17.959  0.00  0.00    +0.000 A 
ATOM     22  C   UNL     1       4.479   3.882  16.904  0.00  0.00    +0.000 A 
ATOM     23  C   UNL     1       5.200   4.077  15.703  0.00  0.00    +0.000 A 
ATOM     24  C   UNL     1       4.870   3.896  14.350  0.00  0.00    +0.000 A 
ATOM     25  C   UNL     1       5.816   4.180  13.362  0.00  0.00    +0.000 A 
ATOM     26  C   UNL     1       7.083   4.632  13.723  0.00  0.00    +0.000 A 
ATOM     27  C   UNL     1       7.435   4.817  15.065  0.00  0.00    +0.000 A 
ATOM     28  C   UNL     1       6.473   4.544  16.054  0.00  0.00    +0.000 A 
ATOM     29  C   UNL     1       3.075   3.390  17.067  0.00  0.00    +0.000 C 
ATOM     30  C   UNL     1       2.807   2.962  18.515  0.00  0.00    +0.000 C 
ATOM     31  C   UNL     1       3.331   4.021  19.498  0.00  0.00    +0.000 C 
ATOM     32  C   UNL     1       4.866   4.212  19.395  0.00  0.00    +0.000 C 
ENDBRANCH  19  20
ENDBRANCH  18  19
ENDBRANCH   2  18
TORSDOF 6
ENDMDL
MODEL 3
REMARK VINA RESULT:      -8.7      6.664     10.152
REMARK  Name = 
REMARK  6 active torsions:
REMARK  status: ('A' for Active; 'I' for Inactive)
REMARK    1  A    between atoms: C_2  and  C_3
REMARK    2  A    between atoms: C_3  and  C_4
REMARK    3  A    between atoms: C_4  and  N_5
REMARK    4  A    between atoms: N_18  and  N_19
REMARK    5  A    between atoms: C_20  and  C_22
REMARK    6  A    between atoms: C_25  and  N_26
REMARK                            x       y       z     vdW  Elec       q    Type
REMARK                         _______ _______ _______ _____ _____    ______ ____
ROOT
ATOM      1  O   UNL     1       0.651   9.425  19.718  0.00  0.00    +0.000 OA
ATOM      2  C   UNL     1       0.837   9.307  18.511  0.00  0.00    +0.000 C 
ATOM      3  N   UNL     1       0.014   9.884  17.546  0.00  0.00    +0.000 N 
ATOM      4  H   UNL     1       0.211   9.841  16.546  0.00  0.00    +0.000 HD
ENDROOT
BRANCH   3   5
ATOM      5  N   UNL     1      -1.084  10.701  17.906  0.00  0.00    +0.000 N 
ATOM      6  C   UNL     1      -2.291  10.478  17.248  0.00  0.00    +0.000 C 
ATOM      7  O   UNL     1      -2.412   9.634  16.361  0.00  0.00    +0.000 OA
ATOM      8  H   UNL     1      -1.011  11.213  18.782  0.00  0.00    +0.000 HD
BRANCH   6   9
ATOM      9  C   UNL     1      -3.472  11.272  17.701  0.00  0.00    +0.000 A 
ATOM     10  C   UNL     1      -3.539  11.811  18.993  0.00  0.00    +0.000 A 
ATOM     11  C   UNL     1      -4.681  12.509  19.410  0.00  0.00    +0.000 A 
ATOM     12  C   UNL     1      -5.759  12.676  18.528  0.00  0.00    +0.000 A 
ATOM     13  C   UNL     1      -5.679  12.194  17.216  0.00  0.00    +0.000 A 
ATOM     14  C   UNL     1      -4.532  11.499  16.805  0.00  0.00    +0.000 A 
BRANCH  12  15
ATOM     15  N   UNL     1      -6.986  13.341  18.995  0.00  0.00    +0.000 N 
ATOM     16  O   UNL     1      -7.026  13.705  20.178  0.00  0.00    +0.000 OA
ATOM     17  O   UNL     1      -7.910  13.480  18.183  0.00  0.00    +0.000 OA
ENDBRANCH  12  15
ENDBRANCH   6   9
ENDBRANCH   3   5
BRANCH   2  18
ATOM     18  C   UNL     1       2.031   8.572  17.898  0.00  0.00    +0.000 C 
BRANCH  18  19
ATOM     19  C   UNL     1       2.867   7.762  18.892  0.00  0.00    +0.000 C 
BRANCH  19  20
ATOM     20  N   UNL     1       3.047   6.355  18.497  0.00  0.00    +0.000 N 
ATOM     21  C   UNL     1       2.483   5.241  19.095  0.00  0.00    +0.000 A 
ATOM     22  C   UNL     1       3.003   4.112  18.483  0.00  0.00    +0.000 A 
ATOM     23  C   UNL     1       3.868   4.534  17.448  0.00  0.00    +0.000 A 
ATOM     24  C   UNL     1       4.629   3.838  16.494  0.00  0.00    +0.000 A 
ATOM     25  C   UNL     1       5.408   4.546  15.577  0.00  0.00    +0.000 A 
ATOM     26  C   UNL     1       5.434   5.938  15.617  0.00  0.00    +0.000 A 
ATOM     27  C   UNL     1       4.687   6.654  16.559  0.00  0.00    +0.000 A 
ATOM     28  C   UNL     1       3.893   5.935  17.471  0.00  0.00    +0.000 A 
ATOM     29  C   UNL     1       2.645   2.713  18.873  0.00  0.00    +0.000 C 
ATOM     30  C   UNL     1       1.995   2.678  20.262  0.00  0.00    +0.000 C 
ATOM     31  C   UNL     1       0.921   3.770  20.385  0.00  0.00    +0.000 C 
ATOM     32  C   UNL     1       1.512   5.196  20.234  0.00  0.00    +0.000 C 
ENDBRANCH  19  20
ENDBRANCH  18  19
ENDBRANCH   2  18
TORSDOF 6
ENDMDL
MODEL 4
REMARK VINA RESULT:      -8.7      1.795      2.107
REMARK  Name = 
REMARK  6 active torsions:
REMARK  status: ('A' for Active; 'I' for Inactive)
REMARK    1  A    between atoms: C_2  and  C_3
REMARK    2  A    between atoms: C_3  and  C_4
REMARK    3  A    between atoms: C_4  and  N_5
REMARK    4  A    between atoms: N_18  and  N_19
REMARK    5  A    between atoms: C_20  and  C_22
REMARK    6  A    between atoms: C_25  and  N_26
REMARK                            x       y       z     vdW  Elec       q    Type
REMARK                         _______ _______ _______ _____ _____    ______ ____
ROOT
ATOM      1  O   UNL     1       6.080   7.742  16.421  0.00  0.00    +0.000 OA
ATOM      2  C   UNL     1       6.691   7.237  17.358  0.00  0.00    +0.000 C 
ATOM      3  N   UNL     1       7.772   7.849  17.989  0.00  0.00    +0.000 N 
ATOM      4  H   UNL     1       8.232   7.458  18.811  0.00  0.00    +0.000 HD
ENDROOT
BRANCH   3   5
ATOM      5  N   UNL     1       8.211   9.140  17.615  0.00  0.00    +0.000 N 
ATOM      6  C   UNL     1       8.919   9.876  18.561  0.00  0.00    +0.000 C 
ATOM      7  O   UNL     1       9.135   9.454  19.696  0.00  0.00    +0.000 OA
ATOM      8  H   UNL     1       8.218   9.355  16.620  0.00  0.00    +0.000 HD
BRANCH   6   9
ATOM      9  C   UNL     1       9.469  11.196  18.129  0.00  0.00    +0.000 A 
ATOM     10  C   UNL     1      10.811  11.341  17.753  0.00  0.00    +0.000 A 
ATOM     11  C   UNL     1      11.315  12.600  17.400  0.00  0.00    +0.000 A 
ATOM     12  C   UNL     1      10.470  13.719  17.414  0.00  0.00    +0.000 A 
ATOM     13  C   UNL     1       9.113  13.576  17.729  0.00  0.00    +0.000 A 
ATOM     14  C   UNL     1       8.615  12.312  18.078  0.00  0.00    +0.000 A 
BRANCH  12  15
ATOM     15  N   UNL     1      11.020  15.052  17.118  0.00  0.00    +0.000 N 
ATOM     16  O   UNL     1      12.253  15.164  17.064  0.00  0.00    +0.000 OA
ATOM     17  O   UNL     1      10.221  15.984  16.959  0.00  0.00    +0.000 OA
ENDBRANCH  12  15
ENDBRANCH   6   9
ENDBRANCH   3   5
BRANCH   2  18
ATOM     18  C   UNL     1       6.313   5.903  18.006  0.00  0.00    +0.000 C 
BRANCH  18  19
ATOM     19  C   UNL     1       4.981   5.314  17.536  0.00  0.00    +0.000 C 
BRANCH  19  20
ATOM     20  N   UNL     1       3.912   5.402  18.543  0.00  0.00    +0.000 N 
ATOM     21  C   UNL     1       3.090   6.486  18.799  0.00  0.00    +0.000 A 
ATOM     22  C   UNL     1       2.304   6.185  19.899  0.00  0.00    +0.000 A 
ATOM     23  C   UNL     1       2.606   4.864  20.304  0.00  0.00    +0.000 A 
ATOM     24  C   UNL     1       2.101   4.037  21.321  0.00  0.00    +0.000 A 
ATOM     25  C   UNL     1       2.610   2.746  21.482  0.00  0.00    +0.000 A 
ATOM     26  C   UNL     1       3.621   2.289  20.640  0.00  0.00    +0.000 A 
ATOM     27  C   UNL     1       4.142   3.095  19.622  0.00  0.00    +0.000 A 
ATOM     28  C   UNL     1       3.615   4.389  19.456  0.00  0.00    +0.000 A 
ATOM     29  C   UNL     1       1.301   7.124  20.490  0.00  0.00    +0.000 C 
ATOM     30  C   UNL     1       1.550   8.562  20.018  0.00  0.00    +0.000 C 
ATOM     31  C   UNL     1       1.785   8.602  18.500  0.00  0.00    +0.000 C 
ATOM     32  C   UNL     1       3.042   7.799  18.079  0.00  0.00    +0.000 C 
ENDBRANCH  19  20
ENDBRANCH  18  19
ENDBRANCH   2  18
TORSDOF 6
ENDMDL
MODEL 5
REMARK VINA RESULT:      -8.6      5.998      8.881
REMARK  Name = 
REMARK  6 active torsions:
REMARK  status: ('A' for Active; 'I' for Inactive)
REMARK    1  A    between atoms: C_2  and  C_3
REMARK    2  A    between atoms: C_3  and  C_4
REMARK    3  A    between atoms: C_4  and  N_5
REMARK    4  A    between atoms: N_18  and  N_19
REMARK    5  A    between atoms: C_20  and  C_22
REMARK    6  A    between atoms: C_25  and  N_26
REMARK                            x       y       z     vdW  Elec       q    Type
REMARK                         _______ _______ _______ _____ _____    ______ ____
ROOT
ATOM      1  O   UNL     1       0.548   9.571  17.573  0.00  0.00    +0.000 OA
ATOM      2  C   UNL     1       1.309   9.091  18.407  0.00  0.00    +0.000 C 
ATOM      3  N   UNL     1       1.082   9.151  19.780  0.00  0.00    +0.000 N 
ATOM      4  H   UNL     1       1.681   8.690  20.466  0.00  0.00    +0.000 HD
ENDROOT
BRANCH   3   5
ATOM      5  N   UNL     1      -0.090   9.739  20.309  0.00  0.00    +0.000 N 
ATOM      6  C   UNL     1       0.069  10.738  21.266  0.00  0.00    +0.000 C 
ATOM      7  O   UNL     1       1.175  11.087  21.676  0.00  0.00    +0.000 OA
ATOM      8  H   UNL     1      -0.954   9.595  19.790  0.00  0.00    +0.000 HD
BRANCH   6   9
ATOM      9  C   UNL     1      -1.166  11.428  21.746  0.00  0.00    +0.000 A 
ATOM     10  C   UNL     1      -1.564  11.364  23.088  0.00  0.00    +0.000 A 
ATOM     11  C   UNL     1      -2.753  11.978  23.503  0.00  0.00    +0.000 A 
ATOM     12  C   UNL     1      -3.545  12.668  22.573  0.00  0.00    +0.000 A 
ATOM     13  C   UNL     1      -3.127  12.790  21.243  0.00  0.00    +0.000 A 
ATOM     14  C   UNL     1      -1.934  12.175  20.835  0.00  0.00    +0.000 A 
BRANCH  12  15
ATOM     15  N   UNL     1      -4.831  13.245  22.996  0.00  0.00    +0.000 N 
ATOM     16  O   UNL     1      -5.517  12.592  23.796  0.00  0.00    +0.000 OA
ATOM     17  O   UNL     1      -5.159  14.338  22.516  0.00  0.00    +0.000 OA
ENDBRANCH  12  15
ENDBRANCH   6   9
ENDBRANCH   3   5
BRANCH   2  18
ATOM     18  C   UNL     1       2.573   8.301  18.057  0.00  0.00    +0.000 C 
BRANCH  18  19
ATOM     19  C   UNL     1       2.940   7.201  19.055  0.00  0.00    +0.000 C 
BRANCH  19  20
ATOM     20  N   UNL     1       3.280   5.919  18.416  0.00  0.00    +0.000 N 
ATOM     21  C   UNL     1       4.297   5.681  17.508  0.00  0.00    +0.000 A 
ATOM     22  C   UNL     1       4.193   4.370  17.075  0.00  0.00    +0.000 A 
ATOM     23  C   UNL     1       3.120   3.763  17.769  0.00  0.00    +0.000 A 
ATOM     24  C   UNL     1       2.589   2.463  17.760  0.00  0.00    +0.000 A 
ATOM     25  C   UNL     1       1.497   2.154  18.574  0.00  0.00    +0.000 A 
ATOM     26  C   UNL     1       0.935   3.138  19.384  0.00  0.00    +0.000 A 
ATOM     27  C   UNL     1       1.445   4.440  19.408  0.00  0.00    +0.000 A 
ATOM     28  C   UNL     1       2.554   4.741  18.597  0.00  0.00    +0.000 A 
ATOM     29  C   UNL     1       5.110   3.748  16.070  0.00  0.00    +0.000 C 
ATOM     30  C   UNL     1       5.875   4.821  15.285  0.00  0.00    +0.000 C 
ATOM     31  C   UNL     1       6.444   5.885  16.237  0.00  0.00    +0.000 C 
ATOM     32  C   UNL     1       5.331   6.642  17.007  0.00  0.00    +0.000 C 
ENDBRANCH  19  20
ENDBRANCH  18  19
ENDBRANCH   2  18
TORSDOF 6
ENDMDL
MODEL 6
REMARK VINA RESULT:      -8.6      6.086      8.567
REMARK  Name = 
REMARK  6 active torsions:
REMARK  status: ('A' for Active; 'I' for Inactive)
REMARK    1  A    between atoms: C_2  and  C_3
REMARK    2  A    between atoms: C_3  and  C_4
REMARK    3  A    between atoms: C_4  and  N_5
REMARK    4  A    between atoms: N_18  and  N_19
REMARK    5  A    between atoms: C_20  and  C_22
REMARK    6  A    between atoms: C_25  and  N_26
REMARK                            x       y       z     vdW  Elec       q    Type
REMARK                         _______ _______ _______ _____ _____    ______ ____
ROOT
ATOM      1  O   UNL     1       0.143   9.909  18.209  0.00  0.00    +0.000 OA
ATOM      2  C   UNL     1       0.945   9.264  18.877  0.00  0.00    +0.000 C 
ATOM      3  N   UNL     1       0.968   9.274  20.270  0.00  0.00    +0.000 N 
ATOM      4  H   UNL     1       1.590   8.683  20.822  0.00  0.00    +0.000 HD
ENDROOT
BRANCH   3   5
ATOM      5  N   UNL     1       0.018  10.006  21.019  0.00  0.00    +0.000 N 
ATOM      6  C   UNL     1       0.400  11.259  21.492  0.00  0.00    +0.000 C 
ATOM      7  O   UNL     1       1.528  11.716  21.307  0.00  0.00    +0.000 OA
ATOM      8  H   UNL     1      -0.952   9.706  20.952  0.00  0.00    +0.000 HD
BRANCH   6   9
ATOM      9  C   UNL     1      -0.638  12.071  22.193  0.00  0.00    +0.000 A 
ATOM     10  C   UNL     1      -1.729  11.469  22.833  0.00  0.00    +0.000 A 
ATOM     11  C   UNL     1      -2.717  12.256  23.441  0.00  0.00    +0.000 A 
ATOM     12  C   UNL     1      -2.608  13.654  23.416  0.00  0.00    +0.000 A 
ATOM     13  C   UNL     1      -1.492  14.266  22.832  0.00  0.00    +0.000 A 
ATOM     14  C   UNL     1      -0.506  13.471  22.229  0.00  0.00    +0.000 A 
BRANCH  12  15
ATOM     15  N   UNL     1      -3.685  14.479  23.987  0.00  0.00    +0.000 N 
ATOM     16  O   UNL     1      -4.750  14.549  23.356  0.00  0.00    +0.000 OA
ATOM     17  O   UNL     1      -3.458  15.068  25.052  0.00  0.00    +0.000 OA
ENDBRANCH  12  15
ENDBRANCH   6   9
ENDBRANCH   3   5
BRANCH   2  18
ATOM     18  C   UNL     1       1.981   8.308  18.281  0.00  0.00    +0.000 C 
BRANCH  18  19
ATOM     19  C   UNL     1       2.552   7.284  19.265  0.00  0.00    +0.000 C 
BRANCH  19  20
ATOM     20  N   UNL     1       2.947   6.017  18.630  0.00  0.00    +0.000 N 
ATOM     21  C   UNL     1       3.939   5.831  17.682  0.00  0.00    +0.000 A 
ATOM     22  C   UNL     1       3.903   4.509  17.271  0.00  0.00    +0.000 A 
ATOM     23  C   UNL     1       2.901   3.845  18.017  0.00  0.00    +0.000 A 
ATOM     24  C   UNL     1       2.456   2.513  18.048  0.00  0.00    +0.000 A 
ATOM     25  C   UNL     1       1.421   2.148  18.912  0.00  0.00    +0.000 A 
ATOM     26  C   UNL     1       0.831   3.105  19.732  0.00  0.00    +0.000 A 
ATOM     27  C   UNL     1       1.255   4.439  19.718  0.00  0.00    +0.000 A 
ATOM     28  C   UNL     1       2.308   4.798  18.856  0.00  0.00    +0.000 A 
ATOM     29  C   UNL     1       4.815   3.932  16.236  0.00  0.00    +0.000 C 
ATOM     30  C   UNL     1       5.475   5.039  15.405  0.00  0.00    +0.000 C 
ATOM     31  C   UNL     1       6.013   6.153  16.318  0.00  0.00    +0.000 C 
ATOM     32  C   UNL     1       4.887   6.848  17.125  0.00  0.00    +0.000 C 
ENDBRANCH  19  20
ENDBRANCH  18  19
ENDBRANCH   2  18
TORSDOF 6
ENDMDL
MODEL 7
REMARK VINA RESULT:      -8.5      6.205      8.976
REMARK  Name = 
REMARK  6 active torsions:
REMARK  status: ('A' for Active; 'I' for Inactive)
REMARK    1  A    between atoms: C_2  and  C_3
REMARK    2  A    between atoms: C_3  and  C_4
REMARK    3  A    between atoms: C_4  and  N_5
REMARK    4  A    between atoms: N_18  and  N_19
REMARK    5  A    between atoms: C_20  and  C_22
REMARK    6  A    between atoms: C_25  and  N_26
REMARK                            x       y       z     vdW  Elec       q    Type
REMARK                         _______ _______ _______ _____ _____    ______ ____
ROOT
ATOM      1  O   UNL     1       0.258   9.686  17.811  0.00  0.00    +0.000 OA
ATOM      2  C   UNL     1       1.015   9.199  18.645  0.00  0.00    +0.000 C 
ATOM      3  N   UNL     1       0.805   9.293  20.019  0.00  0.00    +0.000 N 
ATOM      4  H   UNL     1       1.399   8.828  20.707  0.00  0.00    +0.000 HD
ENDROOT
BRANCH   3   5
ATOM      5  N   UNL     1      -0.343   9.925  20.549  0.00  0.00    +0.000 N 
ATOM      6  C   UNL     1      -0.152  11.101  21.270  0.00  0.00    +0.000 C 
ATOM      7  O   UNL     1       0.965  11.571  21.481  0.00  0.00    +0.000 OA
ATOM      8  H   UNL     1      -1.243   9.645  20.166  0.00  0.00    +0.000 HD
BRANCH   6   9
ATOM      9  C   UNL     1      -1.374  11.821  21.740  0.00  0.00    +0.000 A 
ATOM     10  C   UNL     1      -2.071  12.702  20.903  0.00  0.00    +0.000 A 
ATOM     11  C   UNL     1      -3.185  13.403  21.384  0.00  0.00    +0.000 A 
ATOM     12  C   UNL     1      -3.610  13.216  22.708  0.00  0.00    +0.000 A 
ATOM     13  C   UNL     1      -2.959  12.293  23.535  0.00  0.00    +0.000 A 
ATOM     14  C   UNL     1      -1.846  11.593  23.045  0.00  0.00    +0.000 A 
BRANCH  12  15
ATOM     15  N   UNL     1      -4.732  14.011  23.233  0.00  0.00    +0.000 N 
ATOM     16  O   UNL     1      -4.468  14.905  24.049  0.00  0.00    +0.000 OA
ATOM     17  O   UNL     1      -5.872  13.728  22.842  0.00  0.00    +0.000 OA
ENDBRANCH  12  15
ENDBRANCH   6   9
ENDBRANCH   3   5
BRANCH   2  18
ATOM     18  C   UNL     1       2.251   8.367  18.297  0.00  0.00    +0.000 C 
BRANCH  18  19
ATOM     19  C   UNL     1       2.566   7.240  19.284  0.00  0.00    +0.000 C 
BRANCH  19  20
ATOM     20  N   UNL     1       2.959   5.981  18.631  0.00  0.00    +0.000 N 
ATOM     21  C   UNL     1       3.956   5.804  17.688  0.00  0.00    +0.000 A 
ATOM     22  C   UNL     1       3.916   4.489  17.256  0.00  0.00    +0.000 A 
ATOM     23  C   UNL     1       2.906   3.819  17.985  0.00  0.00    +0.000 A 
ATOM     24  C   UNL     1       2.454   2.490  17.992  0.00  0.00    +0.000 A 
ATOM     25  C   UNL     1       1.411   2.116  18.842  0.00  0.00    +0.000 A 
ATOM     26  C   UNL     1       0.820   3.064  19.674  0.00  0.00    +0.000 A 
ATOM     27  C   UNL     1       1.252   4.395  19.683  0.00  0.00    +0.000 A 
ATOM     28  C   UNL     1       2.312   4.762  18.834  0.00  0.00    +0.000 A 
ATOM     29  C   UNL     1       4.833   3.923  16.219  0.00  0.00    +0.000 C 
ATOM     30  C   UNL     1       5.505   5.040  15.410  0.00  0.00    +0.000 C 
ATOM     31  C   UNL     1       6.042   6.136  16.343  0.00  0.00    +0.000 C 
ATOM     32  C   UNL     1       4.914   6.825  17.153  0.00  0.00    +0.000 C 
ENDBRANCH  19  20
ENDBRANCH  18  19
ENDBRANCH   2  18
TORSDOF 6
ENDMDL
MODEL 8
REMARK VINA RESULT:      -8.5      6.606      9.899
REMARK  Name = 
REMARK  6 active torsions:
REMARK  status: ('A' for Active; 'I' for Inactive)
REMARK    1  A    between atoms: C_2  and  C_3
REMARK    2  A    between atoms: C_3  and  C_4
REMARK    3  A    between atoms: C_4  and  N_5
REMARK    4  A    between atoms: N_18  and  N_19
REMARK    5  A    between atoms: C_20  and  C_22
REMARK    6  A    between atoms: C_25  and  N_26
REMARK                            x       y       z     vdW  Elec       q    Type
REMARK                         _______ _______ _______ _____ _____    ______ ____
ROOT
ATOM      1  O   UNL     1       0.825   9.469  19.698  0.00  0.00    +0.000 OA
ATOM      2  C   UNL     1       0.932   9.242  18.497  0.00  0.00    +0.000 C 
ATOM      3  N   UNL     1       0.021   9.694  17.544  0.00  0.00    +0.000 N 
ATOM      4  H   UNL     1       0.151   9.563  16.541  0.00  0.00    +0.000 HD
ENDROOT
BRANCH   3   5
ATOM      5  N   UNL     1      -1.082  10.502  17.904  0.00  0.00    +0.000 N 
ATOM      6  C   UNL     1      -2.231  10.404  17.123  0.00  0.00    +0.000 C 
ATOM      7  O   UNL     1      -2.294   9.676  16.134  0.00  0.00    +0.000 OA
ATOM      8  H   UNL     1      -1.075  10.904  18.839  0.00  0.00    +0.000 HD
BRANCH   6   9
ATOM      9  C   UNL     1      -3.427  11.181  17.566  0.00  0.00    +0.000 A 
ATOM     10  C   UNL     1      -4.513  11.403  16.709  0.00  0.00    +0.000 A 
ATOM     11  C   UNL     1      -5.602  12.178  17.132  0.00  0.00    +0.000 A 
ATOM     12  C   UNL     1      -5.609  12.726  18.423  0.00  0.00    +0.000 A 
ATOM     13  C   UNL     1      -4.558  12.461  19.309  0.00  0.00    +0.000 A 
ATOM     14  C   UNL     1      -3.473  11.682  18.879  0.00  0.00    +0.000 A 
BRANCH  12  15
ATOM     15  N   UNL     1      -6.716  13.603  18.836  0.00  0.00    +0.000 N 
ATOM     16  O   UNL     1      -6.488  14.819  18.912  0.00  0.00    +0.000 OA
ATOM     17  O   UNL     1      -7.804  13.073  19.100  0.00  0.00    +0.000 OA
ENDBRANCH  12  15
ENDBRANCH   6   9
ENDBRANCH   3   5
BRANCH   2  18
ATOM     18  C   UNL     1       2.111   8.494  17.870  0.00  0.00    +0.000 C 
BRANCH  18  19
ATOM     19  C   UNL     1       2.949   7.674  18.854  0.00  0.00    +0.000 C 
BRANCH  19  20
ATOM     20  N   UNL     1       3.188   6.291  18.411  0.00  0.00    +0.000 N 
ATOM     21  C   UNL     1       4.082   5.866  17.443  0.00  0.00    +0.000 A 
ATOM     22  C   UNL     1       3.906   4.505  17.259  0.00  0.00    +0.000 A 
ATOM     23  C   UNL     1       2.918   4.063  18.168  0.00  0.00    +0.000 A 
ATOM     24  C   UNL     1       2.370   2.800  18.446  0.00  0.00    +0.000 A 
ATOM     25  C   UNL     1       1.381   2.673  19.424  0.00  0.00    +0.000 A 
ATOM     26  C   UNL     1       0.938   3.799  20.114  0.00  0.00    +0.000 A 
ATOM     27  C   UNL     1       1.467   5.068  19.852  0.00  0.00    +0.000 A 
ATOM     28  C   UNL     1       2.472   5.187  18.876  0.00  0.00    +0.000 A 
ATOM     29  C   UNL     1       4.684   3.689  16.275  0.00  0.00    +0.000 C 
ATOM     30  C   UNL     1       5.363   4.586  15.231  0.00  0.00    +0.000 C 
ATOM     31  C   UNL     1       6.060   5.775  15.911  0.00  0.00    +0.000 C 
ATOM     32  C   UNL     1       5.062   6.690  16.665  0.00  0.00    +0.000 C 
ENDBRANCH  19  20
ENDBRANCH  18  19
ENDBRANCH   2  18
TORSDOF 6
ENDMDL
MODEL 9
REMARK VINA RESULT:      -8.5      6.044      8.810
REMARK  Name = 
REMARK  6 active torsions:
REMARK  status: ('A' for Active; 'I' for Inactive)
REMARK    1  A    between atoms: C_2  and  C_3
REMARK    2  A    between atoms: C_3  and  C_4
REMARK    3  A    between atoms: C_4  and  N_5
REMARK    4  A    between atoms: N_18  and  N_19
REMARK    5  A    between atoms: C_20  and  C_22
REMARK    6  A    between atoms: C_25  and  N_26
REMARK                            x       y       z     vdW  Elec       q    Type
REMARK                         _______ _______ _______ _____ _____    ______ ____
ROOT
ATOM      1  O   UNL     1       1.489  10.877  18.469  0.00  0.00    +0.000 OA
ATOM      2  C   UNL     1       1.273   9.732  18.854  0.00  0.00    +0.000 C 
ATOM      3  N   UNL     1       0.358   9.418  19.856  0.00  0.00    +0.000 N 
ATOM      4  H   UNL     1       0.131   8.460  20.124  0.00  0.00    +0.000 HD
ENDROOT
BRANCH   3   5
ATOM      5  N   UNL     1      -0.433  10.415  20.473  0.00  0.00    +0.000 N 
ATOM      6  C   UNL     1      -0.107  10.775  21.778  0.00  0.00    +0.000 C 
ATOM      7  O   UNL     1       0.805  10.235  22.402  0.00  0.00    +0.000 OA
ATOM      8  H   UNL     1      -1.011  10.988  19.863  0.00  0.00    +0.000 HD
BRANCH   6   9
ATOM      9  C   UNL     1      -0.878  11.899  22.389  0.00  0.00    +0.000 A 
ATOM     10  C   UNL     1      -0.446  13.228  22.277  0.00  0.00    +0.000 A 
ATOM     11  C   UNL     1      -1.160  14.259  22.902  0.00  0.00    +0.000 A 
ATOM     12  C   UNL     1      -2.317  13.962  23.637  0.00  0.00    +0.000 A 
ATOM     13  C   UNL     1      -2.792  12.646  23.706  0.00  0.00    +0.000 A 
ATOM     14  C   UNL     1      -2.073  11.620  23.075  0.00  0.00    +0.000 A 
BRANCH  12  15
ATOM     15  N   UNL     1      -3.020  15.036  24.356  0.00  0.00    +0.000 N 
ATOM     16  O   UNL     1      -2.481  15.493  25.374  0.00  0.00    +0.000 OA
ATOM     17  O   UNL     1      -4.115  15.407  23.913  0.00  0.00    +0.000 OA
ENDBRANCH  12  15
ENDBRANCH   6   9
ENDBRANCH   3   5
BRANCH   2  18
ATOM     18  C   UNL     1       1.923   8.488  18.243  0.00  0.00    +0.000 C 
BRANCH  18  19
ATOM     19  C   UNL     1       2.502   7.501  19.260  0.00  0.00    +0.000 C 
BRANCH  19  20
ATOM     20  N   UNL     1       2.783   6.172  18.693  0.00  0.00    +0.000 N 
ATOM     21  C   UNL     1       2.260   4.959  19.107  0.00  0.00    +0.000 A 
ATOM     22  C   UNL     1       2.874   3.953  18.380  0.00  0.00    +0.000 A 
ATOM     23  C   UNL     1       3.760   4.556  17.458  0.00  0.00    +0.000 A 
ATOM     24  C   UNL     1       4.604   4.036  16.462  0.00  0.00    +0.000 A 
ATOM     25  C   UNL     1       5.381   4.903  15.690  0.00  0.00    +0.000 A 
ATOM     26  C   UNL     1       5.322   6.276  15.915  0.00  0.00    +0.000 A 
ATOM     27  C   UNL     1       4.491   6.817  16.903  0.00  0.00    +0.000 A 
ATOM     28  C   UNL     1       3.700   5.940  17.668  0.00  0.00    +0.000 A 
ATOM     29  C   UNL     1       2.583   2.497  18.560  0.00  0.00    +0.000 C 
ATOM     30  C   UNL     1       1.872   2.239  19.896  0.00  0.00    +0.000 C 
ATOM     31  C   UNL     1       0.731   3.246  20.104  0.00  0.00    +0.000 C 
ATOM     32  C   UNL     1       1.241   4.708  20.176  0.00  0.00    +0.000 C 
ENDBRANCH  19  20
ENDBRANCH  18  19
ENDBRANCH   2  18
TORSDOF 6
ENDMDL
