MODEL 1
REMARK VINA RESULT:      -7.4      0.000      0.000
REMARK  Name = 
REMARK  6 active torsions:
REMARK  status: ('A' for Active; 'I' for Inactive)
REMARK    1  A    between atoms: C_1  and  C_2
REMARK    2  A    between atoms: C_4  and  N_5
REMARK    3  A    between atoms: N_5  and  C_6
REMARK    4  A    between atoms: C_9  and  S_10
REMARK    5  A    between atoms: S_10  and  C_11
REMARK    6  A    between atoms: N_18  and  C_19
REMARK                            x       y       z     vdW  Elec       q    Type
REMARK                         _______ _______ _______ _____ _____    ______ ____
ROOT
ATOM      1  C   UNL     1       7.655   4.355  17.137  0.00  0.00    +0.000 C 
ATOM      2  C   UNL     1       6.251   4.938  16.957  0.00  0.00    +0.000 C 
ATOM      3  C   UNL     1       6.098   6.138  17.894  0.00  0.00    +0.000 C 
ATOM      4  C   UNL     1       4.978   6.952  17.273  0.00  0.00    +0.000 C 
ATOM      5  C   UNL     1       5.206   6.697  15.781  0.00  0.00    +0.000 C 
ATOM      6  O   UNL     1       4.746   7.413  14.900  0.00  0.00    +0.000 OA
ATOM      7  N   UNL     1       5.949   5.500  15.649  0.00  0.00    +0.000 N 
ENDROOT
BRANCH   7   8
ATOM      8  C   UNL     1       6.181   4.847  14.404  0.00  0.00    +0.000 A 
ATOM      9  C   UNL     1       7.328   5.129  13.647  0.00  0.00    +0.000 A 
ATOM     10  C   UNL     1       7.578   4.486  12.429  0.00  0.00    +0.000 A 
ATOM     11  C   UNL     1       6.685   3.535  11.949  0.00  0.00    +0.000 A 
ATOM     12  C   UNL     1       5.541   3.238  12.681  0.00  0.00    +0.000 A 
ATOM     13  C   UNL     1       5.286   3.899  13.889  0.00  0.00    +0.000 A 
ENDBRANCH   7   8
BRANCH   4  14
ATOM     14  N   UNL     1       3.656   6.480  17.701  0.00  0.00    +0.000 N 
ATOM     15  H   UNL     1       3.554   5.473  17.789  0.00  0.00    +0.000 HD
BRANCH  14  16
ATOM     16  C   UNL     1       2.774   7.251  18.446  0.00  0.00    +0.000 A 
ATOM     17  C   UNL     1       2.427   6.960  19.770  0.00  0.00    +0.000 A 
ATOM     18  C   UNL     1       1.607   7.811  20.522  0.00  0.00    +0.000 A 
ATOM     19  C   UNL     1       1.147   8.997  19.954  0.00  0.00    +0.000 A 
ATOM     20  C   UNL     1       1.469   9.316  18.637  0.00  0.00    +0.000 A 
ATOM     21  C   UNL     1       2.287   8.450  17.902  0.00  0.00    +0.000 A 
BRANCH  19  22
ATOM     22  S   UNL     1       0.123  10.088  20.908  0.00  0.00    +0.000 S 
ATOM     23  C   UNL     1      -0.519   9.041  22.191  0.00  0.00    +0.000 C 
ATOM     24  O   UNL     1       0.988  11.075  21.521  0.00  0.00    +0.000 OA
ATOM     25  O   UNL     1      -0.988  10.495  20.065  0.00  0.00    +0.000 OA
ENDBRANCH  19  22
ENDBRANCH  14  16
ENDBRANCH   4  14
TORSDOF 4
ENDMDL
MODEL 2
REMARK VINA RESULT:      -7.4      0.753      1.372
REMARK  Name = 
REMARK  6 active torsions:
REMARK  status: ('A' for Active; 'I' for Inactive)
REMARK    1  A    between atoms: C_1  and  C_2
REMARK    2  A    between atoms: C_4  and  N_5
REMARK    3  A    between atoms: N_5  and  C_6
REMARK    4  A    between atoms: C_9  and  S_10
REMARK    5  A    between atoms: S_10  and  C_11
REMARK    6  A    between atoms: N_18  and  C_19
REMARK                            x       y       z     vdW  Elec       q    Type
REMARK                         _______ _______ _______ _____ _____    ______ ____
ROOT
ATOM      1  C   UNL     1       7.569   4.368  17.247  0.00  0.00    +0.000 C 
ATOM      2  C   UNL     1       6.173   4.955  17.021  0.00  0.00    +0.000 C 
ATOM      3  C   UNL     1       5.997   6.161  17.947  0.00  0.00    +0.000 C 
ATOM      4  C   UNL     1       4.899   6.976  17.288  0.00  0.00    +0.000 C 
ATOM      5  C   UNL     1       5.172   6.712  15.805  0.00  0.00    +0.000 C 
ATOM      6  O   UNL     1       4.742   7.425  14.907  0.00  0.00    +0.000 OA
ATOM      7  N   UNL     1       5.914   5.511  15.702  0.00  0.00    +0.000 N 
ENDROOT
BRANCH   7   8
ATOM      8  C   UNL     1       6.182   4.851  14.468  0.00  0.00    +0.000 A 
ATOM      9  C   UNL     1       5.278   3.917  13.940  0.00  0.00    +0.000 A 
ATOM     10  C   UNL     1       5.519   3.270  12.723  0.00  0.00    +0.000 A 
ATOM     11  C   UNL     1       6.672   3.556  12.000  0.00  0.00    +0.000 A 
ATOM     12  C   UNL     1       7.584   4.478  12.502  0.00  0.00    +0.000 A 
ATOM     13  C   UNL     1       7.347   5.106  13.731  0.00  0.00    +0.000 A 
ENDBRANCH   7   8
BRANCH   4  14
ATOM     14  N   UNL     1       3.563   6.510  17.678  0.00  0.00    +0.000 N 
ATOM     15  H   UNL     1       3.431   5.503  17.686  0.00  0.00    +0.000 HD
BRANCH  14  16
ATOM     16  C   UNL     1       2.703   7.246  18.481  0.00  0.00    +0.000 A 
ATOM     17  C   UNL     1       2.403   6.902  19.804  0.00  0.00    +0.000 A 
ATOM     18  C   UNL     1       1.605   7.718  20.616  0.00  0.00    +0.000 A 
ATOM     19  C   UNL     1       1.119   8.922  20.110  0.00  0.00    +0.000 A 
ATOM     20  C   UNL     1       1.392   9.292  18.795  0.00  0.00    +0.000 A 
ATOM     21  C   UNL     1       2.190   8.462  18.000  0.00  0.00    +0.000 A 
BRANCH  19  22
ATOM     22  S   UNL     1       0.121   9.968  21.139  0.00  0.00    +0.000 S 
ATOM     23  C   UNL     1      -0.953  10.785  19.985  0.00  0.00    +0.000 C 
ATOM     24  O   UNL     1      -0.689   9.110  21.979  0.00  0.00    +0.000 OA
ATOM     25  O   UNL     1       0.995  10.969  21.724  0.00  0.00    +0.000 OA
ENDBRANCH  19  22
ENDBRANCH  14  16
ENDBRANCH   4  14
TORSDOF 4
ENDMDL
MODEL 3
REMARK VINA RESULT:      -7.3      0.732      1.013
REMARK  Name = 
REMARK  6 active torsions:
REMARK  status: ('A' for Active; 'I' for Inactive)
REMARK    1  A    between atoms: C_1  and  C_2
REMARK    2  A    between atoms: C_4  and  N_5
REMARK    3  A    between atoms: N_5  and  C_6
REMARK    4  A    between atoms: C_9  and  S_10
REMARK    5  A    between atoms: S_10  and  C_11
REMARK    6  A    between atoms: N_18  and  C_19
REMARK                            x       y       z     vdW  Elec       q    Type
REMARK                         _______ _______ _______ _____ _____    ______ ____
ROOT
ATOM      1  C   UNL     1       7.682   4.317  17.201  0.00  0.00    +0.000 C 
ATOM      2  C   UNL     1       6.281   4.912  17.034  0.00  0.00    +0.000 C 
ATOM      3  C   UNL     1       6.141   6.103  17.986  0.00  0.00    +0.000 C 
ATOM      4  C   UNL     1       5.024   6.932  17.379  0.00  0.00    +0.000 C 
ATOM      5  C   UNL     1       5.244   6.692  15.883  0.00  0.00    +0.000 C 
ATOM      6  O   UNL     1       4.786   7.422  15.012  0.00  0.00    +0.000 OA
ATOM      7  N   UNL     1       5.978   5.491  15.734  0.00  0.00    +0.000 N 
ENDROOT
BRANCH   7   8
ATOM      8  C   UNL     1       6.201   4.851  14.481  0.00  0.00    +0.000 A 
ATOM      9  C   UNL     1       7.341   5.141  13.717  0.00  0.00    +0.000 A 
ATOM     10  C   UNL     1       7.582   4.511  12.491  0.00  0.00    +0.000 A 
ATOM     11  C   UNL     1       6.685   3.564  12.008  0.00  0.00    +0.000 A 
ATOM     12  C   UNL     1       5.547   3.260  12.746  0.00  0.00    +0.000 A 
ATOM     13  C   UNL     1       5.301   3.909  13.962  0.00  0.00    +0.000 A 
ENDBRANCH   7   8
BRANCH   4  14
ATOM     14  N   UNL     1       3.701   6.463  17.807  0.00  0.00    +0.000 N 
ATOM     15  H   UNL     1       3.624   5.468  17.996  0.00  0.00    +0.000 HD
BRANCH  14  16
ATOM     16  C   UNL     1       2.769   7.279  18.435  0.00  0.00    +0.000 A 
ATOM     17  C   UNL     1       2.332   7.077  19.749  0.00  0.00    +0.000 A 
ATOM     18  C   UNL     1       1.462   7.973  20.383  0.00  0.00    +0.000 A 
ATOM     19  C   UNL     1       1.040   9.114  19.704  0.00  0.00    +0.000 A 
ATOM     20  C   UNL     1       1.451   9.344  18.393  0.00  0.00    +0.000 A 
ATOM     21  C   UNL     1       2.318   8.435  17.777  0.00  0.00    +0.000 A 
BRANCH  19  22
ATOM     22  S   UNL     1      -0.048  10.262  20.508  0.00  0.00    +0.000 S 
ATOM     23  C   UNL     1       0.954  11.713  20.714  0.00  0.00    +0.000 C 
ATOM     24  O   UNL     1      -1.114  10.578  19.578  0.00  0.00    +0.000 OA
ATOM     25  O   UNL     1      -0.347   9.734  21.827  0.00  0.00    +0.000 OA
ENDBRANCH  19  22
ENDBRANCH  14  16
ENDBRANCH   4  14
TORSDOF 4
ENDMDL
MODEL 4
REMARK VINA RESULT:      -7.0      0.893      1.484
REMARK  Name = 
REMARK  6 active torsions:
REMARK  status: ('A' for Active; 'I' for Inactive)
REMARK    1  A    between atoms: C_1  and  C_2
REMARK    2  A    between atoms: C_4  and  N_5
REMARK    3  A    between atoms: N_5  and  C_6
REMARK    4  A    between atoms: C_9  and  S_10
REMARK    5  A    between atoms: S_10  and  C_11
REMARK    6  A    between atoms: N_18  and  C_19
REMARK                            x       y       z     vdW  Elec       q    Type
REMARK                         _______ _______ _______ _____ _____    ______ ____
ROOT
ATOM      1  C   UNL     1       7.698   4.404  17.076  0.00  0.00    +0.000 C 
ATOM      2  C   UNL     1       6.289   4.976  16.899  0.00  0.00    +0.000 C 
ATOM      3  C   UNL     1       6.140   6.195  17.813  0.00  0.00    +0.000 C 
ATOM      4  C   UNL     1       5.008   6.991  17.187  0.00  0.00    +0.000 C 
ATOM      5  C   UNL     1       5.223   6.706  15.698  0.00  0.00    +0.000 C 
ATOM      6  O   UNL     1       4.751   7.401  14.808  0.00  0.00    +0.000 OA
ATOM      7  N   UNL     1       5.970   5.510  15.583  0.00  0.00    +0.000 N 
ENDROOT
BRANCH   7   8
ATOM      8  C   UNL     1       6.194   4.833  14.350  0.00  0.00    +0.000 A 
ATOM      9  C   UNL     1       7.316   5.126  13.561  0.00  0.00    +0.000 A 
ATOM     10  C   UNL     1       7.557   4.460  12.353  0.00  0.00    +0.000 A 
ATOM     11  C   UNL     1       6.680   3.474  11.916  0.00  0.00    +0.000 A 
ATOM     12  C   UNL     1       5.560   3.165  12.680  0.00  0.00    +0.000 A 
ATOM     13  C   UNL     1       5.313   3.849  13.877  0.00  0.00    +0.000 A 
ENDBRANCH   7   8
BRANCH   4  14
ATOM     14  N   UNL     1       3.694   6.520  17.638  0.00  0.00    +0.000 N 
ATOM     15  H   UNL     1       3.537   5.518  17.574  0.00  0.00    +0.000 HD
BRANCH  14  16
ATOM     16  C   UNL     1       2.915   7.203  18.562  0.00  0.00    +0.000 A 
ATOM     17  C   UNL     1       2.325   8.445  18.303  0.00  0.00    +0.000 A 
ATOM     18  C   UNL     1       1.469   9.063  19.223  0.00  0.00    +0.000 A 
ATOM     19  C   UNL     1       1.166   8.414  20.418  0.00  0.00    +0.000 A 
ATOM     20  C   UNL     1       1.739   7.179  20.712  0.00  0.00    +0.000 A 
ATOM     21  C   UNL     1       2.594   6.581  19.780  0.00  0.00    +0.000 A 
BRANCH  19  22
ATOM     22  S   UNL     1       0.068   9.183  21.581  0.00  0.00    +0.000 S 
ATOM     23  C   UNL     1      -0.682  10.492  20.643  0.00  0.00    +0.000 C 
ATOM     24  O   UNL     1      -0.962   8.219  21.913  0.00  0.00    +0.000 OA
ATOM     25  O   UNL     1       0.882   9.787  22.620  0.00  0.00    +0.000 OA
ENDBRANCH  19  22
ENDBRANCH  14  16
ENDBRANCH   4  14
TORSDOF 4
ENDMDL
MODEL 5
REMARK VINA RESULT:      -6.8      3.951      8.936
REMARK  Name = 
REMARK  6 active torsions:
REMARK  status: ('A' for Active; 'I' for Inactive)
REMARK    1  A    between atoms: C_1  and  C_2
REMARK    2  A    between atoms: C_4  and  N_5
REMARK    3  A    between atoms: N_5  and  C_6
REMARK    4  A    between atoms: C_9  and  S_10
REMARK    5  A    between atoms: S_10  and  C_11
REMARK    6  A    between atoms: N_18  and  C_19
REMARK                            x       y       z     vdW  Elec       q    Type
REMARK                         _______ _______ _______ _____ _____    ______ ____
ROOT
ATOM      1  C   UNL     1      -0.747  11.520  22.817  0.00  0.00    +0.000 C 
ATOM      2  C   UNL     1       0.183  10.663  21.954  0.00  0.00    +0.000 C 
ATOM      3  C   UNL     1      -0.382   9.242  21.893  0.00  0.00    +0.000 C 
ATOM      4  C   UNL     1       0.232   8.654  20.634  0.00  0.00    +0.000 C 
ATOM      5  C   UNL     1       0.310   9.886  19.729  0.00  0.00    +0.000 C 
ATOM      6  O   UNL     1       0.431   9.817  18.513  0.00  0.00    +0.000 OA
ATOM      7  N   UNL     1       0.288  11.037  20.552  0.00  0.00    +0.000 N 
ENDROOT
BRANCH   7   8
ATOM      8  C   UNL     1       0.538  12.356  20.073  0.00  0.00    +0.000 A 
ATOM      9  C   UNL     1       1.795  12.956  20.241  0.00  0.00    +0.000 A 
ATOM     10  C   UNL     1       2.062  14.244  19.764  0.00  0.00    +0.000 A 
ATOM     11  C   UNL     1       1.073  14.957  19.096  0.00  0.00    +0.000 A 
ATOM     12  C   UNL     1      -0.181  14.384  18.916  0.00  0.00    +0.000 A 
ATOM     13  C   UNL     1      -0.449  13.103  19.414  0.00  0.00    +0.000 A 
ENDBRANCH   7   8
BRANCH   4  14
ATOM     14  N   UNL     1       1.562   8.089  20.888  0.00  0.00    +0.000 N 
ATOM     15  H   UNL     1       1.978   8.323  21.785  0.00  0.00    +0.000 HD
BRANCH  14  16
ATOM     16  C   UNL     1       2.028   6.931  20.280  0.00  0.00    +0.000 A 
ATOM     17  C   UNL     1       1.755   5.647  20.763  0.00  0.00    +0.000 A 
ATOM     18  C   UNL     1       2.162   4.497  20.074  0.00  0.00    +0.000 A 
ATOM     19  C   UNL     1       2.828   4.628  18.858  0.00  0.00    +0.000 A 
ATOM     20  C   UNL     1       3.121   5.892  18.350  0.00  0.00    +0.000 A 
ATOM     21  C   UNL     1       2.709   7.027  19.056  0.00  0.00    +0.000 A 
BRANCH  19  22
ATOM     22  S   UNL     1       3.331   3.176  17.971  0.00  0.00    +0.000 S 
ATOM     23  C   UNL     1       4.505   3.794  16.791  0.00  0.00    +0.000 C 
ATOM     24  O   UNL     1       4.036   2.318  18.902  0.00  0.00    +0.000 OA
ATOM     25  O   UNL     1       2.176   2.686  17.239  0.00  0.00    +0.000 OA
ENDBRANCH  19  22
ENDBRANCH  14  16
ENDBRANCH   4  14
TORSDOF 4
ENDMDL
MODEL 6
REMARK VINA RESULT:      -6.8      2.273      4.134
REMARK  Name = 
REMARK  6 active torsions:
REMARK  status: ('A' for Active; 'I' for Inactive)
REMARK    1  A    between atoms: C_1  and  C_2
REMARK    2  A    between atoms: C_4  and  N_5
REMARK    3  A    between atoms: N_5  and  C_6
REMARK    4  A    between atoms: C_9  and  S_10
REMARK    5  A    between atoms: S_10  and  C_11
REMARK    6  A    between atoms: N_18  and  C_19
REMARK                            x       y       z     vdW  Elec       q    Type
REMARK                         _______ _______ _______ _____ _____    ______ ____
ROOT
ATOM      1  C   UNL     1       6.369   4.860  14.981  0.00  0.00    +0.000 C 
ATOM      2  C   UNL     1       5.328   4.915  16.101  0.00  0.00    +0.000 C 
ATOM      3  C   UNL     1       4.700   3.527  16.251  0.00  0.00    +0.000 C 
ATOM      4  C   UNL     1       4.148   3.521  17.665  0.00  0.00    +0.000 C 
ATOM      5  C   UNL     1       5.174   4.389  18.397  0.00  0.00    +0.000 C 
ATOM      6  O   UNL     1       5.311   4.383  19.614  0.00  0.00    +0.000 OA
ATOM      7  N   UNL     1       5.833   5.194  17.437  0.00  0.00    +0.000 N 
ENDROOT
BRANCH   7   8
ATOM      8  C   UNL     1       6.714   6.262  17.773  0.00  0.00    +0.000 A 
ATOM      9  C   UNL     1       6.597   7.514  17.150  0.00  0.00    +0.000 A 
ATOM     10  C   UNL     1       7.445   8.578  17.478  0.00  0.00    +0.000 A 
ATOM     11  C   UNL     1       8.425   8.411  18.450  0.00  0.00    +0.000 A 
ATOM     12  C   UNL     1       8.561   7.180  19.082  0.00  0.00    +0.000 A 
ATOM     13  C   UNL     1       7.723   6.113  18.735  0.00  0.00    +0.000 A 
ENDBRANCH   7   8
BRANCH   4  14
ATOM     14  N   UNL     1       2.805   4.110  17.730  0.00  0.00    +0.000 N 
ATOM     15  H   UNL     1       2.039   3.492  17.478  0.00  0.00    +0.000 HD
BRANCH  14  16
ATOM     16  C   UNL     1       2.481   5.184  18.548  0.00  0.00    +0.000 A 
ATOM     17  C   UNL     1       2.582   6.519  18.140  0.00  0.00    +0.000 A 
ATOM     18  C   UNL     1       2.159   7.574  18.958  0.00  0.00    +0.000 A 
ATOM     19  C   UNL     1       1.590   7.293  20.199  0.00  0.00    +0.000 A 
ATOM     20  C   UNL     1       1.478   5.976  20.638  0.00  0.00    +0.000 A 
ATOM     21  C   UNL     1       1.910   4.937  19.807  0.00  0.00    +0.000 A 
BRANCH  19  22
ATOM     22  S   UNL     1       1.035   8.625  21.232  0.00  0.00    +0.000 S 
ATOM     23  C   UNL     1       0.967  10.011  20.124  0.00  0.00    +0.000 C 
ATOM     24  O   UNL     1      -0.317   8.317  21.652  0.00  0.00    +0.000 OA
ATOM     25  O   UNL     1       2.075   8.884  22.210  0.00  0.00    +0.000 OA
ENDBRANCH  19  22
ENDBRANCH  14  16
ENDBRANCH   4  14
TORSDOF 4
ENDMDL
MODEL 7
REMARK VINA RESULT:      -6.7      3.978      8.940
REMARK  Name = 
REMARK  6 active torsions:
REMARK  status: ('A' for Active; 'I' for Inactive)
REMARK    1  A    between atoms: C_1  and  C_2
REMARK    2  A    between atoms: C_4  and  N_5
REMARK    3  A    between atoms: N_5  and  C_6
REMARK    4  A    between atoms: C_9  and  S_10
REMARK    5  A    between atoms: S_10  and  C_11
REMARK    6  A    between atoms: N_18  and  C_19
REMARK                            x       y       z     vdW  Elec       q    Type
REMARK                         _______ _______ _______ _____ _____    ______ ____
ROOT
ATOM      1  C   UNL     1      -0.711  11.917  22.454  0.00  0.00    +0.000 C 
ATOM      2  C   UNL     1       0.223  11.030  21.627  0.00  0.00    +0.000 C 
ATOM      3  C   UNL     1      -0.376   9.623  21.559  0.00  0.00    +0.000 C 
ATOM      4  C   UNL     1       0.261   9.010  20.325  0.00  0.00    +0.000 C 
ATOM      5  C   UNL     1       0.399  10.231  19.413  0.00  0.00    +0.000 C 
ATOM      6  O   UNL     1       0.556  10.149  18.201  0.00  0.00    +0.000 OA
ATOM      7  N   UNL     1       0.380  11.390  20.226  0.00  0.00    +0.000 N 
ENDROOT
BRANCH   7   8
ATOM      8  C   UNL     1       0.679  12.697  19.745  0.00  0.00    +0.000 A 
ATOM      9  C   UNL     1      -0.340  13.551  19.300  0.00  0.00    +0.000 A 
ATOM     10  C   UNL     1      -0.065  14.844  18.838  0.00  0.00    +0.000 A 
ATOM     11  C   UNL     1       1.244  15.312  18.823  0.00  0.00    +0.000 A 
ATOM     12  C   UNL     1       2.273  14.485  19.259  0.00  0.00    +0.000 A 
ATOM     13  C   UNL     1       1.993  13.186  19.701  0.00  0.00    +0.000 A 
ENDBRANCH   7   8
BRANCH   4  14
ATOM     14  N   UNL     1       1.568   8.413  20.624  0.00  0.00    +0.000 N 
ATOM     15  H   UNL     1       1.955   8.631  21.538  0.00  0.00    +0.000 HD
BRANCH  14  16
ATOM     16  C   UNL     1       2.031   7.249  20.025  0.00  0.00    +0.000 A 
ATOM     17  C   UNL     1       1.866   5.978  20.587  0.00  0.00    +0.000 A 
ATOM     18  C   UNL     1       2.262   4.816  19.912  0.00  0.00    +0.000 A 
ATOM     19  C   UNL     1       2.806   4.919  18.634  0.00  0.00    +0.000 A 
ATOM     20  C   UNL     1       2.990   6.169  18.047  0.00  0.00    +0.000 A 
ATOM     21  C   UNL     1       2.590   7.317  18.739  0.00  0.00    +0.000 A 
BRANCH  19  22
ATOM     22  S   UNL     1       3.294   3.450  17.767  0.00  0.00    +0.000 S 
ATOM     23  C   UNL     1       4.604   4.007  16.706  0.00  0.00    +0.000 C 
ATOM     24  O   UNL     1       3.859   2.536  18.739  0.00  0.00    +0.000 OA
ATOM     25  O   UNL     1       2.180   3.045  16.927  0.00  0.00    +0.000 OA
ENDBRANCH  19  22
ENDBRANCH  14  16
ENDBRANCH   4  14
TORSDOF 4
ENDMDL
MODEL 8
REMARK VINA RESULT:      -6.7      3.830      9.897
REMARK  Name = 
REMARK  6 active torsions:
REMARK  status: ('A' for Active; 'I' for Inactive)
REMARK    1  A    between atoms: C_1  and  C_2
REMARK    2  A    between atoms: C_4  and  N_5
REMARK    3  A    between atoms: N_5  and  C_6
REMARK    4  A    between atoms: C_9  and  S_10
REMARK    5  A    between atoms: S_10  and  C_11
REMARK    6  A    between atoms: N_18  and  C_19
REMARK                            x       y       z     vdW  Elec       q    Type
REMARK                         _______ _______ _______ _____ _____    ______ ____
ROOT
ATOM      1  C   UNL     1      -2.327  11.161  18.380  0.00  0.00    +0.000 C 
ATOM      2  C   UNL     1      -1.242  10.539  19.262  0.00  0.00    +0.000 C 
ATOM      3  C   UNL     1      -0.046  10.174  18.378  0.00  0.00    +0.000 C 
ATOM      4  C   UNL     1       1.123  10.114  19.344  0.00  0.00    +0.000 C 
ATOM      5  C   UNL     1       0.745  11.204  20.351  0.00  0.00    +0.000 C 
ATOM      6  O   UNL     1       1.552  11.725  21.109  0.00  0.00    +0.000 OA
ATOM      7  N   UNL     1      -0.653  11.409  20.270  0.00  0.00    +0.000 N 
ENDROOT
BRANCH   7   8
ATOM      8  C   UNL     1      -1.389  12.208  21.191  0.00  0.00    +0.000 A 
ATOM      9  C   UNL     1      -1.684  13.549  20.906  0.00  0.00    +0.000 A 
ATOM     10  C   UNL     1      -2.418  14.344  21.794  0.00  0.00    +0.000 A 
ATOM     11  C   UNL     1      -2.883  13.804  22.988  0.00  0.00    +0.000 A 
ATOM     12  C   UNL     1      -2.604  12.477  23.294  0.00  0.00    +0.000 A 
ATOM     13  C   UNL     1      -1.852  11.693  22.411  0.00  0.00    +0.000 A 
ENDBRANCH   7   8
BRANCH   4  14
ATOM     14  N   UNL     1       1.230   8.801  19.991  0.00  0.00    +0.000 N 
ATOM     15  H   UNL     1       0.456   8.541  20.595  0.00  0.00    +0.000 HD
BRANCH  14  16
ATOM     16  C   UNL     1       1.980   7.754  19.473  0.00  0.00    +0.000 A 
ATOM     17  C   UNL     1       2.709   7.845  18.282  0.00  0.00    +0.000 A 
ATOM     18  C   UNL     1       3.529   6.801  17.836  0.00  0.00    +0.000 A 
ATOM     19  C   UNL     1       3.652   5.649  18.610  0.00  0.00    +0.000 A 
ATOM     20  C   UNL     1       2.936   5.521  19.798  0.00  0.00    +0.000 A 
ATOM     21  C   UNL     1       2.120   6.575  20.224  0.00  0.00    +0.000 A 
BRANCH  19  22
ATOM     22  S   UNL     1       4.703   4.330  18.059  0.00  0.00    +0.000 S 
ATOM     23  C   UNL     1       5.252   4.874  16.460  0.00  0.00    +0.000 C 
ATOM     24  O   UNL     1       5.851   4.289  18.941  0.00  0.00    +0.000 OA
ATOM     25  O   UNL     1       3.870   3.155  17.870  0.00  0.00    +0.000 OA
ENDBRANCH  19  22
ENDBRANCH  14  16
ENDBRANCH   4  14
TORSDOF 4
ENDMDL
MODEL 9
REMARK VINA RESULT:      -6.7      4.584      9.057
REMARK  Name = 
REMARK  6 active torsions:
REMARK  status: ('A' for Active; 'I' for Inactive)
REMARK    1  A    between atoms: C_1  and  C_2
REMARK    2  A    between atoms: C_4  and  N_5
REMARK    3  A    between atoms: N_5  and  C_6
REMARK    4  A    between atoms: C_9  and  S_10
REMARK    5  A    between atoms: S_10  and  C_11
REMARK    6  A    between atoms: N_18  and  C_19
REMARK                            x       y       z     vdW  Elec       q    Type
REMARK                         _______ _______ _______ _____ _____    ______ ____
ROOT
ATOM      1  C   UNL     1      -0.838  11.502  22.745  0.00  0.00    +0.000 C 
ATOM      2  C   UNL     1       0.128  10.658  21.910  0.00  0.00    +0.000 C 
ATOM      3  C   UNL     1      -0.417   9.229  21.833  0.00  0.00    +0.000 C 
ATOM      4  C   UNL     1       0.241   8.650  20.594  0.00  0.00    +0.000 C 
ATOM      5  C   UNL     1       0.330   9.882  19.690  0.00  0.00    +0.000 C 
ATOM      6  O   UNL     1       0.488   9.815  18.478  0.00  0.00    +0.000 OA
ATOM      7  N   UNL     1       0.269  11.033  20.511  0.00  0.00    +0.000 N 
ENDROOT
BRANCH   7   8
ATOM      8  C   UNL     1       0.517  12.354  20.040  0.00  0.00    +0.000 A 
ATOM      9  C   UNL     1      -0.474  13.071  19.352  0.00  0.00    +0.000 A 
ATOM     10  C   UNL     1      -0.251  14.375  18.894  0.00  0.00    +0.000 A 
ATOM     11  C   UNL     1       0.971  14.994  19.128  0.00  0.00    +0.000 A 
ATOM     12  C   UNL     1       1.970  14.305  19.808  0.00  0.00    +0.000 A 
ATOM     13  C   UNL     1       1.748  12.993  20.245  0.00  0.00    +0.000 A 
ENDBRANCH   7   8
BRANCH   4  14
ATOM     14  N   UNL     1       1.571   8.102  20.886  0.00  0.00    +0.000 N 
ATOM     15  H   UNL     1       1.956   8.339  21.796  0.00  0.00    +0.000 HD
BRANCH  14  16
ATOM     16  C   UNL     1       2.070   6.951  20.292  0.00  0.00    +0.000 A 
ATOM     17  C   UNL     1       2.873   6.964  19.146  0.00  0.00    +0.000 A 
ATOM     18  C   UNL     1       3.437   5.791  18.626  0.00  0.00    +0.000 A 
ATOM     19  C   UNL     1       3.223   4.580  19.281  0.00  0.00    +0.000 A 
ATOM     20  C   UNL     1       2.423   4.530  20.421  0.00  0.00    +0.000 A 
ATOM     21  C   UNL     1       1.867   5.712  20.922  0.00  0.00    +0.000 A 
BRANCH  19  22
ATOM     22  S   UNL     1       3.948   3.094  18.638  0.00  0.00    +0.000 S 
ATOM     23  C   UNL     1       2.566   1.991  18.479  0.00  0.00    +0.000 C 
ATOM     24  O   UNL     1       4.445   3.390  17.310  0.00  0.00    +0.000 OA
ATOM     25  O   UNL     1       4.831   2.559  19.659  0.00  0.00    +0.000 OA
ENDBRANCH  19  22
ENDBRANCH  14  16
ENDBRANCH   4  14
TORSDOF 4
ENDMDL
