MODEL 1
REMARK VINA RESULT:      -7.8      0.000      0.000
REMARK  Name = 
REMARK  2 active torsions:
REMARK  status: ('A' for Active; 'I' for Inactive)
REMARK    1  A    between atoms: C_2  and  C_3
REMARK    2  A    between atoms: C_2  and  C_8
REMARK                            x       y       z     vdW  Elec       q    Type
REMARK                         _______ _______ _______ _____ _____    ______ ____
ROOT
ATOM      1  C   UNL     1       2.968   4.979  18.875  0.00  0.00    +0.000 A 
ATOM      2  C   UNL     1       2.584   4.528  20.161  0.00  0.00    +0.000 A 
ATOM      3  N   UNL     1       1.981   5.473  20.891  0.00  0.00    +0.000 NA
ATOM      4  N   UNL     1       1.986   6.544  20.079  0.00  0.00    +0.000 N 
ATOM      5  C   UNL     1       2.553   6.303  18.851  0.00  0.00    +0.000 A 
ATOM      6  N   UNL     1       2.624   7.273  17.897  0.00  0.00    +0.000 NA
ATOM      7  N   UNL     1       2.174   8.451  18.114  0.00  0.00    +0.000 N 
ATOM      8  O   UNL     1       2.232   9.359  17.223  0.00  0.00    +0.000 OA
ATOM      9  C   UNL     1       1.565   8.784  19.413  0.00  0.00    +0.000 A 
ATOM     10  C   UNL     1       1.072  10.070  19.655  0.00  0.00    +0.000 A 
ATOM     11  C   UNL     1       0.499  10.363  20.895  0.00  0.00    +0.000 A 
ATOM     12  C   UNL     1       0.424   9.377  21.887  0.00  0.00    +0.000 A 
ATOM     13 CL   UNL     1      -0.279   9.766  23.408  0.00  0.00    +0.000 Cl
ATOM     14  C   UNL     1       0.911   8.090  21.657  0.00  0.00    +0.000 A 
ATOM     15  C   UNL     1       1.476   7.805  20.412  0.00  0.00    +0.000 A 
ENDROOT
BRANCH   1  17
ATOM     16  O   UNL     1       3.103   3.594  17.004  0.00  0.00    +0.000 OA
ATOM     17  C   UNL     1       3.696   4.319  17.799  0.00  0.00    +0.000 C 
BRANCH  17  18
ATOM     18  C   UNL     1       5.119   4.591  17.658  0.00  0.00    +0.000 A 
ATOM     19  C   UNL     1       5.890   4.296  16.547  0.00  0.00    +0.000 A 
ATOM     20  C   UNL     1       7.270   4.587  16.740  0.00  0.00    +0.000 A 
ATOM     21  C   UNL     1       7.517   5.068  18.006  0.00  0.00    +0.000 A 
ATOM     22  S   UNL     1       6.091   5.173  18.943  0.00  0.00    +0.000 S 
ENDBRANCH  17  18
ENDBRANCH   1  17
TORSDOF 2
ENDMDL
MODEL 2
REMARK VINA RESULT:      -7.7      1.008      1.131
REMARK  Name = 
REMARK  2 active torsions:
REMARK  status: ('A' for Active; 'I' for Inactive)
REMARK    1  A    between atoms: C_2  and  C_3
REMARK    2  A    between atoms: C_2  and  C_8
REMARK                            x       y       z     vdW  Elec       q    Type
REMARK                         _______ _______ _______ _____ _____    ______ ____
ROOT
ATOM      1  C   UNL     1       3.018   5.562  19.052  0.00  0.00    +0.000 A 
ATOM      2  C   UNL     1       2.551   5.084  20.301  0.00  0.00    +0.000 A 
ATOM      3  N   UNL     1       1.830   5.988  20.973  0.00  0.00    +0.000 NA
ATOM      4  N   UNL     1       1.842   7.060  20.163  0.00  0.00    +0.000 N 
ATOM      5  C   UNL     1       2.528   6.858  18.990  0.00  0.00    +0.000 A 
ATOM      6  N   UNL     1       2.623   7.833  18.043  0.00  0.00    +0.000 NA
ATOM      7  N   UNL     1       2.086   8.981  18.218  0.00  0.00    +0.000 N 
ATOM      8  O   UNL     1       2.166   9.894  17.333  0.00  0.00    +0.000 OA
ATOM      9  C   UNL     1       1.346   9.272  19.458  0.00  0.00    +0.000 A 
ATOM     10  C   UNL     1       0.756  10.525  19.654  0.00  0.00    +0.000 A 
ATOM     11  C   UNL     1       0.061  10.779  20.838  0.00  0.00    +0.000 A 
ATOM     12  C   UNL     1      -0.041   9.788  21.821  0.00  0.00    +0.000 A 
ATOM     13 CL   UNL     1      -0.897  10.128  23.274  0.00  0.00    +0.000 Cl
ATOM     14  C   UNL     1       0.541   8.533  21.637  0.00  0.00    +0.000 A 
ATOM     15  C   UNL     1       1.229   8.287  20.447  0.00  0.00    +0.000 A 
ENDROOT
BRANCH   1  17
ATOM     16  O   UNL     1       3.423   4.107  17.276  0.00  0.00    +0.000 OA
ATOM     17  C   UNL     1       3.876   4.950  18.045  0.00  0.00    +0.000 C 
BRANCH  17  18
ATOM     18  C   UNL     1       5.253   5.409  17.939  0.00  0.00    +0.000 A 
ATOM     19  C   UNL     1       6.218   5.301  18.926  0.00  0.00    +0.000 A 
ATOM     20  C   UNL     1       7.445   5.929  18.569  0.00  0.00    +0.000 A 
ATOM     21  C   UNL     1       7.371   6.525  17.331  0.00  0.00    +0.000 A 
ATOM     22  S   UNL     1       5.836   6.317  16.608  0.00  0.00    +0.000 S 
ENDBRANCH  17  18
ENDBRANCH   1  17
TORSDOF 2
ENDMDL
MODEL 3
REMARK VINA RESULT:      -7.6      3.141      4.660
REMARK  Name = 
REMARK  2 active torsions:
REMARK  status: ('A' for Active; 'I' for Inactive)
REMARK    1  A    between atoms: C_2  and  C_3
REMARK    2  A    between atoms: C_2  and  C_8
REMARK                            x       y       z     vdW  Elec       q    Type
REMARK                         _______ _______ _______ _____ _____    ______ ____
ROOT
ATOM      1  C   UNL     1       5.978   5.535  16.562  0.00  0.00    +0.000 A 
ATOM      2  C   UNL     1       5.417   6.820  16.355  0.00  0.00    +0.000 A 
ATOM      3  N   UNL     1       4.443   7.114  17.222  0.00  0.00    +0.000 NA
ATOM      4  N   UNL     1       4.363   6.011  17.987  0.00  0.00    +0.000 N 
ATOM      5  C   UNL     1       5.270   5.037  17.646  0.00  0.00    +0.000 A 
ATOM      6  N   UNL     1       5.342   3.860  18.330  0.00  0.00    +0.000 NA
ATOM      7  N   UNL     1       4.557   3.614  19.310  0.00  0.00    +0.000 N 
ATOM      8  O   UNL     1       4.625   2.519  19.957  0.00  0.00    +0.000 OA
ATOM      9  C   UNL     1       3.552   4.609  19.722  0.00  0.00    +0.000 A 
ATOM     10  C   UNL     1       2.692   4.345  20.794  0.00  0.00    +0.000 A 
ATOM     11  C   UNL     1       1.746   5.302  21.166  0.00  0.00    +0.000 A 
ATOM     12  C   UNL     1       1.657   6.513  20.469  0.00  0.00    +0.000 A 
ATOM     13 CL   UNL     1       0.478   7.673  20.944  0.00  0.00    +0.000 Cl
ATOM     14  C   UNL     1       2.511   6.789  19.400  0.00  0.00    +0.000 A 
ATOM     15  C   UNL     1       3.458   5.828  19.040  0.00  0.00    +0.000 A 
ENDROOT
BRANCH   1  17
ATOM     16  O   UNL     1       8.002   4.390  16.399  0.00  0.00    +0.000 OA
ATOM     17  C   UNL     1       6.995   4.797  15.825  0.00  0.00    +0.000 C 
BRANCH  17  18
ATOM     18  C   UNL     1       6.756   4.505  14.420  0.00  0.00    +0.000 A 
ATOM     19  C   UNL     1       5.757   3.684  13.925  0.00  0.00    +0.000 A 
ATOM     20  C   UNL     1       5.833   3.510  12.514  0.00  0.00    +0.000 A 
ATOM     21  C   UNL     1       6.908   4.180  11.976  0.00  0.00    +0.000 A 
ATOM     22  S   UNL     1       7.806   5.016  13.167  0.00  0.00    +0.000 S 
ENDBRANCH  17  18
ENDBRANCH   1  17
TORSDOF 2
ENDMDL
MODEL 4
REMARK VINA RESULT:      -7.3      2.986      4.250
REMARK  Name = 
REMARK  2 active torsions:
REMARK  status: ('A' for Active; 'I' for Inactive)
REMARK    1  A    between atoms: C_2  and  C_3
REMARK    2  A    between atoms: C_2  and  C_8
REMARK                            x       y       z     vdW  Elec       q    Type
REMARK                         _______ _______ _______ _____ _____    ______ ____
ROOT
ATOM      1  C   UNL     1       2.746   7.011  18.865  0.00  0.00    +0.000 A 
ATOM      2  C   UNL     1       2.883   7.698  17.634  0.00  0.00    +0.000 A 
ATOM      3  N   UNL     1       2.264   8.883  17.621  0.00  0.00    +0.000 NA
ATOM      4  N   UNL     1       1.714   8.960  18.845  0.00  0.00    +0.000 N 
ATOM      5  C   UNL     1       1.981   7.871  19.639  0.00  0.00    +0.000 A 
ATOM      6  N   UNL     1       1.517   7.792  20.918  0.00  0.00    +0.000 NA
ATOM      7  N   UNL     1       0.803   8.726  21.423  0.00  0.00    +0.000 N 
ATOM      8  O   UNL     1       0.373   8.660  22.620  0.00  0.00    +0.000 OA
ATOM      9  C   UNL     1       0.467   9.917  20.624  0.00  0.00    +0.000 A 
ATOM     10  C   UNL     1      -0.313  10.940  21.172  0.00  0.00    +0.000 A 
ATOM     11  C   UNL     1      -0.621  12.060  20.394  0.00  0.00    +0.000 A 
ATOM     12  C   UNL     1      -0.155  12.152  19.078  0.00  0.00    +0.000 A 
ATOM     13 CL   UNL     1      -0.554  13.538  18.139  0.00  0.00    +0.000 Cl
ATOM     14  C   UNL     1       0.626  11.138  18.520  0.00  0.00    +0.000 A 
ATOM     15  C   UNL     1       0.933  10.027  19.308  0.00  0.00    +0.000 A 
ENDROOT
BRANCH   1  17
ATOM     16  O   UNL     1       4.342   5.522  19.685  0.00  0.00    +0.000 OA
ATOM     17  C   UNL     1       3.192   5.690  19.288  0.00  0.00    +0.000 C 
BRANCH  17  18
ATOM     18  C   UNL     1       2.227   4.600  19.284  0.00  0.00    +0.000 A 
ATOM     19  C   UNL     1       1.493   4.169  20.376  0.00  0.00    +0.000 A 
ATOM     20  C   UNL     1       0.704   3.018  20.090  0.00  0.00    +0.000 A 
ATOM     21  C   UNL     1       0.883   2.586  18.796  0.00  0.00    +0.000 A 
ATOM     22  S   UNL     1       1.986   3.570  17.936  0.00  0.00    +0.000 S 
ENDBRANCH  17  18
ENDBRANCH   1  17
TORSDOF 2
ENDMDL
MODEL 5
REMARK VINA RESULT:      -7.0      3.807      7.216
REMARK  Name = 
REMARK  2 active torsions:
REMARK  status: ('A' for Active; 'I' for Inactive)
REMARK    1  A    between atoms: C_2  and  C_3
REMARK    2  A    between atoms: C_2  and  C_8
REMARK                            x       y       z     vdW  Elec       q    Type
REMARK                         _______ _______ _______ _____ _____    ______ ____
ROOT
ATOM      1  C   UNL     1       1.515   9.066  19.085  0.00  0.00    +0.000 A 
ATOM      2  C   UNL     1       2.098   9.430  17.847  0.00  0.00    +0.000 A 
ATOM      3  N   UNL     1       2.864   8.466  17.323  0.00  0.00    +0.000 NA
ATOM      4  N   UNL     1       2.786   7.479  18.232  0.00  0.00    +0.000 N 
ATOM      5  C   UNL     1       1.979   7.778  19.304  0.00  0.00    +0.000 A 
ATOM      6  N   UNL     1       1.771   6.882  20.309  0.00  0.00    +0.000 NA
ATOM      7  N   UNL     1       2.330   5.732  20.299  0.00  0.00    +0.000 N 
ATOM      8  O   UNL     1       2.133   4.889  21.234  0.00  0.00    +0.000 OA
ATOM      9  C   UNL     1       3.218   5.349  19.188  0.00  0.00    +0.000 A 
ATOM     10  C   UNL     1       3.831   4.092  19.172  0.00  0.00    +0.000 A 
ATOM     11  C   UNL     1       4.670   3.751  18.108  0.00  0.00    +0.000 A 
ATOM     12  C   UNL     1       4.897   4.663  17.070  0.00  0.00    +0.000 A 
ATOM     13 CL   UNL     1       5.940   4.222  15.775  0.00  0.00    +0.000 Cl
ATOM     14  C   UNL     1       4.289   5.920  17.074  0.00  0.00    +0.000 A 
ATOM     15  C   UNL     1       3.447   6.248  18.138  0.00  0.00    +0.000 A 
ENDROOT
BRANCH   1  17
ATOM     16  O   UNL     1       1.047   9.982  21.177  0.00  0.00    +0.000 OA
ATOM     17  C   UNL     1       0.683   9.817  20.016  0.00  0.00    +0.000 C 
BRANCH  17  18
ATOM     18  C   UNL     1      -0.549  10.413  19.518  0.00  0.00    +0.000 A 
ATOM     19  C   UNL     1      -1.232  10.021  18.380  0.00  0.00    +0.000 A 
ATOM     20  C   UNL     1      -2.349  10.855  18.092  0.00  0.00    +0.000 A 
ATOM     21  C   UNL     1      -2.469  11.879  19.003  0.00  0.00    +0.000 A 
ATOM     22  S   UNL     1      -1.247  11.822  20.198  0.00  0.00    +0.000 S 
ENDBRANCH  17  18
ENDBRANCH   1  17
TORSDOF 2
ENDMDL
MODEL 6
REMARK VINA RESULT:      -7.0      1.975      2.385
REMARK  Name = 
REMARK  2 active torsions:
REMARK  status: ('A' for Active; 'I' for Inactive)
REMARK    1  A    between atoms: C_2  and  C_3
REMARK    2  A    between atoms: C_2  and  C_8
REMARK                            x       y       z     vdW  Elec       q    Type
REMARK                         _______ _______ _______ _____ _____    ______ ____
ROOT
ATOM      1  C   UNL     1       2.625   6.299  19.309  0.00  0.00    +0.000 A 
ATOM      2  C   UNL     1       2.053   5.885  20.537  0.00  0.00    +0.000 A 
ATOM      3  N   UNL     1       1.329   6.842  21.129  0.00  0.00    +0.000 NA
ATOM      4  N   UNL     1       1.444   7.884  20.288  0.00  0.00    +0.000 N 
ATOM      5  C   UNL     1       2.199   7.612  19.172  0.00  0.00    +0.000 A 
ATOM      6  N   UNL     1       2.402   8.549  18.204  0.00  0.00    +0.000 NA
ATOM      7  N   UNL     1       1.906   9.724  18.305  0.00  0.00    +0.000 N 
ATOM      8  O   UNL     1       2.087  10.602  17.400  0.00  0.00    +0.000 OA
ATOM      9  C   UNL     1       1.097  10.089  19.481  0.00  0.00    +0.000 A 
ATOM     10  C   UNL     1       0.553  11.372  19.595  0.00  0.00    +0.000 A 
ATOM     11  C   UNL     1      -0.210  11.697  20.720  0.00  0.00    +0.000 A 
ATOM     12  C   UNL     1      -0.423  10.745  21.725  0.00  0.00    +0.000 A 
ATOM     13 CL   UNL     1      -1.360  11.171  23.103  0.00  0.00    +0.000 Cl
ATOM     14  C   UNL     1       0.114   9.460  21.621  0.00  0.00    +0.000 A 
ATOM     15  C   UNL     1       0.869   9.145  20.490  0.00  0.00    +0.000 A 
ENDROOT
BRANCH   1  17
ATOM     16  O   UNL     1       4.386   6.247  17.782  0.00  0.00    +0.000 OA
ATOM     17  C   UNL     1       3.521   5.617  18.385  0.00  0.00    +0.000 C 
BRANCH  17  18
ATOM     18  C   UNL     1       3.403   4.173  18.245  0.00  0.00    +0.000 A 
ATOM     19  C   UNL     1       2.478   3.511  17.455  0.00  0.00    +0.000 A 
ATOM     20  C   UNL     1       2.540   2.096  17.600  0.00  0.00    +0.000 A 
ATOM     21  C   UNL     1       3.491   1.720  18.520  0.00  0.00    +0.000 A 
ATOM     22  S   UNL     1       4.304   3.065  19.192  0.00  0.00    +0.000 S 
ENDBRANCH  17  18
ENDBRANCH   1  17
TORSDOF 2
ENDMDL
MODEL 7
REMARK VINA RESULT:      -7.0      3.979      6.926
REMARK  Name = 
REMARK  2 active torsions:
REMARK  status: ('A' for Active; 'I' for Inactive)
REMARK    1  A    between atoms: C_2  and  C_3
REMARK    2  A    between atoms: C_2  and  C_8
REMARK                            x       y       z     vdW  Elec       q    Type
REMARK                         _______ _______ _______ _____ _____    ______ ____
ROOT
ATOM      1  C   UNL     1       2.737   4.982  18.833  0.00  0.00    +0.000 A 
ATOM      2  C   UNL     1       2.042   4.201  17.877  0.00  0.00    +0.000 A 
ATOM      3  N   UNL     1       2.772   3.930  16.789  0.00  0.00    +0.000 NA
ATOM      4  N   UNL     1       3.940   4.549  17.035  0.00  0.00    +0.000 N 
ATOM      5  C   UNL     1       3.981   5.185  18.253  0.00  0.00    +0.000 A 
ATOM      6  N   UNL     1       5.096   5.846  18.673  0.00  0.00    +0.000 NA
ATOM      7  N   UNL     1       6.144   5.910  17.942  0.00  0.00    +0.000 N 
ATOM      8  O   UNL     1       7.190   6.521  18.333  0.00  0.00    +0.000 OA
ATOM      9  C   UNL     1       6.165   5.262  16.619  0.00  0.00    +0.000 A 
ATOM     10  C   UNL     1       7.309   5.329  15.816  0.00  0.00    +0.000 A 
ATOM     11  C   UNL     1       7.306   4.708  14.565  0.00  0.00    +0.000 A 
ATOM     12  C   UNL     1       6.166   4.029  14.118  0.00  0.00    +0.000 A 
ATOM     13 CL   UNL     1       6.185   3.279  12.570  0.00  0.00    +0.000 Cl
ATOM     14  C   UNL     1       5.019   3.954  14.911  0.00  0.00    +0.000 A 
ATOM     15  C   UNL     1       5.035   4.572  16.163  0.00  0.00    +0.000 A 
ENDROOT
BRANCH   1  17
ATOM     16  O   UNL     1       2.355   4.876  21.130  0.00  0.00    +0.000 OA
ATOM     17  C   UNL     1       2.313   5.551  20.105  0.00  0.00    +0.000 C 
BRANCH  17  18
ATOM     18  C   UNL     1       1.901   6.947  20.136  0.00  0.00    +0.000 A 
ATOM     19  C   UNL     1       1.238   7.570  21.179  0.00  0.00    +0.000 A 
ATOM     20  C   UNL     1       0.879   8.915  20.880  0.00  0.00    +0.000 A 
ATOM     21  C   UNL     1       1.252   9.270  19.603  0.00  0.00    +0.000 A 
ATOM     22  S   UNL     1       2.036   7.991  18.783  0.00  0.00    +0.000 S 
ENDBRANCH  17  18
ENDBRANCH   1  17
TORSDOF 2
ENDMDL
MODEL 8
REMARK VINA RESULT:      -6.8      3.410      6.564
REMARK  Name = 
REMARK  2 active torsions:
REMARK  status: ('A' for Active; 'I' for Inactive)
REMARK    1  A    between atoms: C_2  and  C_3
REMARK    2  A    between atoms: C_2  and  C_8
REMARK                            x       y       z     vdW  Elec       q    Type
REMARK                         _______ _______ _______ _____ _____    ______ ____
ROOT
ATOM      1  C   UNL     1       1.067   9.285  19.796  0.00  0.00    +0.000 A 
ATOM      2  C   UNL     1       0.559   8.729  20.996  0.00  0.00    +0.000 A 
ATOM      3  N   UNL     1       0.991   7.484  21.222  0.00  0.00    +0.000 NA
ATOM      4  N   UNL     1       1.772   7.227  20.159  0.00  0.00    +0.000 N 
ATOM      5  C   UNL     1       1.865   8.277  19.277  0.00  0.00    +0.000 A 
ATOM      6  N   UNL     1       2.632   8.196  18.153  0.00  0.00    +0.000 NA
ATOM      7  N   UNL     1       3.284   7.133  17.871  0.00  0.00    +0.000 N 
ATOM      8  O   UNL     1       4.008   7.055  16.825  0.00  0.00    +0.000 OA
ATOM      9  C   UNL     1       3.220   5.964  18.765  0.00  0.00    +0.000 A 
ATOM     10  C   UNL     1       3.932   4.799  18.460  0.00  0.00    +0.000 A 
ATOM     11  C   UNL     1       3.855   3.703  19.322  0.00  0.00    +0.000 A 
ATOM     12  C   UNL     1       3.068   3.770  20.478  0.00  0.00    +0.000 A 
ATOM     13 CL   UNL     1       2.984   2.403  21.520  0.00  0.00    +0.000 Cl
ATOM     14  C   UNL     1       2.354   4.927  20.794  0.00  0.00    +0.000 A 
ATOM     15  C   UNL     1       2.443   6.020  19.929  0.00  0.00    +0.000 A 
ENDROOT
BRANCH   1  17
ATOM     16  O   UNL     1       1.695  11.409  19.071  0.00  0.00    +0.000 OA
ATOM     17  C   UNL     1       0.811  10.561  19.141  0.00  0.00    +0.000 C 
BRANCH  17  18
ATOM     18  C   UNL     1      -0.491  10.773  18.524  0.00  0.00    +0.000 A 
ATOM     19  C   UNL     1      -1.094   9.932  17.605  0.00  0.00    +0.000 A 
ATOM     20  C   UNL     1      -2.321  10.453  17.103  0.00  0.00    +0.000 A 
ATOM     21  C   UNL     1      -2.602  11.692  17.631  0.00  0.00    +0.000 A 
ATOM     22  S   UNL     1      -1.399  12.211  18.729  0.00  0.00    +0.000 S 
ENDBRANCH  17  18
ENDBRANCH   1  17
TORSDOF 2
ENDMDL
MODEL 9
REMARK VINA RESULT:      -6.8      3.287      4.532
REMARK  Name = 
REMARK  2 active torsions:
REMARK  status: ('A' for Active; 'I' for Inactive)
REMARK    1  A    between atoms: C_2  and  C_3
REMARK    2  A    between atoms: C_2  and  C_8
REMARK                            x       y       z     vdW  Elec       q    Type
REMARK                         _______ _______ _______ _____ _____    ______ ____
ROOT
ATOM      1  C   UNL     1       5.715   4.499  16.304  0.00  0.00    +0.000 A 
ATOM      2  C   UNL     1       5.626   3.149  16.723  0.00  0.00    +0.000 A 
ATOM      3  N   UNL     1       4.743   2.963  17.711  0.00  0.00    +0.000 NA
ATOM      4  N   UNL     1       4.268   4.199  17.941  0.00  0.00    +0.000 N 
ATOM      5  C   UNL     1       4.805   5.159  17.117  0.00  0.00    +0.000 A 
ATOM      6  N   UNL     1       4.421   6.463  17.200  0.00  0.00    +0.000 NA
ATOM      7  N   UNL     1       3.553   6.846  18.059  0.00  0.00    +0.000 N 
ATOM      8  O   UNL     1       3.186   8.063  18.135  0.00  0.00    +0.000 OA
ATOM      9  C   UNL     1       2.946   5.873  18.983  0.00  0.00    +0.000 A 
ATOM     10  C   UNL     1       1.996   6.286  19.923  0.00  0.00    +0.000 A 
ATOM     11  C   UNL     1       1.435   5.345  20.790  0.00  0.00    +0.000 A 
ATOM     12  C   UNL     1       1.823   4.002  20.719  0.00  0.00    +0.000 A 
ATOM     13 CL   UNL     1       1.122   2.865  21.803  0.00  0.00    +0.000 Cl
ATOM     14  C   UNL     1       2.768   3.577  19.784  0.00  0.00    +0.000 A 
ATOM     15  C   UNL     1       3.319   4.524  18.918  0.00  0.00    +0.000 A 
ENDROOT
BRANCH   1  17
ATOM     16  O   UNL     1       7.320   6.065  15.666  0.00  0.00    +0.000 OA
ATOM     17  C   UNL     1       6.575   5.150  15.324  0.00  0.00    +0.000 C 
BRANCH  17  18
ATOM     18  C   UNL     1       6.572   4.648  13.958  0.00  0.00    +0.000 A 
ATOM     19  C   UNL     1       5.694   3.708  13.446  0.00  0.00    +0.000 A 
ATOM     20  C   UNL     1       5.999   3.340  12.105  0.00  0.00    +0.000 A 
ATOM     21  C   UNL     1       7.121   3.989  11.642  0.00  0.00    +0.000 A 
ATOM     22  S   UNL     1       7.789   5.037  12.816  0.00  0.00    +0.000 S 
ENDBRANCH  17  18
ENDBRANCH   1  17
TORSDOF 2
ENDMDL
