MODEL 1
REMARK VINA RESULT:      -5.3      0.000      0.000
REMARK  Name = 
REMARK  1 active torsions:
REMARK  status: ('A' for Active; 'I' for Inactive)
REMARK    1  A    between atoms: S_1  and  C_2
REMARK                            x       y       z     vdW  Elec       q    Type
REMARK                         _______ _______ _______ _____ _____    ______ ____
ROOT
ATOM      1  C   UNL     1       4.687   5.118  17.019  0.00  0.00    +0.000 A 
ATOM      2  C   UNL     1       4.606   6.516  17.140  0.00  0.00    +0.000 A 
ATOM      3  C   UNL     1       3.503   7.106  17.743  0.00  0.00    +0.000 A 
ATOM      4  C   UNL     1       2.475   6.305  18.226  0.00  0.00    +0.000 A 
ATOM      5  C   UNL     1       2.540   4.908  18.099  0.00  0.00    +0.000 A 
ATOM      6  C   UNL     1       1.492   4.103  18.569  0.00  0.00    +0.000 A 
ATOM      7  C   UNL     1       1.554   2.724  18.427  0.00  0.00    +0.000 A 
ATOM      8  C   UNL     1       2.674   2.192  17.826  0.00  0.00    +0.000 A 
ATOM      9  N   UNL     1       3.705   2.934  17.370  0.00  0.00    +0.000 NA
ATOM     10  C   UNL     1       3.653   4.283  17.490  0.00  0.00    +0.000 A 
ENDROOT
BRANCH   1  11
ATOM     11  S   UNL     1       6.154   4.418  16.242  0.00  0.00    +0.000 S 
ATOM     12  H   UNL     1       6.036   5.025  15.054  0.00  0.00    +0.000 HD
ENDBRANCH   1  11
TORSDOF 1
ENDMDL
MODEL 2
REMARK VINA RESULT:      -5.3      2.227      3.910
REMARK  Name = 
REMARK  1 active torsions:
REMARK  status: ('A' for Active; 'I' for Inactive)
REMARK    1  A    between atoms: S_1  and  C_2
REMARK                            x       y       z     vdW  Elec       q    Type
REMARK                         _______ _______ _______ _____ _____    ______ ____
ROOT
ATOM      1  C   UNL     1       4.021   4.252  18.924  0.00  0.00    +0.000 A 
ATOM      2  C   UNL     1       2.737   4.812  18.807  0.00  0.00    +0.000 A 
ATOM      3  C   UNL     1       2.560   6.040  18.182  0.00  0.00    +0.000 A 
ATOM      4  C   UNL     1       3.663   6.715  17.672  0.00  0.00    +0.000 A 
ATOM      5  C   UNL     1       4.951   6.171  17.795  0.00  0.00    +0.000 A 
ATOM      6  C   UNL     1       6.065   6.864  17.298  0.00  0.00    +0.000 A 
ATOM      7  C   UNL     1       7.337   6.329  17.435  0.00  0.00    +0.000 A 
ATOM      8  C   UNL     1       7.455   5.106  18.059  0.00  0.00    +0.000 A 
ATOM      9  N   UNL     1       6.406   4.407  18.542  0.00  0.00    +0.000 NA
ATOM     10  C   UNL     1       5.157   4.922  18.426  0.00  0.00    +0.000 A 
ENDROOT
BRANCH   1  11
ATOM     11  S   UNL     1       4.176   2.649  19.731  0.00  0.00    +0.000 S 
ATOM     12  H   UNL     1       4.477   1.929  18.643  0.00  0.00    +0.000 HD
ENDBRANCH   1  11
TORSDOF 1
ENDMDL
MODEL 3
REMARK VINA RESULT:      -5.2      2.145      3.107
REMARK  Name = 
REMARK  1 active torsions:
REMARK  status: ('A' for Active; 'I' for Inactive)
REMARK    1  A    between atoms: S_1  and  C_2
REMARK                            x       y       z     vdW  Elec       q    Type
REMARK                         _______ _______ _______ _____ _____    ______ ____
ROOT
ATOM      1  C   UNL     1       6.618   5.069  17.966  0.00  0.00    +0.000 A 
ATOM      2  C   UNL     1       7.144   4.621  16.743  0.00  0.00    +0.000 A 
ATOM      3  C   UNL     1       6.306   4.096  15.767  0.00  0.00    +0.000 A 
ATOM      4  C   UNL     1       4.940   4.013  16.010  0.00  0.00    +0.000 A 
ATOM      5  C   UNL     1       4.405   4.446  17.234  0.00  0.00    +0.000 A 
ATOM      6  C   UNL     1       3.028   4.342  17.484  0.00  0.00    +0.000 A 
ATOM      7  C   UNL     1       2.508   4.757  18.700  0.00  0.00    +0.000 A 
ATOM      8  C   UNL     1       3.384   5.276  19.629  0.00  0.00    +0.000 A 
ATOM      9  N   UNL     1       4.712   5.398  19.421  0.00  0.00    +0.000 NA
ATOM     10  C   UNL     1       5.238   4.986  18.242  0.00  0.00    +0.000 A 
ENDROOT
BRANCH   1  11
ATOM     11  S   UNL     1       7.760   5.756  19.180  0.00  0.00    +0.000 S 
ATOM     12  H   UNL     1       8.520   6.461  18.332  0.00  0.00    +0.000 HD
ENDBRANCH   1  11
TORSDOF 1
ENDMDL
MODEL 4
REMARK VINA RESULT:      -5.2      2.816      4.372
REMARK  Name = 
REMARK  1 active torsions:
REMARK  status: ('A' for Active; 'I' for Inactive)
REMARK    1  A    between atoms: S_1  and  C_2
REMARK                            x       y       z     vdW  Elec       q    Type
REMARK                         _______ _______ _______ _____ _____    ______ ____
ROOT
ATOM      1  C   UNL     1       2.009   3.116  19.936  0.00  0.00    +0.000 A 
ATOM      2  C   UNL     1       2.133   2.070  19.005  0.00  0.00    +0.000 A 
ATOM      3  C   UNL     1       2.463   2.341  17.683  0.00  0.00    +0.000 A 
ATOM      4  C   UNL     1       2.670   3.657  17.284  0.00  0.00    +0.000 A 
ATOM      5  C   UNL     1       2.536   4.710  18.203  0.00  0.00    +0.000 A 
ATOM      6  C   UNL     1       2.724   6.038  17.792  0.00  0.00    +0.000 A 
ATOM      7  C   UNL     1       2.576   7.076  18.701  0.00  0.00    +0.000 A 
ATOM      8  C   UNL     1       2.253   6.749  20.000  0.00  0.00    +0.000 A 
ATOM      9  N   UNL     1       2.073   5.483  20.432  0.00  0.00    +0.000 NA
ATOM     10  C   UNL     1       2.202   4.459  19.555  0.00  0.00    +0.000 A 
ENDROOT
BRANCH   1  11
ATOM     11  S   UNL     1       1.596   2.691  21.638  0.00  0.00    +0.000 S 
ATOM     12  H   UNL     1       1.008   3.846  21.973  0.00  0.00    +0.000 HD
ENDBRANCH   1  11
TORSDOF 1
ENDMDL
MODEL 5
REMARK VINA RESULT:      -5.2      2.551      2.913
REMARK  Name = 
REMARK  1 active torsions:
REMARK  status: ('A' for Active; 'I' for Inactive)
REMARK    1  A    between atoms: S_1  and  C_2
REMARK                            x       y       z     vdW  Elec       q    Type
REMARK                         _______ _______ _______ _____ _____    ______ ____
ROOT
ATOM      1  C   UNL     1       6.689   5.234  17.773  0.00  0.00    +0.000 A 
ATOM      2  C   UNL     1       6.917   5.672  16.457  0.00  0.00    +0.000 A 
ATOM      3  C   UNL     1       6.088   5.256  15.424  0.00  0.00    +0.000 A 
ATOM      4  C   UNL     1       5.027   4.400  15.698  0.00  0.00    +0.000 A 
ATOM      5  C   UNL     1       4.798   3.946  17.007  0.00  0.00    +0.000 A 
ATOM      6  C   UNL     1       3.740   3.065  17.278  0.00  0.00    +0.000 A 
ATOM      7  C   UNL     1       3.527   2.608  18.570  0.00  0.00    +0.000 A 
ATOM      8  C   UNL     1       4.377   3.057  19.557  0.00  0.00    +0.000 A 
ATOM      9  N   UNL     1       5.400   3.910  19.335  0.00  0.00    +0.000 NA
ATOM     10  C   UNL     1       5.629   4.356  18.076  0.00  0.00    +0.000 A 
ENDROOT
BRANCH   1  11
ATOM     11  S   UNL     1       7.794   5.827  19.067  0.00  0.00    +0.000 S 
ATOM     12  H   UNL     1       7.204   5.213  20.101  0.00  0.00    +0.000 HD
ENDBRANCH   1  11
TORSDOF 1
ENDMDL
MODEL 6
REMARK VINA RESULT:      -5.2      1.972      3.696
REMARK  Name = 
REMARK  1 active torsions:
REMARK  status: ('A' for Active; 'I' for Inactive)
REMARK    1  A    between atoms: S_1  and  C_2
REMARK                            x       y       z     vdW  Elec       q    Type
REMARK                         _______ _______ _______ _____ _____    ______ ____
ROOT
ATOM      1  C   UNL     1       2.765   2.940  19.173  0.00  0.00    +0.000 A 
ATOM      2  C   UNL     1       1.905   2.654  20.248  0.00  0.00    +0.000 A 
ATOM      3  C   UNL     1       1.250   3.680  20.916  0.00  0.00    +0.000 A 
ATOM      4  C   UNL     1       1.452   4.997  20.518  0.00  0.00    +0.000 A 
ATOM      5  C   UNL     1       2.319   5.295  19.454  0.00  0.00    +0.000 A 
ATOM      6  C   UNL     1       2.536   6.626  19.067  0.00  0.00    +0.000 A 
ATOM      7  C   UNL     1       3.405   6.915  18.025  0.00  0.00    +0.000 A 
ATOM      8  C   UNL     1       4.024   5.859  17.394  0.00  0.00    +0.000 A 
ATOM      9  N   UNL     1       3.832   4.566  17.733  0.00  0.00    +0.000 NA
ATOM     10  C   UNL     1       2.996   4.267  18.756  0.00  0.00    +0.000 A 
ENDROOT
BRANCH   1  11
ATOM     11  S   UNL     1       3.568   1.560  18.339  0.00  0.00    +0.000 S 
ATOM     12  H   UNL     1       4.536   1.345  19.238  0.00  0.00    +0.000 HD
ENDBRANCH   1  11
TORSDOF 1
ENDMDL
MODEL 7
REMARK VINA RESULT:      -5.1      1.475      1.614
REMARK  Name = 
REMARK  1 active torsions:
REMARK  status: ('A' for Active; 'I' for Inactive)
REMARK    1  A    between atoms: S_1  and  C_2
REMARK                            x       y       z     vdW  Elec       q    Type
REMARK                         _______ _______ _______ _____ _____    ______ ____
ROOT
ATOM      1  C   UNL     1       3.739   4.949  17.801  0.00  0.00    +0.000 A 
ATOM      2  C   UNL     1       3.776   6.349  17.686  0.00  0.00    +0.000 A 
ATOM      3  C   UNL     1       3.004   7.144  18.524  0.00  0.00    +0.000 A 
ATOM      4  C   UNL     1       2.191   6.545  19.479  0.00  0.00    +0.000 A 
ATOM      5  C   UNL     1       2.137   5.147  19.594  0.00  0.00    +0.000 A 
ATOM      6  C   UNL     1       1.299   4.545  20.545  0.00  0.00    +0.000 A 
ATOM      7  C   UNL     1       1.238   3.163  20.644  0.00  0.00    +0.000 A 
ATOM      8  C   UNL     1       2.029   2.423  19.792  0.00  0.00    +0.000 A 
ATOM      9  N   UNL     1       2.852   2.968  18.871  0.00  0.00    +0.000 NA
ATOM     10  C   UNL     1       2.914   4.316  18.753  0.00  0.00    +0.000 A 
ENDROOT
BRANCH   1  11
ATOM     11  S   UNL     1       4.779   3.980  16.694  0.00  0.00    +0.000 S 
ATOM     12  H   UNL     1       5.024   4.938  15.792  0.00  0.00    +0.000 HD
ENDBRANCH   1  11
TORSDOF 1
ENDMDL
MODEL 8
REMARK VINA RESULT:      -5.1      2.865      4.572
REMARK  Name = 
REMARK  1 active torsions:
REMARK  status: ('A' for Active; 'I' for Inactive)
REMARK    1  A    between atoms: S_1  and  C_2
REMARK                            x       y       z     vdW  Elec       q    Type
REMARK                         _______ _______ _______ _____ _____    ______ ____
ROOT
ATOM      1  C   UNL     1       4.812   3.837  18.281  0.00  0.00    +0.000 A 
ATOM      2  C   UNL     1       4.122   3.697  17.065  0.00  0.00    +0.000 A 
ATOM      3  C   UNL     1       4.493   4.446  15.956  0.00  0.00    +0.000 A 
ATOM      4  C   UNL     1       5.553   5.340  16.056  0.00  0.00    +0.000 A 
ATOM      5  C   UNL     1       6.241   5.497  17.270  0.00  0.00    +0.000 A 
ATOM      6  C   UNL     1       7.297   6.415  17.374  0.00  0.00    +0.000 A 
ATOM      7  C   UNL     1       7.963   6.578  18.580  0.00  0.00    +0.000 A 
ATOM      8  C   UNL     1       7.556   5.805  19.646  0.00  0.00    +0.000 A 
ATOM      9  N   UNL     1       6.551   4.906  19.581  0.00  0.00    +0.000 NA
ATOM     10  C   UNL     1       5.882   4.745  18.413  0.00  0.00    +0.000 A 
ENDROOT
BRANCH   1  11
ATOM     11  S   UNL     1       4.289   2.821  19.675  0.00  0.00    +0.000 S 
ATOM     12  H   UNL     1       5.455   2.201  19.893  0.00  0.00    +0.000 HD
ENDBRANCH   1  11
TORSDOF 1
ENDMDL
MODEL 9
REMARK VINA RESULT:      -5.1      2.711      4.157
REMARK  Name = 
REMARK  1 active torsions:
REMARK  status: ('A' for Active; 'I' for Inactive)
REMARK    1  A    between atoms: S_1  and  C_2
REMARK                            x       y       z     vdW  Elec       q    Type
REMARK                         _______ _______ _______ _____ _____    ______ ____
ROOT
ATOM      1  C   UNL     1       6.301   5.047  18.267  0.00  0.00    +0.000 A 
ATOM      2  C   UNL     1       5.181   4.708  19.046  0.00  0.00    +0.000 A 
ATOM      3  C   UNL     1       4.067   4.124  18.458  0.00  0.00    +0.000 A 
ATOM      4  C   UNL     1       4.064   3.877  17.090  0.00  0.00    +0.000 A 
ATOM      5  C   UNL     1       5.172   4.223  16.301  0.00  0.00    +0.000 A 
ATOM      6  C   UNL     1       5.159   3.991  14.917  0.00  0.00    +0.000 A 
ATOM      7  C   UNL     1       6.250   4.349  14.140  0.00  0.00    +0.000 A 
ATOM      8  C   UNL     1       7.331   4.921  14.776  0.00  0.00    +0.000 A 
ATOM      9  N   UNL     1       7.383   5.151  16.105  0.00  0.00    +0.000 NA
ATOM     10  C   UNL     1       6.319   4.818  16.877  0.00  0.00    +0.000 A 
ENDROOT
BRANCH   1  11
ATOM     11  S   UNL     1       7.719   5.786  19.098  0.00  0.00    +0.000 S 
ATOM     12  H   UNL     1       8.250   4.657  19.585  0.00  0.00    +0.000 HD
ENDBRANCH   1  11
TORSDOF 1
ENDMDL
