MODEL 1
REMARK VINA RESULT:      -6.1      0.000      0.000
REMARK  Name = 
REMARK  6 active torsions:
REMARK  status: ('A' for Active; 'I' for Inactive)
REMARK    1  A    between atoms: C_1  and  C_2
REMARK    2  A    between atoms: C_2  and  C_3
REMARK    3  A    between atoms: C_6  and  O_7
REMARK    4  A    between atoms: O_7  and  C_8
REMARK    5  A    between atoms: C_8  and  C_9
REMARK    6  A    between atoms: C_9  and  N_10
REMARK                            x       y       z     vdW  Elec       q    Type
REMARK                         _______ _______ _______ _____ _____    ______ ____
ROOT
ATOM      1  C   UNL     1       2.040   4.004  19.619  0.00  0.00    +0.000 A 
ATOM      2  C   UNL     1       3.285   4.612  19.780  0.00  0.00    +0.000 A 
ATOM      3  C   UNL     1       4.102   4.858  18.677  0.00  0.00    +0.000 A 
ATOM      4  C   UNL     1       3.691   4.503  17.390  0.00  0.00    +0.000 A 
ATOM      5  C   UNL     1       2.448   3.888  17.223  0.00  0.00    +0.000 A 
ATOM      6  C   UNL     1       1.624   3.641  18.329  0.00  0.00    +0.000 A 
ENDROOT
BRANCH   1   8
ATOM      7  C   UNL     1       1.641   2.660  21.683  0.00  0.00    +0.000 C 
ATOM      8  C   UNL     1       1.152   3.814  20.820  0.00  0.00    +0.000 C 
ENDBRANCH   1   8
BRANCH   4   9
ATOM      9  O   UNL     1       4.426   4.722  16.246  0.00  0.00    +0.000 OA
BRANCH   9  10
ATOM     10  C   UNL     1       5.536   3.833  16.087  0.00  0.00    +0.000 C 
BRANCH  10  11
ATOM     11  C   UNL     1       6.826   4.583  15.792  0.00  0.00    +0.000 C 
BRANCH  11  12
ATOM     12  N   UNL     1       7.312   5.229  16.998  0.00  0.00    +0.000 N 
ATOM     13  C   UNL     1       7.324   6.572  17.251  0.00  0.00    +0.000 A 
ATOM     14  C   UNL     1       7.783   6.687  18.542  0.00  0.00    +0.000 A 
ATOM     15  N   UNL     1       8.039   5.451  19.077  0.00  0.00    +0.000 NA
ATOM     16  C   UNL     1       7.744   4.592  18.125  0.00  0.00    +0.000 A 
ENDBRANCH  11  12
ENDBRANCH  10  11
ENDBRANCH   9  10
ENDBRANCH   4   9
TORSDOF 5
ENDMDL
MODEL 2
REMARK VINA RESULT:      -5.8      1.607      2.348
REMARK  Name = 
REMARK  6 active torsions:
REMARK  status: ('A' for Active; 'I' for Inactive)
REMARK    1  A    between atoms: C_1  and  C_2
REMARK    2  A    between atoms: C_2  and  C_3
REMARK    3  A    between atoms: C_6  and  O_7
REMARK    4  A    between atoms: O_7  and  C_8
REMARK    5  A    between atoms: C_8  and  C_9
REMARK    6  A    between atoms: C_9  and  N_10
REMARK                            x       y       z     vdW  Elec       q    Type
REMARK                         _______ _______ _______ _____ _____    ______ ____
ROOT
ATOM      1  C   UNL     1       1.514   3.990  19.868  0.00  0.00    +0.000 A 
ATOM      2  C   UNL     1       1.388   3.979  18.479  0.00  0.00    +0.000 A 
ATOM      3  C   UNL     1       1.871   5.040  17.715  0.00  0.00    +0.000 A 
ATOM      4  C   UNL     1       2.490   6.135  18.323  0.00  0.00    +0.000 A 
ATOM      5  C   UNL     1       2.613   6.156  19.715  0.00  0.00    +0.000 A 
ATOM      6  C   UNL     1       2.131   5.089  20.485  0.00  0.00    +0.000 A 
ENDROOT
BRANCH   1   8
ATOM      7  C   UNL     1       1.941   2.555  21.865  0.00  0.00    +0.000 C 
ATOM      8  C   UNL     1       1.044   2.798  20.660  0.00  0.00    +0.000 C 
ENDBRANCH   1   8
BRANCH   4   9
ATOM      9  O   UNL     1       3.007   7.217  17.646  0.00  0.00    +0.000 OA
BRANCH   9  10
ATOM     10  C   UNL     1       4.426   7.169  17.465  0.00  0.00    +0.000 C 
BRANCH  10  11
ATOM     11  C   UNL     1       4.834   6.102  16.461  0.00  0.00    +0.000 C 
BRANCH  11  12
ATOM     12  N   UNL     1       6.090   5.494  16.864  0.00  0.00    +0.000 N 
ATOM     13  C   UNL     1       6.571   5.395  18.140  0.00  0.00    +0.000 A 
ATOM     14  C   UNL     1       7.731   4.667  18.027  0.00  0.00    +0.000 A 
ATOM     15  N   UNL     1       7.959   4.317  16.721  0.00  0.00    +0.000 NA
ATOM     16  C   UNL     1       6.953   4.827  16.044  0.00  0.00    +0.000 A 
ENDBRANCH  11  12
ENDBRANCH  10  11
ENDBRANCH   9  10
ENDBRANCH   4   9
TORSDOF 5
ENDMDL
MODEL 3
REMARK VINA RESULT:      -5.8      2.668      5.498
REMARK  Name = 
REMARK  6 active torsions:
REMARK  status: ('A' for Active; 'I' for Inactive)
REMARK    1  A    between atoms: C_1  and  C_2
REMARK    2  A    between atoms: C_2  and  C_3
REMARK    3  A    between atoms: C_6  and  O_7
REMARK    4  A    between atoms: O_7  and  C_8
REMARK    5  A    between atoms: C_8  and  C_9
REMARK    6  A    between atoms: C_9  and  N_10
REMARK                            x       y       z     vdW  Elec       q    Type
REMARK                         _______ _______ _______ _____ _____    ______ ____
ROOT
ATOM      1  C   UNL     1       6.285   5.911  17.424  0.00  0.00    +0.000 A 
ATOM      2  C   UNL     1       5.979   5.340  18.659  0.00  0.00    +0.000 A 
ATOM      3  C   UNL     1       5.150   4.222  18.736  0.00  0.00    +0.000 A 
ATOM      4  C   UNL     1       4.610   3.651  17.581  0.00  0.00    +0.000 A 
ATOM      5  C   UNL     1       4.907   4.223  16.342  0.00  0.00    +0.000 A 
ATOM      6  C   UNL     1       5.742   5.345  16.261  0.00  0.00    +0.000 A 
ENDROOT
BRANCH   1   8
ATOM      7  C   UNL     1       8.161   7.087  18.577  0.00  0.00    +0.000 C 
ATOM      8  C   UNL     1       7.238   7.076  17.368  0.00  0.00    +0.000 C 
ENDBRANCH   1   8
BRANCH   4   9
ATOM      9  O   UNL     1       3.795   2.541  17.565  0.00  0.00    +0.000 OA
BRANCH   9  10
ATOM     10  C   UNL     1       2.403   2.840  17.423  0.00  0.00    +0.000 C 
BRANCH  10  11
ATOM     11  C   UNL     1       1.580   2.266  18.566  0.00  0.00    +0.000 C 
BRANCH  11  12
ATOM     12  N   UNL     1       1.834   3.012  19.786  0.00  0.00    +0.000 N 
ATOM     13  C   UNL     1       1.838   4.373  19.919  0.00  0.00    +0.000 A 
ATOM     14  C   UNL     1       2.031   4.598  21.261  0.00  0.00    +0.000 A 
ATOM     15  N   UNL     1       2.135   3.411  21.941  0.00  0.00    +0.000 NA
ATOM     16  C   UNL     1       2.011   2.475  21.028  0.00  0.00    +0.000 A 
ENDBRANCH  11  12
ENDBRANCH  10  11
ENDBRANCH   9  10
ENDBRANCH   4   9
TORSDOF 5
ENDMDL
MODEL 4
REMARK VINA RESULT:      -5.7      0.968      1.246
REMARK  Name = 
REMARK  6 active torsions:
REMARK  status: ('A' for Active; 'I' for Inactive)
REMARK    1  A    between atoms: C_1  and  C_2
REMARK    2  A    between atoms: C_2  and  C_3
REMARK    3  A    between atoms: C_6  and  O_7
REMARK    4  A    between atoms: O_7  and  C_8
REMARK    5  A    between atoms: C_8  and  C_9
REMARK    6  A    between atoms: C_9  and  N_10
REMARK                            x       y       z     vdW  Elec       q    Type
REMARK                         _______ _______ _______ _____ _____    ______ ____
ROOT
ATOM      1  C   UNL     1       2.774   3.950  19.989  0.00  0.00    +0.000 A 
ATOM      2  C   UNL     1       3.119   5.194  19.460  0.00  0.00    +0.000 A 
ATOM      3  C   UNL     1       3.652   5.295  18.176  0.00  0.00    +0.000 A 
ATOM      4  C   UNL     1       3.852   4.156  17.394  0.00  0.00    +0.000 A 
ATOM      5  C   UNL     1       3.516   2.906  17.920  0.00  0.00    +0.000 A 
ATOM      6  C   UNL     1       2.977   2.801  19.210  0.00  0.00    +0.000 A 
ENDROOT
BRANCH   1   8
ATOM      7  C   UNL     1       1.405   2.561  21.546  0.00  0.00    +0.000 C 
ATOM      8  C   UNL     1       2.137   3.880  21.352  0.00  0.00    +0.000 C 
ENDBRANCH   1   8
BRANCH   4   9
ATOM      9  O   UNL     1       4.359   4.165  16.113  0.00  0.00    +0.000 OA
BRANCH   9  10
ATOM     10  C   UNL     1       5.779   4.003  16.046  0.00  0.00    +0.000 C 
BRANCH  10  11
ATOM     11  C   UNL     1       6.492   5.327  15.814  0.00  0.00    +0.000 C 
BRANCH  11  12
ATOM     12  N   UNL     1       7.069   5.806  17.057  0.00  0.00    +0.000 N 
ATOM     13  C   UNL     1       7.333   5.058  18.171  0.00  0.00    +0.000 A 
ATOM     14  C   UNL     1       7.954   5.923  19.041  0.00  0.00    +0.000 A 
ATOM     15  N   UNL     1       8.079   7.168  18.480  0.00  0.00    +0.000 NA
ATOM     16  C   UNL     1       7.539   7.066  17.285  0.00  0.00    +0.000 A 
ENDBRANCH  11  12
ENDBRANCH  10  11
ENDBRANCH   9  10
ENDBRANCH   4   9
TORSDOF 5
ENDMDL
MODEL 5
REMARK VINA RESULT:      -5.7      2.885      6.013
REMARK  Name = 
REMARK  6 active torsions:
REMARK  status: ('A' for Active; 'I' for Inactive)
REMARK    1  A    between atoms: C_1  and  C_2
REMARK    2  A    between atoms: C_2  and  C_3
REMARK    3  A    between atoms: C_6  and  O_7
REMARK    4  A    between atoms: O_7  and  C_8
REMARK    5  A    between atoms: C_8  and  C_9
REMARK    6  A    between atoms: C_9  and  N_10
REMARK                            x       y       z     vdW  Elec       q    Type
REMARK                         _______ _______ _______ _____ _____    ______ ____
ROOT
ATOM      1  C   UNL     1       5.946   4.707  15.041  0.00  0.00    +0.000 A 
ATOM      2  C   UNL     1       5.526   6.025  15.218  0.00  0.00    +0.000 A 
ATOM      3  C   UNL     1       4.876   6.409  16.390  0.00  0.00    +0.000 A 
ATOM      4  C   UNL     1       4.632   5.485  17.408  0.00  0.00    +0.000 A 
ATOM      5  C   UNL     1       5.044   4.162  17.234  0.00  0.00    +0.000 A 
ATOM      6  C   UNL     1       5.700   3.772  16.059  0.00  0.00    +0.000 A 
ENDROOT
BRANCH   1   8
ATOM      7  C   UNL     1       5.832   3.542  12.836  0.00  0.00    +0.000 C 
ATOM      8  C   UNL     1       6.707   4.337  13.794  0.00  0.00    +0.000 C 
ENDBRANCH   1   8
BRANCH   4   9
ATOM      9  O   UNL     1       4.010   5.782  18.601  0.00  0.00    +0.000 OA
BRANCH   9  10
ATOM     10  C   UNL     1       2.664   6.247  18.458  0.00  0.00    +0.000 C 
BRANCH  10  11
ATOM     11  C   UNL     1       1.714   5.125  18.067  0.00  0.00    +0.000 C 
BRANCH  11  12
ATOM     12  N   UNL     1       1.670   4.123  19.117  0.00  0.00    +0.000 N 
ATOM     13  C   UNL     1       1.265   4.317  20.408  0.00  0.00    +0.000 A 
ATOM     14  C   UNL     1       1.310   3.070  20.986  0.00  0.00    +0.000 A 
ATOM     15  N   UNL     1       1.722   2.130  20.078  0.00  0.00    +0.000 NA
ATOM     16  C   UNL     1       1.929   2.792  18.961  0.00  0.00    +0.000 A 
ENDBRANCH  11  12
ENDBRANCH  10  11
ENDBRANCH   9  10
ENDBRANCH   4   9
TORSDOF 5
ENDMDL
MODEL 6
REMARK VINA RESULT:      -5.7      2.838      5.931
REMARK  Name = 
REMARK  6 active torsions:
REMARK  status: ('A' for Active; 'I' for Inactive)
REMARK    1  A    between atoms: C_1  and  C_2
REMARK    2  A    between atoms: C_2  and  C_3
REMARK    3  A    between atoms: C_6  and  O_7
REMARK    4  A    between atoms: O_7  and  C_8
REMARK    5  A    between atoms: C_8  and  C_9
REMARK    6  A    between atoms: C_9  and  N_10
REMARK                            x       y       z     vdW  Elec       q    Type
REMARK                         _______ _______ _______ _____ _____    ______ ____
ROOT
ATOM      1  C   UNL     1       6.095   4.955  15.333  0.00  0.00    +0.000 A 
ATOM      2  C   UNL     1       5.352   6.132  15.426  0.00  0.00    +0.000 A 
ATOM      3  C   UNL     1       4.699   6.465  16.612  0.00  0.00    +0.000 A 
ATOM      4  C   UNL     1       4.775   5.629  17.729  0.00  0.00    +0.000 A 
ATOM      5  C   UNL     1       5.511   4.446  17.639  0.00  0.00    +0.000 A 
ATOM      6  C   UNL     1       6.172   4.109  16.450  0.00  0.00    +0.000 A 
ENDROOT
BRANCH   1   8
ATOM      7  C   UNL     1       6.076   3.675  13.190  0.00  0.00    +0.000 C 
ATOM      8  C   UNL     1       6.845   4.657  14.061  0.00  0.00    +0.000 C 
ENDBRANCH   1   8
BRANCH   4   9
ATOM      9  O   UNL     1       4.174   5.888  18.941  0.00  0.00    +0.000 OA
BRANCH   9  10
ATOM     10  C   UNL     1       2.756   6.065  18.864  0.00  0.00    +0.000 C 
BRANCH  10  11
ATOM     11  C   UNL     1       2.028   4.743  18.669  0.00  0.00    +0.000 C 
BRANCH  11  12
ATOM     12  N   UNL     1       2.138   3.934  19.870  0.00  0.00    +0.000 N 
ATOM     13  C   UNL     1       2.541   2.629  19.936  0.00  0.00    +0.000 A 
ATOM     14  C   UNL     1       2.573   2.334  21.278  0.00  0.00    +0.000 A 
ATOM     15  N   UNL     1       2.209   3.427  22.023  0.00  0.00    +0.000 NA
ATOM     16  C   UNL     1       1.955   4.375  21.149  0.00  0.00    +0.000 A 
ENDBRANCH  11  12
ENDBRANCH  10  11
ENDBRANCH   9  10
ENDBRANCH   4   9
TORSDOF 5
ENDMDL
MODEL 7
REMARK VINA RESULT:      -5.7      2.896      6.082
REMARK  Name = 
REMARK  6 active torsions:
REMARK  status: ('A' for Active; 'I' for Inactive)
REMARK    1  A    between atoms: C_1  and  C_2
REMARK    2  A    between atoms: C_2  and  C_3
REMARK    3  A    between atoms: C_6  and  O_7
REMARK    4  A    between atoms: O_7  and  C_8
REMARK    5  A    between atoms: C_8  and  C_9
REMARK    6  A    between atoms: C_9  and  N_10
REMARK                            x       y       z     vdW  Elec       q    Type
REMARK                         _______ _______ _______ _____ _____    ______ ____
ROOT
ATOM      1  C   UNL     1       6.164   4.606  16.007  0.00  0.00    +0.000 A 
ATOM      2  C   UNL     1       4.810   4.298  16.139  0.00  0.00    +0.000 A 
ATOM      3  C   UNL     1       4.126   4.604  17.314  0.00  0.00    +0.000 A 
ATOM      4  C   UNL     1       4.779   5.225  18.381  0.00  0.00    +0.000 A 
ATOM      5  C   UNL     1       6.137   5.530  18.258  0.00  0.00    +0.000 A 
ATOM      6  C   UNL     1       6.828   5.226  17.077  0.00  0.00    +0.000 A 
ENDROOT
BRANCH   1   8
ATOM      7  C   UNL     1       5.866   3.886  13.636  0.00  0.00    +0.000 C 
ATOM      8  C   UNL     1       6.859   4.325  14.701  0.00  0.00    +0.000 C 
ENDBRANCH   1   8
BRANCH   4   9
ATOM      9  O   UNL     1       4.178   5.575  19.570  0.00  0.00    +0.000 OA
BRANCH   9  10
ATOM     10  C   UNL     1       2.926   6.251  19.413  0.00  0.00    +0.000 C 
BRANCH  10  11
ATOM     11  C   UNL     1       1.948   5.899  20.525  0.00  0.00    +0.000 C 
BRANCH  11  12
ATOM     12  N   UNL     1       1.741   4.462  20.568  0.00  0.00    +0.000 N 
ATOM     13  C   UNL     1       1.298   3.675  19.542  0.00  0.00    +0.000 A 
ATOM     14  C   UNL     1       1.355   2.390  20.029  0.00  0.00    +0.000 A 
ATOM     15  N   UNL     1       1.827   2.381  21.317  0.00  0.00    +0.000 NA
ATOM     16  C   UNL     1       2.052   3.642  21.613  0.00  0.00    +0.000 A 
ENDBRANCH  11  12
ENDBRANCH  10  11
ENDBRANCH   9  10
ENDBRANCH   4   9
TORSDOF 5
ENDMDL
MODEL 8
REMARK VINA RESULT:      -5.7      2.856      5.971
REMARK  Name = 
REMARK  6 active torsions:
REMARK  status: ('A' for Active; 'I' for Inactive)
REMARK    1  A    between atoms: C_1  and  C_2
REMARK    2  A    between atoms: C_2  and  C_3
REMARK    3  A    between atoms: C_6  and  O_7
REMARK    4  A    between atoms: O_7  and  C_8
REMARK    5  A    between atoms: C_8  and  C_9
REMARK    6  A    between atoms: C_9  and  N_10
REMARK                            x       y       z     vdW  Elec       q    Type
REMARK                         _______ _______ _______ _____ _____    ______ ____
ROOT
ATOM      1  C   UNL     1       5.892   3.549  12.665  0.00  0.00    +0.000 A 
ATOM      2  C   UNL     1       7.061   4.281  12.459  0.00  0.00    +0.000 A 
ATOM      3  C   UNL     1       7.627   5.018  13.498  0.00  0.00    +0.000 A 
ATOM      4  C   UNL     1       7.037   5.039  14.764  0.00  0.00    +0.000 A 
ATOM      5  C   UNL     1       5.862   4.314  14.974  0.00  0.00    +0.000 A 
ATOM      6  C   UNL     1       5.292   3.570  13.933  0.00  0.00    +0.000 A 
ENDROOT
BRANCH   1   8
ATOM      7  C   UNL     1       3.961   3.188  11.125  0.00  0.00    +0.000 C 
ATOM      8  C   UNL     1       5.343   2.708  11.543  0.00  0.00    +0.000 C 
ENDBRANCH   1   8
BRANCH   4   9
ATOM      9  O   UNL     1       7.536   5.728  15.847  0.00  0.00    +0.000 OA
BRANCH   9  10
ATOM     10  C   UNL     1       6.535   6.378  16.637  0.00  0.00    +0.000 C 
BRANCH  10  11
ATOM     11  C   UNL     1       6.571   5.922  18.088  0.00  0.00    +0.000 C 
BRANCH  11  12
ATOM     12  N   UNL     1       5.291   5.346  18.460  0.00  0.00    +0.000 N 
ATOM     13  C   UNL     1       5.094   4.177  19.142  0.00  0.00    +0.000 A 
ATOM     14  C   UNL     1       3.735   4.104  19.336  0.00  0.00    +0.000 A 
ATOM     15  N   UNL     1       3.109   5.199  18.798  0.00  0.00    +0.000 NA
ATOM     16  C   UNL     1       4.071   5.930  18.279  0.00  0.00    +0.000 A 
ENDBRANCH  11  12
ENDBRANCH  10  11
ENDBRANCH   9  10
ENDBRANCH   4   9
TORSDOF 5
ENDMDL
MODEL 9
REMARK VINA RESULT:      -5.7      2.651      5.975
REMARK  Name = 
REMARK  6 active torsions:
REMARK  status: ('A' for Active; 'I' for Inactive)
REMARK    1  A    between atoms: C_1  and  C_2
REMARK    2  A    between atoms: C_2  and  C_3
REMARK    3  A    between atoms: C_6  and  O_7
REMARK    4  A    between atoms: O_7  and  C_8
REMARK    5  A    between atoms: C_8  and  C_9
REMARK    6  A    between atoms: C_9  and  N_10
REMARK                            x       y       z     vdW  Elec       q    Type
REMARK                         _______ _______ _______ _____ _____    ______ ____
ROOT
ATOM      1  C   UNL     1       6.351   4.521  14.583  0.00  0.00    +0.000 A 
ATOM      2  C   UNL     1       5.349   5.458  14.836  0.00  0.00    +0.000 A 
ATOM      3  C   UNL     1       5.174   5.979  16.117  0.00  0.00    +0.000 A 
ATOM      4  C   UNL     1       5.996   5.575  17.172  0.00  0.00    +0.000 A 
ATOM      5  C   UNL     1       6.997   4.632  16.926  0.00  0.00    +0.000 A 
ATOM      6  C   UNL     1       7.178   4.108  15.639  0.00  0.00    +0.000 A 
ENDROOT
BRANCH   1   8
ATOM      7  C   UNL     1       5.264   3.491  12.586  0.00  0.00    +0.000 C 
ATOM      8  C   UNL     1       6.560   4.029  13.175  0.00  0.00    +0.000 C 
ENDBRANCH   1   8
BRANCH   4   9
ATOM      9  O   UNL     1       5.902   6.048  18.462  0.00  0.00    +0.000 OA
BRANCH   9  10
ATOM     10  C   UNL     1       5.207   5.172  19.355  0.00  0.00    +0.000 C 
BRANCH  10  11
ATOM     11  C   UNL     1       3.736   5.541  19.481  0.00  0.00    +0.000 C 
BRANCH  11  12
ATOM     12  N   UNL     1       2.914   4.536  18.831  0.00  0.00    +0.000 N 
ATOM     13  C   UNL     1       2.911   3.195  19.095  0.00  0.00    +0.000 A 
ATOM     14  C   UNL     1       1.913   2.678  18.304  0.00  0.00    +0.000 A 
ATOM     15  N   UNL     1       1.308   3.672  17.577  0.00  0.00    +0.000 NA
ATOM     16  C   UNL     1       1.930   4.779  17.917  0.00  0.00    +0.000 A 
ENDBRANCH  11  12
ENDBRANCH  10  11
ENDBRANCH   9  10
ENDBRANCH   4   9
TORSDOF 5
ENDMDL
