MODEL 1
REMARK VINA RESULT:      -7.5      0.000      0.000
REMARK  Name = 
REMARK  10 active torsions:
REMARK  status: ('A' for Active; 'I' for Inactive)
REMARK    1  A    between atoms: C_1  and  C_2
REMARK    2  A    between atoms: C_2  and  S_3
REMARK    3  A    between atoms: S_3  and  N_6
REMARK    4  A    between atoms: N_6  and  C_7
REMARK    5  A    between atoms: C_10  and  O_11
REMARK    6  A    between atoms: O_11  and  C_12
REMARK    7  A    between atoms: C_20  and  C_21
REMARK    8  A    between atoms: N_23  and  C_24
REMARK    9  A    between atoms: CA_29  and  C_30
REMARK   10  A    between atoms: C_30  and  O_31
REMARK                            x       y       z     vdW  Elec       q    Type
REMARK                         _______ _______ _______ _____ _____    ______ ____
ROOT
ATOM      1  C   UNL     1       2.308   8.706  17.790  0.00  0.00    +0.000 A 
ATOM      2  C   UNL     1       1.183   7.895  17.859  0.00  0.00    +0.000 A 
ATOM      3  C   UNL     1       1.333   6.506  17.854  0.00  0.00    +0.000 A 
ATOM      4  C   UNL     1       2.608   5.910  17.854  0.00  0.00    +0.000 A 
ATOM      5  C   UNL     1       3.745   6.731  17.702  0.00  0.00    +0.000 A 
ATOM      6  C   UNL     1       3.571   8.135  17.676  0.00  0.00    +0.000 A 
ENDROOT
BRANCH   5   7
ATOM      7  C   UNL     1       5.160   6.290  17.554  0.00  0.00    +0.000 A 
ATOM      8  C   UNL     1       5.880   6.172  18.699  0.00  0.00    +0.000 A 
ATOM      9  N   UNL     1       7.099   5.481  18.767  0.00  0.00    +0.000 N 
ATOM     10  C   UNL     1       7.751   5.294  20.051  0.00  0.00    +0.000 C 
ATOM     11  C   UNL     1       7.649   4.800  17.662  0.00  0.00    +0.000 A 
ATOM     12  O   UNL     1       8.688   4.142  17.706  0.00  0.00    +0.000 OA
ATOM     13  C   UNL     1       6.838   4.903  16.472  0.00  0.00    +0.000 A 
ATOM     14  N   UNL     1       6.999   4.235  15.285  0.00  0.00    +0.000 N 
ATOM     15  CA  UNL     1       5.910   4.482  14.472  0.00  0.00    +0.000 A 
ATOM     16  C   UNL     1       5.126   5.440  15.100  0.00  0.00    +0.000 A 
ATOM     17  C   UNL     1       5.671   5.632  16.381  0.00  0.00    +0.000 A 
ATOM     18  H   UNL     1       7.736   3.566  15.084  0.00  0.00    +0.000 HD
BRANCH  15  19
ATOM     19  C   UNL     1       5.649   3.712  13.233  0.00  0.00    +0.000 C 
BRANCH  19  20
ATOM     20  O   UNL     1       6.791   3.814  12.400  0.00  0.00    +0.000 OA
ATOM     21  H   UNL     1       7.419   3.143  12.719  0.00  0.00    +0.000 HD
ENDBRANCH  19  20
ENDBRANCH  15  19
ENDBRANCH   5   7
BRANCH   1  22
ATOM     22  N   UNL     1       2.184  10.121  17.800  0.00  0.00    +0.000 N 
ATOM     23  H   UNL     1       3.056  10.631  17.968  0.00  0.00    +0.000 HD
BRANCH  22  24
ATOM     24  S   UNL     1       0.962  10.799  18.756  0.00  0.00    +0.000 S 
ATOM     25  O   UNL     1       1.256  10.361  20.101  0.00  0.00    +0.000 OA
ATOM     26  O   UNL     1      -0.330  10.555  18.149  0.00  0.00    +0.000 OA
BRANCH  24  28
ATOM     27  C   UNL     1       2.755  12.751  18.092  0.00  0.00    +0.000 C 
ATOM     28  C   UNL     1       1.356  12.539  18.635  0.00  0.00    +0.000 C 
ENDBRANCH  24  28
ENDBRANCH  22  24
ENDBRANCH   1  22
BRANCH   4  29
ATOM     29  O   UNL     1       2.751   4.539  17.964  0.00  0.00    +0.000 OA
BRANCH  29  30
ATOM     30  C   UNL     1       2.294   3.888  19.104  0.00  0.00    +0.000 A 
ATOM     31  C   UNL     1       2.941   4.206  20.309  0.00  0.00    +0.000 A 
ATOM     32  C   UNL     1       2.494   3.653  21.518  0.00  0.00    +0.000 A 
ATOM     33  C   UNL     1       1.417   2.776  21.524  0.00  0.00    +0.000 A 
ATOM     34  F   UNL     1       0.974   2.276  22.685  0.00  0.00    +0.000 F 
ATOM     35  C   UNL     1       0.780   2.427  20.343  0.00  0.00    +0.000 A 
ATOM     36  C   UNL     1       1.204   3.002  19.146  0.00  0.00    +0.000 A 
ATOM     37  F   UNL     1       0.535   2.670  18.033  0.00  0.00    +0.000 F 
ENDBRANCH  29  30
ENDBRANCH   4  29
TORSDOF 8
ENDMDL
MODEL 2
REMARK VINA RESULT:      -7.5      0.947      1.153
REMARK  Name = 
REMARK  10 active torsions:
REMARK  status: ('A' for Active; 'I' for Inactive)
REMARK    1  A    between atoms: C_1  and  C_2
REMARK    2  A    between atoms: C_2  and  S_3
REMARK    3  A    between atoms: S_3  and  N_6
REMARK    4  A    between atoms: N_6  and  C_7
REMARK    5  A    between atoms: C_10  and  O_11
REMARK    6  A    between atoms: O_11  and  C_12
REMARK    7  A    between atoms: C_20  and  C_21
REMARK    8  A    between atoms: N_23  and  C_24
REMARK    9  A    between atoms: CA_29  and  C_30
REMARK   10  A    between atoms: C_30  and  O_31
REMARK                            x       y       z     vdW  Elec       q    Type
REMARK                         _______ _______ _______ _____ _____    ______ ____
ROOT
ATOM      1  C   UNL     1       2.326   8.820  17.824  0.00  0.00    +0.000 A 
ATOM      2  C   UNL     1       1.181   8.036  17.851  0.00  0.00    +0.000 A 
ATOM      3  C   UNL     1       1.297   6.645  17.779  0.00  0.00    +0.000 A 
ATOM      4  C   UNL     1       2.556   6.018  17.754  0.00  0.00    +0.000 A 
ATOM      5  C   UNL     1       3.714   6.816  17.646  0.00  0.00    +0.000 A 
ATOM      6  C   UNL     1       3.575   8.224  17.686  0.00  0.00    +0.000 A 
ENDROOT
BRANCH   5   7
ATOM      7  C   UNL     1       5.118   6.348  17.480  0.00  0.00    +0.000 A 
ATOM      8  C   UNL     1       5.851   6.223  18.616  0.00  0.00    +0.000 A 
ATOM      9  N   UNL     1       7.059   5.510  18.671  0.00  0.00    +0.000 N 
ATOM     10  C   UNL     1       7.725   5.319  19.947  0.00  0.00    +0.000 C 
ATOM     11  C   UNL     1       7.580   4.812  17.564  0.00  0.00    +0.000 A 
ATOM     12  O   UNL     1       8.607   4.134  17.598  0.00  0.00    +0.000 OA
ATOM     13  C   UNL     1       6.755   4.922  16.384  0.00  0.00    +0.000 A 
ATOM     14  N   UNL     1       6.886   4.243  15.200  0.00  0.00    +0.000 N 
ATOM     15  CA  UNL     1       5.791   4.506  14.401  0.00  0.00    +0.000 A 
ATOM     16  C   UNL     1       5.034   5.482  15.033  0.00  0.00    +0.000 A 
ATOM     17  C   UNL     1       5.600   5.673  16.305  0.00  0.00    +0.000 A 
ATOM     18  H   UNL     1       7.607   3.559  14.994  0.00  0.00    +0.000 HD
BRANCH  15  19
ATOM     19  C   UNL     1       5.497   3.733  13.170  0.00  0.00    +0.000 C 
BRANCH  19  20
ATOM     20  O   UNL     1       6.652   2.983  12.835  0.00  0.00    +0.000 OA
ATOM     21  H   UNL     1       6.499   2.085  13.174  0.00  0.00    +0.000 HD
ENDBRANCH  19  20
ENDBRANCH  15  19
ENDBRANCH   5   7
BRANCH   1  22
ATOM     22  N   UNL     1       2.238  10.236  17.902  0.00  0.00    +0.000 N 
ATOM     23  H   UNL     1       3.131  10.719  18.031  0.00  0.00    +0.000 HD
BRANCH  22  24
ATOM     24  S   UNL     1       1.099  10.898  18.967  0.00  0.00    +0.000 S 
ATOM     25  O   UNL     1       1.171  10.070  20.149  0.00  0.00    +0.000 OA
ATOM     26  O   UNL     1      -0.154  11.116  18.274  0.00  0.00    +0.000 OA
BRANCH  24  28
ATOM     27  C   UNL     1       1.417  13.542  18.357  0.00  0.00    +0.000 C 
ATOM     28  C   UNL     1       1.854  12.475  19.341  0.00  0.00    +0.000 C 
ENDBRANCH  24  28
ENDBRANCH  22  24
ENDBRANCH   1  22
BRANCH   4  29
ATOM     29  O   UNL     1       2.665   4.640  17.798  0.00  0.00    +0.000 OA
BRANCH  29  30
ATOM     30  C   UNL     1       2.472   3.973  19.002  0.00  0.00    +0.000 A 
ATOM     31  C   UNL     1       1.153   3.911  19.480  0.00  0.00    +0.000 A 
ATOM     32  C   UNL     1       0.856   3.192  20.647  0.00  0.00    +0.000 A 
ATOM     33  C   UNL     1       1.873   2.550  21.343  0.00  0.00    +0.000 A 
ATOM     34  F   UNL     1       1.579   1.837  22.439  0.00  0.00    +0.000 F 
ATOM     35  C   UNL     1       3.186   2.619  20.905  0.00  0.00    +0.000 A 
ATOM     36  C   UNL     1       3.475   3.307  19.727  0.00  0.00    +0.000 A 
ATOM     37  F   UNL     1       4.750   3.314  19.316  0.00  0.00    +0.000 F 
ENDBRANCH  29  30
ENDBRANCH   4  29
TORSDOF 8
ENDMDL
MODEL 3
REMARK VINA RESULT:      -7.3      5.847      9.262
REMARK  Name = 
REMARK  10 active torsions:
REMARK  status: ('A' for Active; 'I' for Inactive)
REMARK    1  A    between atoms: C_1  and  C_2
REMARK    2  A    between atoms: C_2  and  S_3
REMARK    3  A    between atoms: S_3  and  N_6
REMARK    4  A    between atoms: N_6  and  C_7
REMARK    5  A    between atoms: C_10  and  O_11
REMARK    6  A    between atoms: O_11  and  C_12
REMARK    7  A    between atoms: C_20  and  C_21
REMARK    8  A    between atoms: N_23  and  C_24
REMARK    9  A    between atoms: CA_29  and  C_30
REMARK   10  A    between atoms: C_30  and  O_31
REMARK                            x       y       z     vdW  Elec       q    Type
REMARK                         _______ _______ _______ _____ _____    ______ ____
ROOT
ATOM      1  C   UNL     1       0.843  14.416  19.075  0.00  0.00    +0.000 A 
ATOM      2  C   UNL     1       1.885  13.689  19.633  0.00  0.00    +0.000 A 
ATOM      3  C   UNL     1       1.643  12.405  20.127  0.00  0.00    +0.000 A 
ATOM      4  C   UNL     1       0.377  11.803  20.003  0.00  0.00    +0.000 A 
ATOM      5  C   UNL     1      -0.699  12.571  19.510  0.00  0.00    +0.000 A 
ATOM      6  C   UNL     1      -0.441  13.882  19.045  0.00  0.00    +0.000 A 
ENDROOT
BRANCH   5   7
ATOM      7  C   UNL     1      -2.129  12.163  19.420  0.00  0.00    +0.000 A 
ATOM      8  C   UNL     1      -2.995  12.811  20.241  0.00  0.00    +0.000 A 
ATOM      9  N   UNL     1      -4.386  12.776  20.064  0.00  0.00    +0.000 N 
ATOM     10  C   UNL     1      -5.241  13.590  20.909  0.00  0.00    +0.000 C 
ATOM     11  C   UNL     1      -4.998  12.112  18.981  0.00  0.00    +0.000 A 
ATOM     12  O   UNL     1      -6.210  12.110  18.771  0.00  0.00    +0.000 OA
ATOM     13  C   UNL     1      -4.050  11.474  18.099  0.00  0.00    +0.000 A 
ATOM     14  N   UNL     1      -4.295  10.889  16.883  0.00  0.00    +0.000 N 
ATOM     15  CA  UNL     1      -3.095  10.560  16.286  0.00  0.00    +0.000 A 
ATOM     16  C   UNL     1      -2.086  10.805  17.207  0.00  0.00    +0.000 A 
ATOM     17  C   UNL     1      -2.686  11.451  18.301  0.00  0.00    +0.000 A 
ATOM     18  H   UNL     1      -5.205  10.825  16.437  0.00  0.00    +0.000 HD
BRANCH  15  19
ATOM     19  C   UNL     1      -2.996  10.152  14.864  0.00  0.00    +0.000 C 
BRANCH  19  20
ATOM     20  O   UNL     1      -4.310  10.052  14.342  0.00  0.00    +0.000 OA
ATOM     21  H   UNL     1      -4.757  10.883  14.573  0.00  0.00    +0.000 HD
ENDBRANCH  19  20
ENDBRANCH  15  19
ENDBRANCH   5   7
BRANCH   1  22
ATOM     22  N   UNL     1       1.063  15.722  18.559  0.00  0.00    +0.000 N 
ATOM     23  H   UNL     1       1.850  15.804  17.910  0.00  0.00    +0.000 HD
BRANCH  22  24
ATOM     24  S   UNL     1       1.128  17.005  19.663  0.00  0.00    +0.000 S 
ATOM     25  O   UNL     1       0.556  16.477  20.880  0.00  0.00    +0.000 OA
ATOM     26  O   UNL     1       0.610  18.209  19.047  0.00  0.00    +0.000 OA
BRANCH  24  28
ATOM     27  C   UNL     1       3.261  17.117  21.366  0.00  0.00    +0.000 C 
ATOM     28  C   UNL     1       2.893  17.169  19.897  0.00  0.00    +0.000 C 
ENDBRANCH  24  28
ENDBRANCH  22  24
ENDBRANCH   1  22
BRANCH   4  29
ATOM     29  O   UNL     1       0.173  10.491  20.390  0.00  0.00    +0.000 OA
BRANCH  29  30
ATOM     30  C   UNL     1       0.890   9.472  19.775  0.00  0.00    +0.000 A 
ATOM     31  C   UNL     1       1.120   9.611  18.397  0.00  0.00    +0.000 A 
ATOM     32  C   UNL     1       1.900   8.669  17.712  0.00  0.00    +0.000 A 
ATOM     33  C   UNL     1       2.435   7.583  18.394  0.00  0.00    +0.000 A 
ATOM     34  F   UNL     1       3.206   6.703  17.741  0.00  0.00    +0.000 F 
ATOM     35  C   UNL     1       2.200   7.411  19.749  0.00  0.00    +0.000 A 
ATOM     36  C   UNL     1       1.451   8.366  20.436  0.00  0.00    +0.000 A 
ATOM     37  F   UNL     1       1.281   8.184  21.753  0.00  0.00    +0.000 F 
ENDBRANCH  29  30
ENDBRANCH   4  29
TORSDOF 8
ENDMDL
MODEL 4
REMARK VINA RESULT:      -7.3      1.295      1.563
REMARK  Name = 
REMARK  10 active torsions:
REMARK  status: ('A' for Active; 'I' for Inactive)
REMARK    1  A    between atoms: C_1  and  C_2
REMARK    2  A    between atoms: C_2  and  S_3
REMARK    3  A    between atoms: S_3  and  N_6
REMARK    4  A    between atoms: N_6  and  C_7
REMARK    5  A    between atoms: C_10  and  O_11
REMARK    6  A    between atoms: O_11  and  C_12
REMARK    7  A    between atoms: C_20  and  C_21
REMARK    8  A    between atoms: N_23  and  C_24
REMARK    9  A    between atoms: CA_29  and  C_30
REMARK   10  A    between atoms: C_30  and  O_31
REMARK                            x       y       z     vdW  Elec       q    Type
REMARK                         _______ _______ _______ _____ _____    ______ ____
ROOT
ATOM      1  C   UNL     1       2.306   8.706  17.802  0.00  0.00    +0.000 A 
ATOM      2  C   UNL     1       1.172   7.907  17.849  0.00  0.00    +0.000 A 
ATOM      3  C   UNL     1       1.307   6.517  17.813  0.00  0.00    +0.000 A 
ATOM      4  C   UNL     1       2.575   5.907  17.804  0.00  0.00    +0.000 A 
ATOM      5  C   UNL     1       3.722   6.718  17.675  0.00  0.00    +0.000 A 
ATOM      6  C   UNL     1       3.564   8.125  17.680  0.00  0.00    +0.000 A 
ENDROOT
BRANCH   5   7
ATOM      7  C   UNL     1       5.133   6.265  17.521  0.00  0.00    +0.000 A 
ATOM      8  C   UNL     1       5.860   6.156  18.663  0.00  0.00    +0.000 A 
ATOM      9  N   UNL     1       7.075   5.457  18.730  0.00  0.00    +0.000 N 
ATOM     10  C   UNL     1       7.735   5.281  20.011  0.00  0.00    +0.000 C 
ATOM     11  C   UNL     1       7.612   4.759  17.629  0.00  0.00    +0.000 A 
ATOM     12  O   UNL     1       8.646   4.093  17.674  0.00  0.00    +0.000 OA
ATOM     13  C   UNL     1       6.793   4.853  16.444  0.00  0.00    +0.000 A 
ATOM     14  N   UNL     1       6.940   4.169  15.264  0.00  0.00    +0.000 N 
ATOM     15  CA  UNL     1       5.847   4.414  14.457  0.00  0.00    +0.000 A 
ATOM     16  C   UNL     1       5.074   5.386  15.079  0.00  0.00    +0.000 A 
ATOM     17  C   UNL     1       5.630   5.590  16.353  0.00  0.00    +0.000 A 
ATOM     18  H   UNL     1       7.670   3.492  15.067  0.00  0.00    +0.000 HD
BRANCH  15  19
ATOM     19  C   UNL     1       5.570   3.631  13.229  0.00  0.00    +0.000 C 
BRANCH  19  20
ATOM     20  O   UNL     1       6.803   3.141  12.731  0.00  0.00    +0.000 OA
ATOM     21  H   UNL     1       7.064   2.416  13.323  0.00  0.00    +0.000 HD
ENDBRANCH  19  20
ENDBRANCH  15  19
ENDBRANCH   5   7
BRANCH   1  22
ATOM     22  N   UNL     1       2.198  10.122  17.844  0.00  0.00    +0.000 N 
ATOM     23  H   UNL     1       3.083  10.621  17.973  0.00  0.00    +0.000 HD
BRANCH  22  24
ATOM     24  S   UNL     1       1.037  10.795  18.878  0.00  0.00    +0.000 S 
ATOM     25  O   UNL     1       1.171  12.224  18.708  0.00  0.00    +0.000 OA
ATOM     26  O   UNL     1       1.128  10.179  20.186  0.00  0.00    +0.000 OA
BRANCH  24  28
ATOM     27  C   UNL     1      -1.592  11.275  18.309  0.00  0.00    +0.000 C 
ATOM     28  C   UNL     1      -0.476  10.275  18.080  0.00  0.00    +0.000 C 
ENDBRANCH  24  28
ENDBRANCH  22  24
ENDBRANCH   1  22
BRANCH   4  29
ATOM     29  O   UNL     1       2.703   4.533  17.884  0.00  0.00    +0.000 OA
BRANCH  29  30
ATOM     30  C   UNL     1       2.475   3.889  19.094  0.00  0.00    +0.000 A 
ATOM     31  C   UNL     1       1.140   3.817  19.524  0.00  0.00    +0.000 A 
ATOM     32  C   UNL     1       0.811   3.120  20.695  0.00  0.00    +0.000 A 
ATOM     33  C   UNL     1       1.811   2.508  21.443  0.00  0.00    +0.000 A 
ATOM     34  F   UNL     1       1.487   1.815  22.543  0.00  0.00    +0.000 F 
ATOM     35  C   UNL     1       3.138   2.588  21.052  0.00  0.00    +0.000 A 
ATOM     36  C   UNL     1       3.460   3.254  19.870  0.00  0.00    +0.000 A 
ATOM     37  F   UNL     1       4.750   3.273  19.507  0.00  0.00    +0.000 F 
ENDBRANCH  29  30
ENDBRANCH   4  29
TORSDOF 8
ENDMDL
MODEL 5
REMARK VINA RESULT:      -7.3      5.817      9.259
REMARK  Name = 
REMARK  10 active torsions:
REMARK  status: ('A' for Active; 'I' for Inactive)
REMARK    1  A    between atoms: C_1  and  C_2
REMARK    2  A    between atoms: C_2  and  S_3
REMARK    3  A    between atoms: S_3  and  N_6
REMARK    4  A    between atoms: N_6  and  C_7
REMARK    5  A    between atoms: C_10  and  O_11
REMARK    6  A    between atoms: O_11  and  C_12
REMARK    7  A    between atoms: C_20  and  C_21
REMARK    8  A    between atoms: N_23  and  C_24
REMARK    9  A    between atoms: CA_29  and  C_30
REMARK   10  A    between atoms: C_30  and  O_31
REMARK                            x       y       z     vdW  Elec       q    Type
REMARK                         _______ _______ _______ _____ _____    ______ ____
ROOT
ATOM      1  C   UNL     1       0.844  14.281  19.987  0.00  0.00    +0.000 A 
ATOM      2  C   UNL     1       1.835  13.398  20.395  0.00  0.00    +0.000 A 
ATOM      3  C   UNL     1       1.520  12.051  20.586  0.00  0.00    +0.000 A 
ATOM      4  C   UNL     1       0.234  11.554  20.304  0.00  0.00    +0.000 A 
ATOM      5  C   UNL     1      -0.791  12.464  19.968  0.00  0.00    +0.000 A 
ATOM      6  C   UNL     1      -0.460  13.832  19.811  0.00  0.00    +0.000 A 
ENDROOT
BRANCH   5   7
ATOM      7  C   UNL     1      -2.233  12.158  19.756  0.00  0.00    +0.000 A 
ATOM      8  C   UNL     1      -3.113  12.816  20.554  0.00  0.00    +0.000 A 
ATOM      9  N   UNL     1      -4.488  12.883  20.281  0.00  0.00    +0.000 N 
ATOM     10  C   UNL     1      -5.348  13.705  21.113  0.00  0.00    +0.000 C 
ATOM     11  C   UNL     1      -5.061  12.322  19.122  0.00  0.00    +0.000 A 
ATOM     12  O   UNL     1      -6.253  12.412  18.830  0.00  0.00    +0.000 OA
ATOM     13  C   UNL     1      -4.094  11.672  18.269  0.00  0.00    +0.000 A 
ATOM     14  N   UNL     1      -4.287  11.172  17.007  0.00  0.00    +0.000 N 
ATOM     15  CA  UNL     1      -3.070  10.797  16.474  0.00  0.00    +0.000 A 
ATOM     16  C   UNL     1      -2.116  10.924  17.475  0.00  0.00    +0.000 A 
ATOM     17  C   UNL     1      -2.751  11.547  18.562  0.00  0.00    +0.000 A 
ATOM     18  H   UNL     1      -5.165  11.193  16.497  0.00  0.00    +0.000 HD
BRANCH  15  19
ATOM     19  C   UNL     1      -2.895  10.463  15.040  0.00  0.00    +0.000 C 
BRANCH  19  20
ATOM     20  O   UNL     1      -4.157  10.081  14.520  0.00  0.00    +0.000 OA
ATOM     21  H   UNL     1      -4.817  10.371  15.172  0.00  0.00    +0.000 HD
ENDBRANCH  19  20
ENDBRANCH  15  19
ENDBRANCH   5   7
BRANCH   1  22
ATOM     22  N   UNL     1       1.138  15.655  19.778  0.00  0.00    +0.000 N 
ATOM     23  H   UNL     1       0.321  16.260  19.657  0.00  0.00    +0.000 HD
BRANCH  22  24
ATOM     24  S   UNL     1       2.286  16.046  18.596  0.00  0.00    +0.000 S 
ATOM     25  O   UNL     1       1.755  17.215  17.933  0.00  0.00    +0.000 OA
ATOM     26  O   UNL     1       2.649  14.857  17.852  0.00  0.00    +0.000 OA
BRANCH  24  28
ATOM     27  C   UNL     1       4.828  15.590  19.488  0.00  0.00    +0.000 C 
ATOM     28  C   UNL     1       3.666  16.556  19.611  0.00  0.00    +0.000 C 
ENDBRANCH  24  28
ENDBRANCH  22  24
ENDBRANCH   1  22
BRANCH   4  29
ATOM     29  O   UNL     1      -0.040  10.202  20.386  0.00  0.00    +0.000 OA
BRANCH  29  30
ATOM     30  C   UNL     1       0.795   9.290  19.750  0.00  0.00    +0.000 A 
ATOM     31  C   UNL     1       1.039   9.511  18.385  0.00  0.00    +0.000 A 
ATOM     32  C   UNL     1       1.929   8.685  17.683  0.00  0.00    +0.000 A 
ATOM     33  C   UNL     1       2.561   7.633  18.336  0.00  0.00    +0.000 A 
ATOM     34  F   UNL     1       3.435   6.867  17.669  0.00  0.00    +0.000 F 
ATOM     35  C   UNL     1       2.314   7.380  19.676  0.00  0.00    +0.000 A 
ATOM     36  C   UNL     1       1.455   8.222  20.380  0.00  0.00    +0.000 A 
ATOM     37  F   UNL     1       1.275   7.967  21.684  0.00  0.00    +0.000 F 
ENDBRANCH  29  30
ENDBRANCH   4  29
TORSDOF 8
ENDMDL
MODEL 6
REMARK VINA RESULT:      -7.2      5.596      9.985
REMARK  Name = 
REMARK  10 active torsions:
REMARK  status: ('A' for Active; 'I' for Inactive)
REMARK    1  A    between atoms: C_1  and  C_2
REMARK    2  A    between atoms: C_2  and  S_3
REMARK    3  A    between atoms: S_3  and  N_6
REMARK    4  A    between atoms: N_6  and  C_7
REMARK    5  A    between atoms: C_10  and  O_11
REMARK    6  A    between atoms: O_11  and  C_12
REMARK    7  A    between atoms: C_20  and  C_21
REMARK    8  A    between atoms: N_23  and  C_24
REMARK    9  A    between atoms: CA_29  and  C_30
REMARK   10  A    between atoms: C_30  and  O_31
REMARK                            x       y       z     vdW  Elec       q    Type
REMARK                         _______ _______ _______ _____ _____    ______ ____
ROOT
ATOM      1  C   UNL     1      -2.812  11.559  18.185  0.00  0.00    +0.000 A 
ATOM      2  C   UNL     1      -2.131  10.476  17.647  0.00  0.00    +0.000 A 
ATOM      3  C   UNL     1      -0.947  10.040  18.245  0.00  0.00    +0.000 A 
ATOM      4  C   UNL     1      -0.466  10.632  19.429  0.00  0.00    +0.000 A 
ATOM      5  C   UNL     1      -1.114  11.781  19.928  0.00  0.00    +0.000 A 
ATOM      6  C   UNL     1      -2.295  12.228  19.289  0.00  0.00    +0.000 A 
ENDROOT
BRANCH   5   7
ATOM      7  C   UNL     1      -0.692  12.621  21.084  0.00  0.00    +0.000 A 
ATOM      8  C   UNL     1       0.321  13.497  20.856  0.00  0.00    +0.000 A 
ATOM      9  N   UNL     1       0.621  14.558  21.723  0.00  0.00    +0.000 N 
ATOM     10  C   UNL     1       1.640  15.524  21.354  0.00  0.00    +0.000 C 
ATOM     11  C   UNL     1      -0.144  14.840  22.873  0.00  0.00    +0.000 A 
ATOM     12  O   UNL     1       0.063  15.795  23.621  0.00  0.00    +0.000 OA
ATOM     13  C   UNL     1      -1.242  13.922  23.063  0.00  0.00    +0.000 A 
ATOM     14  N   UNL     1      -2.261  14.007  23.977  0.00  0.00    +0.000 N 
ATOM     15  CA  UNL     1      -3.198  13.029  23.707  0.00  0.00    +0.000 A 
ATOM     16  C   UNL     1      -2.686  12.224  22.699  0.00  0.00    +0.000 A 
ATOM     17  C   UNL     1      -1.505  12.839  22.250  0.00  0.00    +0.000 A 
ATOM     18  H   UNL     1      -2.372  14.747  24.663  0.00  0.00    +0.000 HD
BRANCH  15  19
ATOM     19  C   UNL     1      -4.537  13.011  24.343  0.00  0.00    +0.000 C 
BRANCH  19  20
ATOM     20  O   UNL     1      -4.736  11.729  24.914  0.00  0.00    +0.000 OA
ATOM     21  H   UNL     1      -5.637  11.734  25.280  0.00  0.00    +0.000 HD
ENDBRANCH  19  20
ENDBRANCH  15  19
ENDBRANCH   5   7
BRANCH   1  22
ATOM     22  N   UNL     1      -4.023  12.018  17.600  0.00  0.00    +0.000 N 
ATOM     23  H   UNL     1      -4.014  12.997  17.298  0.00  0.00    +0.000 HD
BRANCH  22  24
ATOM     24  S   UNL     1      -5.466  11.716  18.434  0.00  0.00    +0.000 S 
ATOM     25  O   UNL     1      -5.385  12.532  19.624  0.00  0.00    +0.000 OA
ATOM     26  O   UNL     1      -5.699  10.289  18.513  0.00  0.00    +0.000 OA
BRANCH  24  28
ATOM     27  C   UNL     1      -7.608  13.374  18.075  0.00  0.00    +0.000 C 
ATOM     28  C   UNL     1      -6.663  12.453  17.329  0.00  0.00    +0.000 C 
ENDBRANCH  24  28
ENDBRANCH  22  24
ENDBRANCH   1  22
BRANCH   4  29
ATOM     29  O   UNL     1       0.643  10.123  20.078  0.00  0.00    +0.000 OA
BRANCH  29  30
ATOM     30  C   UNL     1       1.346   9.065  19.514  0.00  0.00    +0.000 A 
ATOM     31  C   UNL     1       1.871   9.275  18.229  0.00  0.00    +0.000 A 
ATOM     32  C   UNL     1       2.658   8.289  17.617  0.00  0.00    +0.000 A 
ATOM     33  C   UNL     1       2.907   7.091  18.277  0.00  0.00    +0.000 A 
ATOM     34  F   UNL     1       3.687   6.166  17.701  0.00  0.00    +0.000 F 
ATOM     35  C   UNL     1       2.377   6.851  19.535  0.00  0.00    +0.000 A 
ATOM     36  C   UNL     1       1.622   7.845  20.156  0.00  0.00    +0.000 A 
ATOM     37  F   UNL     1       1.162   7.588  21.388  0.00  0.00    +0.000 F 
ENDBRANCH  29  30
ENDBRANCH   4  29
TORSDOF 8
ENDMDL
MODEL 7
REMARK VINA RESULT:      -7.2      5.820      9.819
REMARK  Name = 
REMARK  10 active torsions:
REMARK  status: ('A' for Active; 'I' for Inactive)
REMARK    1  A    between atoms: C_1  and  C_2
REMARK    2  A    between atoms: C_2  and  S_3
REMARK    3  A    between atoms: S_3  and  N_6
REMARK    4  A    between atoms: N_6  and  C_7
REMARK    5  A    between atoms: C_10  and  O_11
REMARK    6  A    between atoms: O_11  and  C_12
REMARK    7  A    between atoms: C_20  and  C_21
REMARK    8  A    between atoms: N_23  and  C_24
REMARK    9  A    between atoms: CA_29  and  C_30
REMARK   10  A    between atoms: C_30  and  O_31
REMARK                            x       y       z     vdW  Elec       q    Type
REMARK                         _______ _______ _______ _____ _____    ______ ____
ROOT
ATOM      1  C   UNL     1       1.532  14.590  19.732  0.00  0.00    +0.000 A 
ATOM      2  C   UNL     1       2.290  13.708  20.489  0.00  0.00    +0.000 A 
ATOM      3  C   UNL     1       1.800  12.426  20.749  0.00  0.00    +0.000 A 
ATOM      4  C   UNL     1       0.584  11.984  20.196  0.00  0.00    +0.000 A 
ATOM      5  C   UNL     1      -0.222  12.905  19.495  0.00  0.00    +0.000 A 
ATOM      6  C   UNL     1       0.276  14.211  19.270  0.00  0.00    +0.000 A 
ENDROOT
BRANCH   5   7
ATOM      7  C   UNL     1      -1.587  12.672  18.947  0.00  0.00    +0.000 A 
ATOM      8  C   UNL     1      -1.660  11.981  17.780  0.00  0.00    +0.000 A 
ATOM      9  N   UNL     1      -2.851  11.414  17.301  0.00  0.00    +0.000 N 
ATOM     10  C   UNL     1      -2.826  10.588  16.108  0.00  0.00    +0.000 C 
ATOM     11  C   UNL     1      -4.060  11.462  18.024  0.00  0.00    +0.000 A 
ATOM     12  O   UNL     1      -5.104  10.927  17.656  0.00  0.00    +0.000 OA
ATOM     13  C   UNL     1      -3.940  12.160  19.282  0.00  0.00    +0.000 A 
ATOM     14  N   UNL     1      -4.870  12.249  20.286  0.00  0.00    +0.000 N 
ATOM     15  CA  UNL     1      -4.296  12.853  21.387  0.00  0.00    +0.000 A 
ATOM     16  C   UNL     1      -3.031  13.286  21.016  0.00  0.00    +0.000 A 
ATOM     17  C   UNL     1      -2.789  12.776  19.730  0.00  0.00    +0.000 A 
ATOM     18  H   UNL     1      -5.793  11.825  20.269  0.00  0.00    +0.000 HD
BRANCH  15  19
ATOM     19  C   UNL     1      -4.946  12.867  22.720  0.00  0.00    +0.000 C 
BRANCH  19  20
ATOM     20  O   UNL     1      -6.217  12.253  22.596  0.00  0.00    +0.000 OA
ATOM     21  H   UNL     1      -6.053  11.357  22.258  0.00  0.00    +0.000 HD
ENDBRANCH  19  20
ENDBRANCH  15  19
ENDBRANCH   5   7
BRANCH   1  22
ATOM     22  N   UNL     1       2.009  15.898  19.447  0.00  0.00    +0.000 N 
ATOM     23  H   UNL     1       1.282  16.606  19.317  0.00  0.00    +0.000 HD
BRANCH  22  24
ATOM     24  S   UNL     1       3.162  16.066  18.218  0.00  0.00    +0.000 S 
ATOM     25  O   UNL     1       2.808  17.293  17.541  0.00  0.00    +0.000 OA
ATOM     26  O   UNL     1       3.296  14.818  17.494  0.00  0.00    +0.000 OA
BRANCH  24  28
ATOM     27  C   UNL     1       5.563  15.156  19.150  0.00  0.00    +0.000 C 
ATOM     28  C   UNL     1       4.644  16.361  19.173  0.00  0.00    +0.000 C 
ENDBRANCH  24  28
ENDBRANCH  22  24
ENDBRANCH   1  22
BRANCH   4  29
ATOM     29  O   UNL     1       0.160  10.678  20.362  0.00  0.00    +0.000 OA
BRANCH  29  30
ATOM     30  C   UNL     1       0.878   9.642  19.777  0.00  0.00    +0.000 A 
ATOM     31  C   UNL     1       1.173   9.777  18.411  0.00  0.00    +0.000 A 
ATOM     32  C   UNL     1       1.958   8.815  17.759  0.00  0.00    +0.000 A 
ATOM     33  C   UNL     1       2.433   7.714  18.462  0.00  0.00    +0.000 A 
ATOM     34  F   UNL     1       3.209   6.815  17.842  0.00  0.00    +0.000 F 
ATOM     35  C   UNL     1       2.132   7.546  19.804  0.00  0.00    +0.000 A 
ATOM     36  C   UNL     1       1.379   8.520  20.459  0.00  0.00    +0.000 A 
ATOM     37  F   UNL     1       1.145   8.340  21.767  0.00  0.00    +0.000 F 
ENDBRANCH  29  30
ENDBRANCH   4  29
TORSDOF 8
ENDMDL
MODEL 8
REMARK VINA RESULT:      -7.1      5.903      9.514
REMARK  Name = 
REMARK  10 active torsions:
REMARK  status: ('A' for Active; 'I' for Inactive)
REMARK    1  A    between atoms: C_1  and  C_2
REMARK    2  A    between atoms: C_2  and  S_3
REMARK    3  A    between atoms: S_3  and  N_6
REMARK    4  A    between atoms: N_6  and  C_7
REMARK    5  A    between atoms: C_10  and  O_11
REMARK    6  A    between atoms: O_11  and  C_12
REMARK    7  A    between atoms: C_20  and  C_21
REMARK    8  A    between atoms: N_23  and  C_24
REMARK    9  A    between atoms: CA_29  and  C_30
REMARK   10  A    between atoms: C_30  and  O_31
REMARK                            x       y       z     vdW  Elec       q    Type
REMARK                         _______ _______ _______ _____ _____    ______ ____
ROOT
ATOM      1  C   UNL     1       0.827  14.558  19.175  0.00  0.00    +0.000 A 
ATOM      2  C   UNL     1       1.900  13.779  19.585  0.00  0.00    +0.000 A 
ATOM      3  C   UNL     1       1.670  12.493  20.079  0.00  0.00    +0.000 A 
ATOM      4  C   UNL     1       0.375  11.941  20.101  0.00  0.00    +0.000 A 
ATOM      5  C   UNL     1      -0.722  12.761  19.761  0.00  0.00    +0.000 A 
ATOM      6  C   UNL     1      -0.471  14.073  19.294  0.00  0.00    +0.000 A 
ENDROOT
BRANCH   5   7
ATOM      7  C   UNL     1      -2.167  12.408  19.840  0.00  0.00    +0.000 A 
ATOM      8  C   UNL     1      -2.894  13.050  20.791  0.00  0.00    +0.000 A 
ATOM      9  N   UNL     1      -4.297  13.071  20.795  0.00  0.00    +0.000 N 
ATOM     10  C   UNL     1      -5.003  13.878  21.774  0.00  0.00    +0.000 C 
ATOM     11  C   UNL     1      -5.068  12.479  19.774  0.00  0.00    +0.000 A 
ATOM     12  O   UNL     1      -6.297  12.529  19.723  0.00  0.00    +0.000 OA
ATOM     13  C   UNL     1      -4.268  11.847  18.752  0.00  0.00    +0.000 A 
ATOM     14  N   UNL     1      -4.690  11.326  17.556  0.00  0.00    +0.000 N 
ATOM     15  CA  UNL     1      -3.590  10.981  16.796  0.00  0.00    +0.000 A 
ATOM     16  C   UNL     1      -2.462  11.149  17.589  0.00  0.00    +0.000 A 
ATOM     17  C   UNL     1      -2.891  11.766  18.776  0.00  0.00    +0.000 A 
ATOM     18  H   UNL     1      -5.651  11.314  17.229  0.00  0.00    +0.000 HD
BRANCH  15  19
ATOM     19  C   UNL     1      -3.690  10.633  15.358  0.00  0.00    +0.000 C 
BRANCH  19  20
ATOM     20  O   UNL     1      -2.381  10.401  14.868  0.00  0.00    +0.000 OA
ATOM     21  H   UNL     1      -2.215  11.091  14.203  0.00  0.00    +0.000 HD
ENDBRANCH  19  20
ENDBRANCH  15  19
ENDBRANCH   5   7
BRANCH   1  22
ATOM     22  N   UNL     1       1.034  15.867  18.663  0.00  0.00    +0.000 N 
ATOM     23  H   UNL     1       1.858  15.973  18.065  0.00  0.00    +0.000 HD
BRANCH  22  24
ATOM     24  S   UNL     1       0.982  17.159  19.757  0.00  0.00    +0.000 S 
ATOM     25  O   UNL     1       1.865  18.156  19.196  0.00  0.00    +0.000 OA
ATOM     26  O   UNL     1       1.161  16.668  21.107  0.00  0.00    +0.000 OA
BRANCH  24  28
ATOM     27  C   UNL     1      -1.408  17.857  20.882  0.00  0.00    +0.000 C 
ATOM     28  C   UNL     1      -0.702  17.720  19.548  0.00  0.00    +0.000 C 
ENDBRANCH  24  28
ENDBRANCH  22  24
ENDBRANCH   1  22
BRANCH   4  29
ATOM     29  O   UNL     1       0.168  10.629  20.484  0.00  0.00    +0.000 OA
BRANCH  29  30
ATOM     30  C   UNL     1       0.846   9.606  19.831  0.00  0.00    +0.000 A 
ATOM     31  C   UNL     1       1.032   9.760  18.448  0.00  0.00    +0.000 A 
ATOM     32  C   UNL     1       1.772   8.814  17.724  0.00  0.00    +0.000 A 
ATOM     33  C   UNL     1       2.310   7.710  18.374  0.00  0.00    +0.000 A 
ATOM     34  F   UNL     1       3.043   6.826  17.683  0.00  0.00    +0.000 F 
ATOM     35  C   UNL     1       2.117   7.523  19.733  0.00  0.00    +0.000 A 
ATOM     36  C   UNL     1       1.410   8.482  20.458  0.00  0.00    +0.000 A 
ATOM     37  F   UNL     1       1.281   8.284  21.777  0.00  0.00    +0.000 F 
ENDBRANCH  29  30
ENDBRANCH   4  29
TORSDOF 8
ENDMDL
MODEL 9
REMARK VINA RESULT:      -7.1      5.498      9.763
REMARK  Name = 
REMARK  10 active torsions:
REMARK  status: ('A' for Active; 'I' for Inactive)
REMARK    1  A    between atoms: C_1  and  C_2
REMARK    2  A    between atoms: C_2  and  S_3
REMARK    3  A    between atoms: S_3  and  N_6
REMARK    4  A    between atoms: N_6  and  C_7
REMARK    5  A    between atoms: C_10  and  O_11
REMARK    6  A    between atoms: O_11  and  C_12
REMARK    7  A    between atoms: C_20  and  C_21
REMARK    8  A    between atoms: N_23  and  C_24
REMARK    9  A    between atoms: CA_29  and  C_30
REMARK   10  A    between atoms: C_30  and  O_31
REMARK                            x       y       z     vdW  Elec       q    Type
REMARK                         _______ _______ _______ _____ _____    ______ ____
ROOT
ATOM      1  C   UNL     1      -2.598  11.468  17.972  0.00  0.00    +0.000 A 
ATOM      2  C   UNL     1      -1.997  10.298  17.529  0.00  0.00    +0.000 A 
ATOM      3  C   UNL     1      -0.886   9.793  18.210  0.00  0.00    +0.000 A 
ATOM      4  C   UNL     1      -0.407  10.408  19.382  0.00  0.00    +0.000 A 
ATOM      5  C   UNL     1      -0.967  11.640  19.784  0.00  0.00    +0.000 A 
ATOM      6  C   UNL     1      -2.070  12.153  19.062  0.00  0.00    +0.000 A 
ENDROOT
BRANCH   5   7
ATOM      7  C   UNL     1      -0.521  12.505  20.912  0.00  0.00    +0.000 A 
ATOM      8  C   UNL     1       0.490  13.371  20.645  0.00  0.00    +0.000 A 
ATOM      9  N   UNL     1       0.810  14.452  21.481  0.00  0.00    +0.000 N 
ATOM     10  C   UNL     1       1.825  15.405  21.070  0.00  0.00    +0.000 C 
ATOM     11  C   UNL     1       0.067  14.764  22.637  0.00  0.00    +0.000 A 
ATOM     12  O   UNL     1       0.290  15.736  23.358  0.00  0.00    +0.000 OA
ATOM     13  C   UNL     1      -1.031  13.855  22.868  0.00  0.00    +0.000 A 
ATOM     14  N   UNL     1      -2.033  13.965  23.799  0.00  0.00    +0.000 N 
ATOM     15  CA  UNL     1      -2.978  12.986  23.569  0.00  0.00    +0.000 A 
ATOM     16  C   UNL     1      -2.487  12.154  22.571  0.00  0.00    +0.000 A 
ATOM     17  C   UNL     1      -1.313  12.754  22.087  0.00  0.00    +0.000 A 
ATOM     18  H   UNL     1      -2.129  14.722  24.469  0.00  0.00    +0.000 HD
BRANCH  15  19
ATOM     19  C   UNL     1      -4.306  12.987  24.229  0.00  0.00    +0.000 C 
BRANCH  19  20
ATOM     20  O   UNL     1      -4.512  11.711  24.808  0.00  0.00    +0.000 OA
ATOM     21  H   UNL     1      -5.474  11.575  24.827  0.00  0.00    +0.000 HD
ENDBRANCH  19  20
ENDBRANCH  15  19
ENDBRANCH   5   7
BRANCH   1  22
ATOM     22  N   UNL     1      -3.732  12.000  17.303  0.00  0.00    +0.000 N 
ATOM     23  H   UNL     1      -3.656  12.985  17.037  0.00  0.00    +0.000 HD
BRANCH  22  24
ATOM     24  S   UNL     1      -5.254  11.737  17.999  0.00  0.00    +0.000 S 
ATOM     25  O   UNL     1      -5.205  10.383  18.501  0.00  0.00    +0.000 OA
ATOM     26  O   UNL     1      -6.293  12.166  17.086  0.00  0.00    +0.000 OA
BRANCH  24  28
ATOM     27  C   UNL     1      -5.695  12.187  20.658  0.00  0.00    +0.000 C 
ATOM     28  C   UNL     1      -5.191  12.854  19.394  0.00  0.00    +0.000 C 
ENDBRANCH  24  28
ENDBRANCH  22  24
ENDBRANCH   1  22
BRANCH   4  29
ATOM     29  O   UNL     1       0.619   9.841  20.114  0.00  0.00    +0.000 OA
BRANCH  29  30
ATOM     30  C   UNL     1       1.451   8.900  19.519  0.00  0.00    +0.000 A 
ATOM     31  C   UNL     1       1.568   7.663  20.173  0.00  0.00    +0.000 A 
ATOM     32  C   UNL     1       2.325   6.630  19.603  0.00  0.00    +0.000 A 
ATOM     33  C   UNL     1       2.976   6.834  18.392  0.00  0.00    +0.000 A 
ATOM     34  F   UNL     1       3.672   5.833  17.836  0.00  0.00    +0.000 F 
ATOM     35  C   UNL     1       2.897   8.055  17.741  0.00  0.00    +0.000 A 
ATOM     36  C   UNL     1       2.117   9.070  18.293  0.00  0.00    +0.000 A 
ATOM     37  F   UNL     1       2.034  10.221  17.611  0.00  0.00    +0.000 F 
ENDBRANCH  29  30
ENDBRANCH   4  29
TORSDOF 8
ENDMDL
