MODEL 1
REMARK VINA RESULT:      -6.9      0.000      0.000
REMARK  Name = 
REMARK  7 active torsions:
REMARK  status: ('A' for Active; 'I' for Inactive)
REMARK    1  A    between atoms: C_1  and  C_2
REMARK    2  A    between atoms: C_2  and  C_3
REMARK    3  A    between atoms: C_2  and  N_4
REMARK    4  A    between atoms: C_7  and  N_8
REMARK    5  A    between atoms: N_8  and  C_18
REMARK    6  A    between atoms: C_9  and  C_11
REMARK    7  A    between atoms: C_11  and  C_12
REMARK                            x       y       z     vdW  Elec       q    Type
REMARK                         _______ _______ _______ _____ _____    ______ ____
ROOT
ATOM      1  N   UNL     1       4.724   5.955  18.031  0.00  0.00    +0.000 N 
ATOM      2  C   UNL     1       4.188   7.216  17.709  0.00  0.00    +0.000 C 
ATOM      3  O   UNL     1       4.887   8.209  17.484  0.00  0.00    +0.000 OA
ENDROOT
BRANCH   1   4
ATOM      4  C   UNL     1       3.843   4.885  18.353  0.00  0.00    +0.000 A 
ATOM      5  C   UNL     1       3.202   4.210  17.309  0.00  0.00    +0.000 A 
ATOM      6  C   UNL     1       2.285   3.198  17.582  0.00  0.00    +0.000 A 
ATOM      7  C   UNL     1       1.989   2.876  18.903  0.00  0.00    +0.000 A 
ATOM      8 CL   UNL     1       0.812   1.667  19.236  0.00  0.00    +0.000 Cl
ATOM      9  C   UNL     1       2.622   3.544  19.953  0.00  0.00    +0.000 A 
ATOM     10  C   UNL     1       3.569   4.540  19.681  0.00  0.00    +0.000 A 
ENDBRANCH   1   4
BRANCH   1  14
ATOM     11  N   UNL     1       7.242   5.204  15.520  0.00  0.00    +0.000 NA
ATOM     12  C   UNL     1       7.095   6.563  16.053  0.00  0.00    +0.000 C 
ATOM     13  C   UNL     1       7.189   6.659  17.580  0.00  0.00    +0.000 C 
ATOM     14  C   UNL     1       6.197   5.706  18.267  0.00  0.00    +0.000 C 
ATOM     15  C   UNL     1       6.658   4.303  17.810  0.00  0.00    +0.000 C 
ATOM     16  C   UNL     1       6.539   4.168  16.291  0.00  0.00    +0.000 C 
BRANCH  11  18
ATOM     17  C   UNL     1       8.085   5.320  13.101  0.00  0.00    +0.000 C 
ATOM     18  C   UNL     1       6.908   5.108  14.074  0.00  0.00    +0.000 C 
ATOM     19  C   UNL     1       6.216   3.781  13.732  0.00  0.00    +0.000 C 
ENDBRANCH  11  18
ENDBRANCH   1  14
BRANCH   2  20
ATOM     20  C   UNL     1       2.664   7.399  17.676  0.00  0.00    +0.000 C 
BRANCH  20  21
ATOM     21  C   UNL     1       2.029   8.180  18.812  0.00  0.00    +0.000 A 
ATOM     22  C   UNL     1       1.430   9.420  18.519  0.00  0.00    +0.000 A 
ATOM     23  C   UNL     1       0.739  10.139  19.496  0.00  0.00    +0.000 A 
ATOM     24  C   UNL     1       0.630   9.628  20.785  0.00  0.00    +0.000 A 
ATOM     25  C   UNL     1       1.214   8.401  21.096  0.00  0.00    +0.000 A 
ATOM     26  C   UNL     1       1.900   7.676  20.113  0.00  0.00    +0.000 A 
ENDBRANCH  20  21
ENDBRANCH   2  20
TORSDOF 5
ENDMDL
MODEL 2
REMARK VINA RESULT:      -6.7      0.423      1.240
REMARK  Name = 
REMARK  7 active torsions:
REMARK  status: ('A' for Active; 'I' for Inactive)
REMARK    1  A    between atoms: C_1  and  C_2
REMARK    2  A    between atoms: C_2  and  C_3
REMARK    3  A    between atoms: C_2  and  N_4
REMARK    4  A    between atoms: C_7  and  N_8
REMARK    5  A    between atoms: N_8  and  C_18
REMARK    6  A    between atoms: C_9  and  C_11
REMARK    7  A    between atoms: C_11  and  C_12
REMARK                            x       y       z     vdW  Elec       q    Type
REMARK                         _______ _______ _______ _____ _____    ______ ____
ROOT
ATOM      1  N   UNL     1       4.602   6.109  18.101  0.00  0.00    +0.000 N 
ATOM      2  C   UNL     1       4.101   7.362  17.700  0.00  0.00    +0.000 C 
ATOM      3  O   UNL     1       4.822   8.346  17.507  0.00  0.00    +0.000 OA
ENDROOT
BRANCH   1   4
ATOM      4  C   UNL     1       3.691   5.050  18.378  0.00  0.00    +0.000 A 
ATOM      5  C   UNL     1       3.110   4.371  17.302  0.00  0.00    +0.000 A 
ATOM      6  C   UNL     1       2.168   3.371  17.528  0.00  0.00    +0.000 A 
ATOM      7  C   UNL     1       1.786   3.066  18.831  0.00  0.00    +0.000 A 
ATOM      8 CL   UNL     1       0.579   1.872  19.102  0.00  0.00    +0.000 Cl
ATOM      9  C   UNL     1       2.359   3.739  19.912  0.00  0.00    +0.000 A 
ATOM     10  C   UNL     1       3.331   4.723  19.690  0.00  0.00    +0.000 A 
ENDBRANCH   1   4
BRANCH   1  14
ATOM     11  N   UNL     1       7.201   4.768  15.943  0.00  0.00    +0.000 NA
ATOM     12  C   UNL     1       7.091   6.212  16.178  0.00  0.00    +0.000 C 
ATOM     13  C   UNL     1       7.115   6.617  17.656  0.00  0.00    +0.000 C 
ATOM     14  C   UNL     1       6.048   5.862  18.466  0.00  0.00    +0.000 C 
ATOM     15  C   UNL     1       6.466   4.380  18.332  0.00  0.00    +0.000 C 
ATOM     16  C   UNL     1       6.414   3.939  16.868  0.00  0.00    +0.000 C 
BRANCH  11  18
ATOM     17  C   UNL     1       5.446   4.287  14.137  0.00  0.00    +0.000 C 
ATOM     18  C   UNL     1       6.933   4.387  14.531  0.00  0.00    +0.000 C 
ATOM     19  C   UNL     1       7.645   5.318  13.540  0.00  0.00    +0.000 C 
ENDBRANCH  11  18
ENDBRANCH   1  14
BRANCH   2  20
ATOM     20  C   UNL     1       2.586   7.548  17.535  0.00  0.00    +0.000 C 
BRANCH  20  21
ATOM     21  C   UNL     1       1.863   8.365  18.590  0.00  0.00    +0.000 A 
ATOM     22  C   UNL     1       1.830   7.875  19.909  0.00  0.00    +0.000 A 
ATOM     23  C   UNL     1       1.272   8.625  20.946  0.00  0.00    +0.000 A 
ATOM     24  C   UNL     1       0.742   9.884  20.684  0.00  0.00    +0.000 A 
ATOM     25  C   UNL     1       0.768  10.390  19.385  0.00  0.00    +0.000 A 
ATOM     26  C   UNL     1       1.334   9.639  18.346  0.00  0.00    +0.000 A 
ENDBRANCH  20  21
ENDBRANCH   2  20
TORSDOF 5
ENDMDL
MODEL 3
REMARK VINA RESULT:      -6.6      0.482      1.264
REMARK  Name = 
REMARK  7 active torsions:
REMARK  status: ('A' for Active; 'I' for Inactive)
REMARK    1  A    between atoms: C_1  and  C_2
REMARK    2  A    between atoms: C_2  and  C_3
REMARK    3  A    between atoms: C_2  and  N_4
REMARK    4  A    between atoms: C_7  and  N_8
REMARK    5  A    between atoms: N_8  and  C_18
REMARK    6  A    between atoms: C_9  and  C_11
REMARK    7  A    between atoms: C_11  and  C_12
REMARK                            x       y       z     vdW  Elec       q    Type
REMARK                         _______ _______ _______ _____ _____    ______ ____
ROOT
ATOM      1  N   UNL     1       4.572   6.132  18.109  0.00  0.00    +0.000 N 
ATOM      2  C   UNL     1       4.104   7.388  17.677  0.00  0.00    +0.000 C 
ATOM      3  O   UNL     1       4.850   8.348  17.465  0.00  0.00    +0.000 OA
ENDROOT
BRANCH   1   4
ATOM      4  C   UNL     1       3.634   5.103  18.406  0.00  0.00    +0.000 A 
ATOM      5  C   UNL     1       3.360   4.816  19.748  0.00  0.00    +0.000 A 
ATOM      6  C   UNL     1       2.496   3.776  20.083  0.00  0.00    +0.000 A 
ATOM      7  C   UNL     1       1.924   3.005  19.075  0.00  0.00    +0.000 A 
ATOM      8 CL   UNL     1       0.905   1.685  19.495  0.00  0.00    +0.000 Cl
ATOM      9  C   UNL     1       2.192   3.283  17.733  0.00  0.00    +0.000 A 
ATOM     10  C   UNL     1       3.035   4.348  17.392  0.00  0.00    +0.000 A 
ENDBRANCH   1   4
BRANCH   1  14
ATOM     11  N   UNL     1       7.167   4.749  15.974  0.00  0.00    +0.000 NA
ATOM     12  C   UNL     1       7.081   6.194  16.211  0.00  0.00    +0.000 C 
ATOM     13  C   UNL     1       7.098   6.596  17.690  0.00  0.00    +0.000 C 
ATOM     14  C   UNL     1       6.010   5.858  18.488  0.00  0.00    +0.000 C 
ATOM     15  C   UNL     1       6.401   4.369  18.354  0.00  0.00    +0.000 C 
ATOM     16  C   UNL     1       6.356   3.932  16.889  0.00  0.00    +0.000 C 
BRANCH  11  18
ATOM     17  C   UNL     1       5.420   4.294  14.152  0.00  0.00    +0.000 C 
ATOM     18  C   UNL     1       6.906   4.377  14.557  0.00  0.00    +0.000 C 
ATOM     19  C   UNL     1       7.636   5.303  13.577  0.00  0.00    +0.000 C 
ENDBRANCH  11  18
ENDBRANCH   1  14
BRANCH   2  20
ATOM     20  C   UNL     1       2.595   7.608  17.499  0.00  0.00    +0.000 C 
BRANCH  20  21
ATOM     21  C   UNL     1       1.879   8.427  18.557  0.00  0.00    +0.000 A 
ATOM     22  C   UNL     1       1.136   9.549  18.145  0.00  0.00    +0.000 A 
ATOM     23  C   UNL     1       0.371  10.284  19.052  0.00  0.00    +0.000 A 
ATOM     24  C   UNL     1       0.330   9.907  20.390  0.00  0.00    +0.000 A 
ATOM     25  C   UNL     1       1.057   8.797  20.819  0.00  0.00    +0.000 A 
ATOM     26  C   UNL     1       1.818   8.056  19.906  0.00  0.00    +0.000 A 
ENDBRANCH  20  21
ENDBRANCH   2  20
TORSDOF 5
ENDMDL
MODEL 4
REMARK VINA RESULT:      -6.3      2.724      6.318
REMARK  Name = 
REMARK  7 active torsions:
REMARK  status: ('A' for Active; 'I' for Inactive)
REMARK    1  A    between atoms: C_1  and  C_2
REMARK    2  A    between atoms: C_2  and  C_3
REMARK    3  A    between atoms: C_2  and  N_4
REMARK    4  A    between atoms: C_7  and  N_8
REMARK    5  A    between atoms: N_8  and  C_18
REMARK    6  A    between atoms: C_9  and  C_11
REMARK    7  A    between atoms: C_11  and  C_12
REMARK                            x       y       z     vdW  Elec       q    Type
REMARK                         _______ _______ _______ _____ _____    ______ ____
ROOT
ATOM      1  N   UNL     1       2.749   5.910  19.844  0.00  0.00    +0.000 N 
ATOM      2  C   UNL     1       4.045   5.553  19.428  0.00  0.00    +0.000 C 
ATOM      3  O   UNL     1       4.578   4.480  19.725  0.00  0.00    +0.000 OA
ENDROOT
BRANCH   1   4
ATOM      4  C   UNL     1       2.243   7.201  19.522  0.00  0.00    +0.000 A 
ATOM      5  C   UNL     1       1.662   7.964  20.541  0.00  0.00    +0.000 A 
ATOM      6  C   UNL     1       1.099   9.205  20.257  0.00  0.00    +0.000 A 
ATOM      7  C   UNL     1       1.094   9.675  18.947  0.00  0.00    +0.000 A 
ATOM      8 CL   UNL     1       0.345  11.182  18.592  0.00  0.00    +0.000 Cl
ATOM      9  C   UNL     1       1.670   8.921  17.923  0.00  0.00    +0.000 A 
ATOM     10  C   UNL     1       2.265   7.687  18.210  0.00  0.00    +0.000 A 
ENDBRANCH   1   4
BRANCH   1  14
ATOM     11  N   UNL     1       2.043   2.351  19.619  0.00  0.00    +0.000 NA
ATOM     12  C   UNL     1       3.094   2.854  20.510  0.00  0.00    +0.000 C 
ATOM     13  C   UNL     1       2.624   3.915  21.511  0.00  0.00    +0.000 C 
ATOM     14  C   UNL     1       1.920   5.085  20.803  0.00  0.00    +0.000 C 
ATOM     15  C   UNL     1       0.692   4.426  20.136  0.00  0.00    +0.000 C 
ATOM     16  C   UNL     1       1.135   3.387  19.104  0.00  0.00    +0.000 C 
BRANCH  11  18
ATOM     17  C   UNL     1       2.657   2.200  17.134  0.00  0.00    +0.000 C 
ATOM     18  C   UNL     1       2.573   1.512  18.511  0.00  0.00    +0.000 C 
ATOM     19  C   UNL     1       3.944   0.914  18.850  0.00  0.00    +0.000 C 
ENDBRANCH  11  18
ENDBRANCH   1  14
BRANCH   2  20
ATOM     20  C   UNL     1       4.871   6.552  18.604  0.00  0.00    +0.000 C 
BRANCH  20  21
ATOM     21  C   UNL     1       5.580   6.023  17.371  0.00  0.00    +0.000 A 
ATOM     22  C   UNL     1       6.816   5.370  17.537  0.00  0.00    +0.000 A 
ATOM     23  C   UNL     1       7.469   4.770  16.460  0.00  0.00    +0.000 A 
ATOM     24  C   UNL     1       6.895   4.807  15.193  0.00  0.00    +0.000 A 
ATOM     25  C   UNL     1       5.670   5.446  15.006  0.00  0.00    +0.000 A 
ATOM     26  C   UNL     1       5.012   6.042  16.090  0.00  0.00    +0.000 A 
ENDBRANCH  20  21
ENDBRANCH   2  20
TORSDOF 5
ENDMDL
MODEL 5
REMARK VINA RESULT:      -6.2      2.103      4.139
REMARK  Name = 
REMARK  7 active torsions:
REMARK  status: ('A' for Active; 'I' for Inactive)
REMARK    1  A    between atoms: C_1  and  C_2
REMARK    2  A    between atoms: C_2  and  C_3
REMARK    3  A    between atoms: C_2  and  N_4
REMARK    4  A    between atoms: C_7  and  N_8
REMARK    5  A    between atoms: N_8  and  C_18
REMARK    6  A    between atoms: C_9  and  C_11
REMARK    7  A    between atoms: C_11  and  C_12
REMARK                            x       y       z     vdW  Elec       q    Type
REMARK                         _______ _______ _______ _____ _____    ______ ____
ROOT
ATOM      1  N   UNL     1       4.921   5.559  18.269  0.00  0.00    +0.000 N 
ATOM      2  C   UNL     1       4.651   4.235  17.877  0.00  0.00    +0.000 C 
ATOM      3  O   UNL     1       5.535   3.423  17.592  0.00  0.00    +0.000 OA
ENDROOT
BRANCH   1   4
ATOM      4  C   UNL     1       3.837   6.452  18.503  0.00  0.00    +0.000 A 
ATOM      5  C   UNL     1       3.492   7.362  17.497  0.00  0.00    +0.000 A 
ATOM      6  C   UNL     1       2.480   8.294  17.707  0.00  0.00    +0.000 A 
ATOM      7  C   UNL     1       1.826   8.335  18.935  0.00  0.00    +0.000 A 
ATOM      8 CL   UNL     1       0.617   9.526  19.211  0.00  0.00    +0.000 Cl
ATOM      9  C   UNL     1       2.163   7.433  19.946  0.00  0.00    +0.000 A 
ATOM     10  C   UNL     1       3.159   6.473  19.727  0.00  0.00    +0.000 A 
ENDBRANCH   1   4
BRANCH   1  14
ATOM     11  N   UNL     1       7.391   5.332  15.613  0.00  0.00    +0.000 NA
ATOM     12  C   UNL     1       6.552   6.527  15.759  0.00  0.00    +0.000 C 
ATOM     13  C   UNL     1       6.615   7.182  17.143  0.00  0.00    +0.000 C 
ATOM     14  C   UNL     1       6.303   6.171  18.259  0.00  0.00    +0.000 C 
ATOM     15  C   UNL     1       7.432   5.124  18.133  0.00  0.00    +0.000 C 
ATOM     16  C   UNL     1       7.369   4.428  16.772  0.00  0.00    +0.000 C 
BRANCH  11  18
ATOM     17  C   UNL     1       5.649   4.242  14.079  0.00  0.00    +0.000 C 
ATOM     18  C   UNL     1       7.127   4.586  14.354  0.00  0.00    +0.000 C 
ATOM     19  C   UNL     1       7.703   5.308  13.128  0.00  0.00    +0.000 C 
ENDBRANCH  11  18
ENDBRANCH   1  14
BRANCH   2  20
ATOM     20  C   UNL     1       3.192   3.772  17.744  0.00  0.00    +0.000 C 
BRANCH  20  21
ATOM     21  C   UNL     1       2.479   3.339  19.011  0.00  0.00    +0.000 A 
ATOM     22  C   UNL     1       3.255   2.888  20.096  0.00  0.00    +0.000 A 
ATOM     23  C   UNL     1       2.670   2.573  21.324  0.00  0.00    +0.000 A 
ATOM     24  C   UNL     1       1.296   2.710  21.492  0.00  0.00    +0.000 A 
ATOM     25  C   UNL     1       0.509   3.158  20.432  0.00  0.00    +0.000 A 
ATOM     26  C   UNL     1       1.098   3.480  19.203  0.00  0.00    +0.000 A 
ENDBRANCH  20  21
ENDBRANCH   2  20
TORSDOF 5
ENDMDL
MODEL 6
REMARK VINA RESULT:      -6.2      1.739      2.851
REMARK  Name = 
REMARK  7 active torsions:
REMARK  status: ('A' for Active; 'I' for Inactive)
REMARK    1  A    between atoms: C_1  and  C_2
REMARK    2  A    between atoms: C_2  and  C_3
REMARK    3  A    between atoms: C_2  and  N_4
REMARK    4  A    between atoms: C_7  and  N_8
REMARK    5  A    between atoms: N_8  and  C_18
REMARK    6  A    between atoms: C_9  and  C_11
REMARK    7  A    between atoms: C_11  and  C_12
REMARK                            x       y       z     vdW  Elec       q    Type
REMARK                         _______ _______ _______ _____ _____    ______ ____
ROOT
ATOM      1  N   UNL     1       3.282   5.820  17.782  0.00  0.00    +0.000 N 
ATOM      2  C   UNL     1       3.200   7.209  17.996  0.00  0.00    +0.000 C 
ATOM      3  O   UNL     1       3.631   8.041  17.192  0.00  0.00    +0.000 OA
ENDROOT
BRANCH   1   4
ATOM      4  C   UNL     1       2.830   4.930  18.797  0.00  0.00    +0.000 A 
ATOM      5  C   UNL     1       1.669   4.186  18.565  0.00  0.00    +0.000 A 
ATOM      6  C   UNL     1       1.158   3.351  19.555  0.00  0.00    +0.000 A 
ATOM      7  C   UNL     1       1.796   3.278  20.791  0.00  0.00    +0.000 A 
ATOM      8 CL   UNL     1       1.128   2.291  22.031  0.00  0.00    +0.000 Cl
ATOM      9  C   UNL     1       2.955   4.018  21.033  0.00  0.00    +0.000 A 
ATOM     10  C   UNL     1       3.489   4.834  20.028  0.00  0.00    +0.000 A 
ENDBRANCH   1   4
BRANCH   1  14
ATOM     11  N   UNL     1       6.880   5.483  17.402  0.00  0.00    +0.000 NA
ATOM     12  C   UNL     1       6.065   4.355  17.864  0.00  0.00    +0.000 C 
ATOM     13  C   UNL     1       4.911   3.980  16.928  0.00  0.00    +0.000 C 
ATOM     14  C   UNL     1       4.018   5.193  16.620  0.00  0.00    +0.000 C 
ATOM     15  C   UNL     1       4.968   6.175  15.898  0.00  0.00    +0.000 C 
ATOM     16  C   UNL     1       6.110   6.595  16.826  0.00  0.00    +0.000 C 
BRANCH  11  18
ATOM     17  C   UNL     1       8.126   7.488  18.403  0.00  0.00    +0.000 C 
ATOM     18  C   UNL     1       7.831   5.975  18.434  0.00  0.00    +0.000 C 
ATOM     19  C   UNL     1       7.391   5.585  19.851  0.00  0.00    +0.000 C 
ENDBRANCH  11  18
ENDBRANCH   1  14
BRANCH   2  20
ATOM     20  C   UNL     1       2.592   7.734  19.304  0.00  0.00    +0.000 C 
BRANCH  20  21
ATOM     21  C   UNL     1       1.394   8.659  19.197  0.00  0.00    +0.000 A 
ATOM     22  C   UNL     1       0.785   9.107  20.385  0.00  0.00    +0.000 A 
ATOM     23  C   UNL     1      -0.253  10.040  20.359  0.00  0.00    +0.000 A 
ATOM     24  C   UNL     1      -0.700  10.546  19.143  0.00  0.00    +0.000 A 
ATOM     25  C   UNL     1      -0.110  10.118  17.955  0.00  0.00    +0.000 A 
ATOM     26  C   UNL     1       0.937   9.187  17.982  0.00  0.00    +0.000 A 
ENDBRANCH  20  21
ENDBRANCH   2  20
TORSDOF 5
ENDMDL
MODEL 7
REMARK VINA RESULT:      -6.0      7.664      9.909
REMARK  Name = 
REMARK  7 active torsions:
REMARK  status: ('A' for Active; 'I' for Inactive)
REMARK    1  A    between atoms: C_1  and  C_2
REMARK    2  A    between atoms: C_2  and  C_3
REMARK    3  A    between atoms: C_2  and  N_4
REMARK    4  A    between atoms: C_7  and  N_8
REMARK    5  A    between atoms: N_8  and  C_18
REMARK    6  A    between atoms: C_9  and  C_11
REMARK    7  A    between atoms: C_11  and  C_12
REMARK                            x       y       z     vdW  Elec       q    Type
REMARK                         _______ _______ _______ _____ _____    ______ ____
ROOT
ATOM      1  N   UNL     1       0.237  11.561  20.132  0.00  0.00    +0.000 N 
ATOM      2  C   UNL     1      -0.053  10.661  19.090  0.00  0.00    +0.000 C 
ATOM      3  O   UNL     1       0.733  10.419  18.170  0.00  0.00    +0.000 OA
ENDROOT
BRANCH   1   4
ATOM      4  C   UNL     1      -0.760  11.841  21.109  0.00  0.00    +0.000 A 
ATOM      5  C   UNL     1      -0.646  11.246  22.370  0.00  0.00    +0.000 A 
ATOM      6  C   UNL     1      -1.630  11.443  23.334  0.00  0.00    +0.000 A 
ATOM      7  C   UNL     1      -2.746  12.218  23.029  0.00  0.00    +0.000 A 
ATOM      8 CL   UNL     1      -3.989  12.410  24.203  0.00  0.00    +0.000 Cl
ATOM      9  C   UNL     1      -2.871  12.815  21.774  0.00  0.00    +0.000 A 
ATOM     10  C   UNL     1      -1.866  12.645  20.813  0.00  0.00    +0.000 A 
ENDBRANCH   1   4
BRANCH   1  14
ATOM     11  N   UNL     1       0.434  15.134  19.497  0.00  0.00    +0.000 NA
ATOM     12  C   UNL     1       0.402  14.616  20.869  0.00  0.00    +0.000 C 
ATOM     13  C   UNL     1       1.492  13.585  21.183  0.00  0.00    +0.000 C 
ATOM     14  C   UNL     1       1.477  12.424  20.174  0.00  0.00    +0.000 C 
ATOM     15  C   UNL     1       1.789  13.108  18.823  0.00  0.00    +0.000 C 
ATOM     16  C   UNL     1       0.696  14.118  18.468  0.00  0.00    +0.000 C 
BRANCH  11  18
ATOM     17  C   UNL     1      -1.544  16.527  20.349  0.00  0.00    +0.000 C 
ATOM     18  C   UNL     1      -0.768  15.940  19.153  0.00  0.00    +0.000 C 
ATOM     19  C   UNL     1      -0.437  17.074  18.173  0.00  0.00    +0.000 C 
ENDBRANCH  11  18
ENDBRANCH   1  14
BRANCH   2  20
ATOM     20  C   UNL     1      -1.426   9.974  19.050  0.00  0.00    +0.000 C 
BRANCH  20  21
ATOM     21  C   UNL     1      -2.318  10.263  17.857  0.00  0.00    +0.000 A 
ATOM     22  C   UNL     1      -3.411  11.133  18.034  0.00  0.00    +0.000 A 
ATOM     23  C   UNL     1      -4.209  11.521  16.956  0.00  0.00    +0.000 A 
ATOM     24  C   UNL     1      -3.924  11.052  15.678  0.00  0.00    +0.000 A 
ATOM     25  C   UNL     1      -2.844  10.192  15.480  0.00  0.00    +0.000 A 
ATOM     26  C   UNL     1      -2.040   9.808  16.562  0.00  0.00    +0.000 A 
ENDBRANCH  20  21
ENDBRANCH   2  20
TORSDOF 5
ENDMDL
MODEL 8
REMARK VINA RESULT:      -6.0      2.099      4.122
REMARK  Name = 
REMARK  7 active torsions:
REMARK  status: ('A' for Active; 'I' for Inactive)
REMARK    1  A    between atoms: C_1  and  C_2
REMARK    2  A    between atoms: C_2  and  C_3
REMARK    3  A    between atoms: C_2  and  N_4
REMARK    4  A    between atoms: C_7  and  N_8
REMARK    5  A    between atoms: N_8  and  C_18
REMARK    6  A    between atoms: C_9  and  C_11
REMARK    7  A    between atoms: C_11  and  C_12
REMARK                            x       y       z     vdW  Elec       q    Type
REMARK                         _______ _______ _______ _____ _____    ______ ____
ROOT
ATOM      1  N   UNL     1       5.066   5.331  18.211  0.00  0.00    +0.000 N 
ATOM      2  C   UNL     1       4.675   4.039  17.810  0.00  0.00    +0.000 C 
ATOM      3  O   UNL     1       5.481   3.150  17.520  0.00  0.00    +0.000 OA
ENDROOT
BRANCH   1   4
ATOM      4  C   UNL     1       4.069   6.318  18.450  0.00  0.00    +0.000 A 
ATOM      5  C   UNL     1       3.408   6.316  19.683  0.00  0.00    +0.000 A 
ATOM      6  C   UNL     1       2.384   7.224  19.935  0.00  0.00    +0.000 A 
ATOM      7  C   UNL     1       2.001   8.122  18.942  0.00  0.00    +0.000 A 
ATOM      8 CL   UNL     1       0.696   9.203  19.237  0.00  0.00    +0.000 Cl
ATOM      9  C   UNL     1       2.653   8.133  17.708  0.00  0.00    +0.000 A 
ATOM     10  C   UNL     1       3.706   7.241  17.463  0.00  0.00    +0.000 A 
ENDBRANCH   1   4
BRANCH   1  14
ATOM     11  N   UNL     1       7.288   5.540  15.342  0.00  0.00    +0.000 NA
ATOM     12  C   UNL     1       6.590   6.730  15.840  0.00  0.00    +0.000 C 
ATOM     13  C   UNL     1       6.826   7.030  17.324  0.00  0.00    +0.000 C 
ATOM     14  C   UNL     1       6.499   5.812  18.205  0.00  0.00    +0.000 C 
ATOM     15  C   UNL     1       7.502   4.736  17.731  0.00  0.00    +0.000 C 
ATOM     16  C   UNL     1       7.263   4.391  16.260  0.00  0.00    +0.000 C 
BRANCH  11  18
ATOM     17  C   UNL     1       7.947   5.166  12.893  0.00  0.00    +0.000 C 
ATOM     18  C   UNL     1       6.852   5.138  13.978  0.00  0.00    +0.000 C 
ATOM     19  C   UNL     1       6.185   3.757  13.972  0.00  0.00    +0.000 C 
ENDBRANCH  11  18
ENDBRANCH   1  14
BRANCH   2  20
ATOM     20  C   UNL     1       3.180   3.714  17.675  0.00  0.00    +0.000 C 
BRANCH  20  21
ATOM     21  C   UNL     1       2.435   3.317  18.935  0.00  0.00    +0.000 A 
ATOM     22  C   UNL     1       3.176   2.806  20.018  0.00  0.00    +0.000 A 
ATOM     23  C   UNL     1       2.566   2.519  21.241  0.00  0.00    +0.000 A 
ATOM     24  C   UNL     1       1.204   2.742  21.405  0.00  0.00    +0.000 A 
ATOM     25  C   UNL     1       0.452   3.250  20.347  0.00  0.00    +0.000 A 
ATOM     26  C   UNL     1       1.066   3.545  19.122  0.00  0.00    +0.000 A 
ENDBRANCH  20  21
ENDBRANCH   2  20
TORSDOF 5
ENDMDL
MODEL 9
REMARK VINA RESULT:      -5.9      5.408     10.256
REMARK  Name = 
REMARK  7 active torsions:
REMARK  status: ('A' for Active; 'I' for Inactive)
REMARK    1  A    between atoms: C_1  and  C_2
REMARK    2  A    between atoms: C_2  and  C_3
REMARK    3  A    between atoms: C_2  and  N_4
REMARK    4  A    between atoms: C_7  and  N_8
REMARK    5  A    between atoms: N_8  and  C_18
REMARK    6  A    between atoms: C_9  and  C_11
REMARK    7  A    between atoms: C_11  and  C_12
REMARK                            x       y       z     vdW  Elec       q    Type
REMARK                         _______ _______ _______ _____ _____    ______ ____
ROOT
ATOM      1  N   UNL     1      -0.057  12.755  19.933  0.00  0.00    +0.000 N 
ATOM      2  C   UNL     1       0.726  11.817  20.633  0.00  0.00    +0.000 C 
ATOM      3  O   UNL     1       1.831  12.085  21.111  0.00  0.00    +0.000 OA
ENDROOT
BRANCH   1   4
ATOM      4  C   UNL     1      -1.285  12.338  19.346  0.00  0.00    +0.000 A 
ATOM      5  C   UNL     1      -1.284  11.945  18.003  0.00  0.00    +0.000 A 
ATOM      6  C   UNL     1      -2.473  11.590  17.372  0.00  0.00    +0.000 A 
ATOM      7  C   UNL     1      -3.672  11.652  18.078  0.00  0.00    +0.000 A 
ATOM      8 CL   UNL     1      -5.145  11.269  17.278  0.00  0.00    +0.000 Cl
ATOM      9  C   UNL     1      -3.684  12.043  19.418  0.00  0.00    +0.000 A 
ATOM     10  C   UNL     1      -2.486  12.370  20.064  0.00  0.00    +0.000 A 
ENDBRANCH   1   4
BRANCH   1  14
ATOM     11  N   UNL     1      -0.323  15.747  21.978  0.00  0.00    +0.000 NA
ATOM     12  C   UNL     1       0.932  14.991  21.913  0.00  0.00    +0.000 C 
ATOM     13  C   UNL     1       1.474  14.782  20.495  0.00  0.00    +0.000 C 
ATOM     14  C   UNL     1       0.419  14.144  19.576  0.00  0.00    +0.000 C 
ATOM     15  C   UNL     1      -0.720  15.189  19.544  0.00  0.00    +0.000 C 
ATOM     16  C   UNL     1      -1.304  15.389  20.943  0.00  0.00    +0.000 C 
BRANCH  11  18
ATOM     17  C   UNL     1      -2.164  16.651  23.517  0.00  0.00    +0.000 C 
ATOM     18  C   UNL     1      -0.946  15.725  23.329  0.00  0.00    +0.000 C 
ATOM     19  C   UNL     1      -1.332  14.304  23.760  0.00  0.00    +0.000 C 
ENDBRANCH  11  18
ENDBRANCH   1  14
BRANCH   2  20
ATOM     20  C   UNL     1       0.220  10.374  20.778  0.00  0.00    +0.000 C 
BRANCH  20  21
ATOM     21  C   UNL     1       0.950   9.296  20.000  0.00  0.00    +0.000 A 
ATOM     22  C   UNL     1       1.230   9.526  18.639  0.00  0.00    +0.000 A 
ATOM     23  C   UNL     1       1.987   8.621  17.893  0.00  0.00    +0.000 A 
ATOM     24  C   UNL     1       2.486   7.471  18.496  0.00  0.00    +0.000 A 
ATOM     25  C   UNL     1       2.223   7.226  19.843  0.00  0.00    +0.000 A 
ATOM     26  C   UNL     1       1.469   8.138  20.593  0.00  0.00    +0.000 A 
ENDBRANCH  20  21
ENDBRANCH   2  20
TORSDOF 5
ENDMDL
