MODEL 1
REMARK VINA RESULT:      -7.9      0.000      0.000
REMARK  Name = 
REMARK  11 active torsions:
REMARK  status: ('A' for Active; 'I' for Inactive)
REMARK    1  A    between atoms: C_1  and  C_2
REMARK    2  A    between atoms: C_2  and  C_3
REMARK    3  A    between atoms: C_4  and  C_5
REMARK    4  A    between atoms: C_5  and  C_7
REMARK    5  A    between atoms: C_11  and  O_12
REMARK    6  A    between atoms: O_12  and  C_13
REMARK    7  A    between atoms: C_13  and  C_14
REMARK    8  A    between atoms: C_14  and  O_16
REMARK    9  A    between atoms: C_21  and  C_22
REMARK   10  A    between atoms: C_22  and  C_23
REMARK   11  A    between atoms: C_28  and  N_29
REMARK                            x       y       z     vdW  Elec       q    Type
REMARK                         _______ _______ _______ _____ _____    ______ ____
ROOT
ATOM      1  C   UNL     1       4.838   4.440  16.622  0.00  0.00    +0.000 A 
ATOM      2  C   UNL     1       3.722   4.201  17.511  0.00  0.00    +0.000 A 
ATOM      3  C   UNL     1       3.276   5.452  17.952  0.00  0.00    +0.000 A 
ATOM      4  C   UNL     1       2.278   5.940  18.881  0.00  0.00    +0.000 A 
ATOM      5  C   UNL     1       2.073   7.271  18.995  0.00  0.00    +0.000 A 
ATOM      6  C   UNL     1       2.819   8.237  18.220  0.00  0.00    +0.000 A 
ATOM      7  C   UNL     1       3.794   7.798  17.417  0.00  0.00    +0.000 A 
ATOM      8  N   UNL     1       4.045   6.429  17.305  0.00  0.00    +0.000 N 
ATOM      9  C   UNL     1       5.065   5.809  16.610  0.00  0.00    +0.000 A 
ENDROOT
BRANCH   1  11
ATOM     10  C   UNL     1       5.691   3.789  14.361  0.00  0.00    +0.000 C 
ATOM     11  C   UNL     1       5.655   3.445  15.844  0.00  0.00    +0.000 C 
ENDBRANCH   1  11
BRANCH   2  12
ATOM     12  C   UNL     1       3.151   2.900  17.883  0.00  0.00    +0.000 C 
ATOM     13  O   UNL     1       2.067   2.493  17.464  0.00  0.00    +0.000 OA
BRANCH  12  14
ATOM     14  C   UNL     1       3.952   1.937  18.772  0.00  0.00    +0.000 C 
ATOM     15  N   UNL     1       3.930   0.615  18.393  0.00  0.00    +0.000 N 
ATOM     16  O   UNL     1       4.584   2.336  19.738  0.00  0.00    +0.000 OA
ATOM     17  H   UNL     1       3.391   0.288  17.603  0.00  0.00    +0.000 HD
ATOM     18  H   UNL     1       4.441  -0.054  18.953  0.00  0.00    +0.000 HD
ENDBRANCH  12  14
ENDBRANCH   2  12
BRANCH   4  19
ATOM     19  O   UNL     1       1.639   4.972  19.626  0.00  0.00    +0.000 OA
BRANCH  19  20
ATOM     20  C   UNL     1       2.170   4.683  20.921  0.00  0.00    +0.000 C 
BRANCH  20  21
ATOM     21  C   UNL     1       1.812   3.315  21.491  0.00  0.00    +0.000 C 
ATOM     22  O   UNL     1       2.511   2.704  22.288  0.00  0.00    +0.000 OA
BRANCH  21  23
ATOM     23  O   UNL     1       0.650   2.819  21.007  0.00  0.00    +0.000 OA
ATOM     24  H   UNL     1      -0.090   3.442  21.173  0.00  0.00    +0.000 HD
ENDBRANCH  21  23
ENDBRANCH  20  21
ENDBRANCH  19  20
ENDBRANCH   4  19
BRANCH   9  25
ATOM     25  C   UNL     1       6.242   6.555  16.024  0.00  0.00    +0.000 C 
BRANCH  25  26
ATOM     26  C   UNL     1       7.125   7.234  17.067  0.00  0.00    +0.000 A 
ATOM     27  C   UNL     1       7.340   8.626  17.065  0.00  0.00    +0.000 A 
ATOM     28  C   UNL     1       8.091   9.256  18.063  0.00  0.00    +0.000 A 
ATOM     29  C   UNL     1       8.667   8.511  19.087  0.00  0.00    +0.000 A 
ATOM     30  C   UNL     1       8.503   7.129  19.108  0.00  0.00    +0.000 A 
ATOM     31  C   UNL     1       7.745   6.506  18.102  0.00  0.00    +0.000 A 
BRANCH  31  32
ATOM     32  N   UNL     1       7.619   5.057  18.180  0.00  0.00    +0.000 N 
ATOM     33  O   UNL     1       8.237   4.388  17.342  0.00  0.00    +0.000 OA
ATOM     34  O   UNL     1       6.913   4.600  19.088  0.00  0.00    +0.000 OA
ENDBRANCH  31  32
ENDBRANCH  25  26
ENDBRANCH   9  25
TORSDOF 10
ENDMDL
MODEL 2
REMARK VINA RESULT:      -7.4      9.055     11.586
REMARK  Name = 
REMARK  11 active torsions:
REMARK  status: ('A' for Active; 'I' for Inactive)
REMARK    1  A    between atoms: C_1  and  C_2
REMARK    2  A    between atoms: C_2  and  C_3
REMARK    3  A    between atoms: C_4  and  C_5
REMARK    4  A    between atoms: C_5  and  C_7
REMARK    5  A    between atoms: C_11  and  O_12
REMARK    6  A    between atoms: O_12  and  C_13
REMARK    7  A    between atoms: C_13  and  C_14
REMARK    8  A    between atoms: C_14  and  O_16
REMARK    9  A    between atoms: C_21  and  C_22
REMARK   10  A    between atoms: C_22  and  C_23
REMARK   11  A    between atoms: C_28  and  N_29
REMARK                            x       y       z     vdW  Elec       q    Type
REMARK                         _______ _______ _______ _____ _____    ______ ____
ROOT
ATOM      1  C   UNL     1      -3.789  11.811  19.083  0.00  0.00    +0.000 A 
ATOM      2  C   UNL     1      -5.123  12.123  19.547  0.00  0.00    +0.000 A 
ATOM      3  C   UNL     1      -5.000  13.165  20.474  0.00  0.00    +0.000 A 
ATOM      4  C   UNL     1      -5.890  13.896  21.351  0.00  0.00    +0.000 A 
ATOM      5  C   UNL     1      -5.406  14.929  22.076  0.00  0.00    +0.000 A 
ATOM      6  C   UNL     1      -4.020  15.337  22.010  0.00  0.00    +0.000 A 
ATOM      7  C   UNL     1      -3.177  14.619  21.262  0.00  0.00    +0.000 A 
ATOM      8  N   UNL     1      -3.647  13.528  20.527  0.00  0.00    +0.000 N 
ATOM      9  C   UNL     1      -2.910  12.623  19.787  0.00  0.00    +0.000 A 
ENDROOT
BRANCH   1  11
ATOM     10  C   UNL     1      -3.869  11.164  16.667  0.00  0.00    +0.000 C 
ATOM     11  C   UNL     1      -3.358  10.802  18.055  0.00  0.00    +0.000 C 
ENDBRANCH   1  11
BRANCH   2  12
ATOM     12  C   UNL     1      -6.376  11.482  19.129  0.00  0.00    +0.000 C 
ATOM     13  O   UNL     1      -7.049  11.872  18.175  0.00  0.00    +0.000 OA
BRANCH  12  14
ATOM     14  C   UNL     1      -6.863  10.212  19.843  0.00  0.00    +0.000 C 
ATOM     15  N   UNL     1      -7.414  10.401  21.089  0.00  0.00    +0.000 N 
ATOM     16  O   UNL     1      -6.784   9.113  19.317  0.00  0.00    +0.000 OA
ATOM     17  H   UNL     1      -7.461  11.311  21.527  0.00  0.00    +0.000 HD
ATOM     18  H   UNL     1      -7.744   9.591  21.597  0.00  0.00    +0.000 HD
ENDBRANCH  12  14
ENDBRANCH   2  12
BRANCH   4  19
ATOM     19  O   UNL     1      -7.185  13.426  21.406  0.00  0.00    +0.000 OA
BRANCH  19  20
ATOM     20  C   UNL     1      -7.917  13.657  22.611  0.00  0.00    +0.000 C 
BRANCH  20  21
ATOM     21  C   UNL     1      -7.463  12.851  23.823  0.00  0.00    +0.000 C 
ATOM     22  O   UNL     1      -7.361  11.632  23.832  0.00  0.00    +0.000 OA
BRANCH  21  23
ATOM     23  O   UNL     1      -7.206  13.616  24.910  0.00  0.00    +0.000 OA
ATOM     24  H   UNL     1      -7.607  14.506  24.812  0.00  0.00    +0.000 HD
ENDBRANCH  21  23
ENDBRANCH  20  21
ENDBRANCH  19  20
ENDBRANCH   4  19
BRANCH   9  25
ATOM     25  C   UNL     1      -1.402  12.541  19.843  0.00  0.00    +0.000 C 
BRANCH  25  26
ATOM     26  C   UNL     1      -0.876  11.471  20.797  0.00  0.00    +0.000 A 
ATOM     27  C   UNL     1      -1.277  11.417  22.146  0.00  0.00    +0.000 A 
ATOM     28  C   UNL     1      -0.850  10.395  23.000  0.00  0.00    +0.000 A 
ATOM     29  C   UNL     1       0.006   9.401  22.536  0.00  0.00    +0.000 A 
ATOM     30  C   UNL     1       0.449   9.435  21.218  0.00  0.00    +0.000 A 
ATOM     31  C   UNL     1       0.013  10.465  20.367  0.00  0.00    +0.000 A 
BRANCH  31  32
ATOM     32  N   UNL     1       0.520  10.445  19.002  0.00  0.00    +0.000 N 
ATOM     33  O   UNL     1       1.488  11.173  18.745  0.00  0.00    +0.000 OA
ATOM     34  O   UNL     1      -0.047   9.692  18.200  0.00  0.00    +0.000 OA
ENDBRANCH  31  32
ENDBRANCH  25  26
ENDBRANCH   9  25
TORSDOF 10
ENDMDL
MODEL 3
REMARK VINA RESULT:      -7.3      7.965     11.813
REMARK  Name = 
REMARK  11 active torsions:
REMARK  status: ('A' for Active; 'I' for Inactive)
REMARK    1  A    between atoms: C_1  and  C_2
REMARK    2  A    between atoms: C_2  and  C_3
REMARK    3  A    between atoms: C_4  and  C_5
REMARK    4  A    between atoms: C_5  and  C_7
REMARK    5  A    between atoms: C_11  and  O_12
REMARK    6  A    between atoms: O_12  and  C_13
REMARK    7  A    between atoms: C_13  and  C_14
REMARK    8  A    between atoms: C_14  and  O_16
REMARK    9  A    between atoms: C_21  and  C_22
REMARK   10  A    between atoms: C_22  and  C_23
REMARK   11  A    between atoms: C_28  and  N_29
REMARK                            x       y       z     vdW  Elec       q    Type
REMARK                         _______ _______ _______ _____ _____    ______ ____
ROOT
ATOM      1  C   UNL     1      -2.571  12.528  20.955  0.00  0.00    +0.000 A 
ATOM      2  C   UNL     1      -1.456  11.681  20.594  0.00  0.00    +0.000 A 
ATOM      3  C   UNL     1      -1.700  11.214  19.297  0.00  0.00    +0.000 A 
ATOM      4  C   UNL     1      -1.059  10.300  18.375  0.00  0.00    +0.000 A 
ATOM      5  C   UNL     1      -1.565  10.149  17.131  0.00  0.00    +0.000 A 
ATOM      6  C   UNL     1      -2.733  10.872  16.679  0.00  0.00    +0.000 A 
ATOM      7  C   UNL     1      -3.374  11.659  17.549  0.00  0.00    +0.000 A 
ATOM      8  N   UNL     1      -2.889  11.807  18.850  0.00  0.00    +0.000 N 
ATOM      9  C   UNL     1      -3.472  12.491  19.899  0.00  0.00    +0.000 A 
ENDROOT
BRANCH   1  11
ATOM     10  C   UNL     1      -3.145  12.406  23.388  0.00  0.00    +0.000 C 
ATOM     11  C   UNL     1      -2.790  13.314  22.218  0.00  0.00    +0.000 C 
ENDBRANCH   1  11
BRANCH   2  12
ATOM     12  C   UNL     1      -0.281  11.368  21.418  0.00  0.00    +0.000 C 
ATOM     13  O   UNL     1       0.720  12.083  21.468  0.00  0.00    +0.000 OA
BRANCH  12  14
ATOM     14  C   UNL     1      -0.295  10.137  22.337  0.00  0.00    +0.000 C 
ATOM     15  N   UNL     1      -0.268   8.917  21.702  0.00  0.00    +0.000 N 
ATOM     16  O   UNL     1      -0.305  10.248  23.553  0.00  0.00    +0.000 OA
ATOM     17  H   UNL     1      -0.278   8.831  20.695  0.00  0.00    +0.000 HD
ATOM     18  H   UNL     1      -0.280   8.080  22.269  0.00  0.00    +0.000 HD
ENDBRANCH  12  14
ENDBRANCH   2  12
BRANCH   4  19
ATOM     19  O   UNL     1       0.018   9.605  18.884  0.00  0.00    +0.000 OA
BRANCH  19  20
ATOM     20  C   UNL     1       1.167   9.471  18.046  0.00  0.00    +0.000 C 
BRANCH  20  21
ATOM     21  C   UNL     1       2.149   8.373  18.444  0.00  0.00    +0.000 C 
ATOM     22  O   UNL     1       3.014   7.930  17.701  0.00  0.00    +0.000 OA
BRANCH  21  23
ATOM     23  O   UNL     1       1.956   7.911  19.701  0.00  0.00    +0.000 OA
ATOM     24  H   UNL     1       1.695   6.965  19.688  0.00  0.00    +0.000 HD
ENDBRANCH  21  23
ENDBRANCH  20  21
ENDBRANCH  19  20
ENDBRANCH   4  19
BRANCH   9  25
ATOM     25  C   UNL     1      -4.887  13.018  19.860  0.00  0.00    +0.000 C 
BRANCH  25  26
ATOM     26  C   UNL     1      -5.950  11.959  20.140  0.00  0.00    +0.000 A 
ATOM     27  C   UNL     1      -6.021  10.763  19.397  0.00  0.00    +0.000 A 
ATOM     28  C   UNL     1      -6.949   9.763  19.702  0.00  0.00    +0.000 A 
ATOM     29  C   UNL     1      -7.849   9.931  20.749  0.00  0.00    +0.000 A 
ATOM     30  C   UNL     1      -7.832  11.110  21.488  0.00  0.00    +0.000 A 
ATOM     31  C   UNL     1      -6.894  12.110  21.176  0.00  0.00    +0.000 A 
BRANCH  31  32
ATOM     32  N   UNL     1      -6.934  13.320  21.984  0.00  0.00    +0.000 N 
ATOM     33  O   UNL     1      -6.401  13.276  23.100  0.00  0.00    +0.000 OA
ATOM     34  O   UNL     1      -7.488  14.310  21.489  0.00  0.00    +0.000 OA
ENDBRANCH  31  32
ENDBRANCH  25  26
ENDBRANCH   9  25
TORSDOF 10
ENDMDL
MODEL 4
REMARK VINA RESULT:      -7.2      7.230     10.123
REMARK  Name = 
REMARK  11 active torsions:
REMARK  status: ('A' for Active; 'I' for Inactive)
REMARK    1  A    between atoms: C_1  and  C_2
REMARK    2  A    between atoms: C_2  and  C_3
REMARK    3  A    between atoms: C_4  and  C_5
REMARK    4  A    between atoms: C_5  and  C_7
REMARK    5  A    between atoms: C_11  and  O_12
REMARK    6  A    between atoms: O_12  and  C_13
REMARK    7  A    between atoms: C_13  and  C_14
REMARK    8  A    between atoms: C_14  and  O_16
REMARK    9  A    between atoms: C_21  and  C_22
REMARK   10  A    between atoms: C_22  and  C_23
REMARK   11  A    between atoms: C_28  and  N_29
REMARK                            x       y       z     vdW  Elec       q    Type
REMARK                         _______ _______ _______ _____ _____    ______ ____
ROOT
ATOM      1  C   UNL     1      -1.227  12.440  20.490  0.00  0.00    +0.000 A 
ATOM      2  C   UNL     1      -2.642  12.487  20.194  0.00  0.00    +0.000 A 
ATOM      3  C   UNL     1      -2.847  11.704  19.052  0.00  0.00    +0.000 A 
ATOM      4  C   UNL     1      -3.966  11.378  18.193  0.00  0.00    +0.000 A 
ATOM      5  C   UNL     1      -3.793  10.492  17.186  0.00  0.00    +0.000 A 
ATOM      6  C   UNL     1      -2.522   9.850  16.931  0.00  0.00    +0.000 A 
ATOM      7  C   UNL     1      -1.467  10.204  17.672  0.00  0.00    +0.000 A 
ATOM      8  N   UNL     1      -1.613  11.140  18.698  0.00  0.00    +0.000 N 
ATOM      9  C   UNL     1      -0.624  11.692  19.488  0.00  0.00    +0.000 A 
ENDROOT
BRANCH   1  11
ATOM     10  C   UNL     1      -0.227  14.553  21.385  0.00  0.00    +0.000 C 
ATOM     11  C   UNL     1      -0.480  13.072  21.632  0.00  0.00    +0.000 C 
ENDBRANCH   1  11
BRANCH   2  12
ATOM     12  C   UNL     1      -3.679  13.208  20.944  0.00  0.00    +0.000 C 
ATOM     13  O   UNL     1      -4.152  14.284  20.579  0.00  0.00    +0.000 OA
BRANCH  12  14
ATOM     14  C   UNL     1      -4.285  12.582  22.210  0.00  0.00    +0.000 C 
ATOM     15  N   UNL     1      -5.659  12.560  22.266  0.00  0.00    +0.000 N 
ATOM     16  O   UNL     1      -3.580  12.114  23.090  0.00  0.00    +0.000 OA
ATOM     17  H   UNL     1      -6.236  12.965  21.542  0.00  0.00    +0.000 HD
ATOM     18  H   UNL     1      -6.099  12.161  23.084  0.00  0.00    +0.000 HD
ENDBRANCH  12  14
ENDBRANCH   2  12
BRANCH   4  19
ATOM     19  O   UNL     1      -5.133  12.061  18.457  0.00  0.00    +0.000 OA
BRANCH  19  20
ATOM     20  C   UNL     1      -6.363  11.403  18.149  0.00  0.00    +0.000 C 
BRANCH  20  21
ATOM     21  C   UNL     1      -6.960  10.560  19.271  0.00  0.00    +0.000 C 
ATOM     22  O   UNL     1      -7.034  10.929  20.436  0.00  0.00    +0.000 OA
BRANCH  21  23
ATOM     23  O   UNL     1      -7.380   9.341  18.861  0.00  0.00    +0.000 OA
ATOM     24  H   UNL     1      -8.117   9.019  19.425  0.00  0.00    +0.000 HD
ENDBRANCH  21  23
ENDBRANCH  20  21
ENDBRANCH  19  20
ENDBRANCH   4  19
BRANCH   9  25
ATOM     25  C   UNL     1       0.851  11.527  19.206  0.00  0.00    +0.000 C 
BRANCH  25  26
ATOM     26  C   UNL     1       1.299  10.073  19.083  0.00  0.00    +0.000 A 
ATOM     27  C   UNL     1       1.829   9.558  17.883  0.00  0.00    +0.000 A 
ATOM     28  C   UNL     1       2.305   8.246  17.793  0.00  0.00    +0.000 A 
ATOM     29  C   UNL     1       2.251   7.399  18.895  0.00  0.00    +0.000 A 
ATOM     30  C   UNL     1       1.708   7.861  20.090  0.00  0.00    +0.000 A 
ATOM     31  C   UNL     1       1.234   9.181  20.172  0.00  0.00    +0.000 A 
BRANCH  31  32
ATOM     32  N   UNL     1       0.671   9.597  21.449  0.00  0.00    +0.000 N 
ATOM     33  O   UNL     1      -0.497   9.264  21.691  0.00  0.00    +0.000 OA
ATOM     34  O   UNL     1       1.408  10.242  22.207  0.00  0.00    +0.000 OA
ENDBRANCH  31  32
ENDBRANCH  25  26
ENDBRANCH   9  25
TORSDOF 10
ENDMDL
MODEL 5
REMARK VINA RESULT:      -7.2      2.298      3.333
REMARK  Name = 
REMARK  11 active torsions:
REMARK  status: ('A' for Active; 'I' for Inactive)
REMARK    1  A    between atoms: C_1  and  C_2
REMARK    2  A    between atoms: C_2  and  C_3
REMARK    3  A    between atoms: C_4  and  C_5
REMARK    4  A    between atoms: C_5  and  C_7
REMARK    5  A    between atoms: C_11  and  O_12
REMARK    6  A    between atoms: O_12  and  C_13
REMARK    7  A    between atoms: C_13  and  C_14
REMARK    8  A    between atoms: C_14  and  O_16
REMARK    9  A    between atoms: C_21  and  C_22
REMARK   10  A    between atoms: C_22  and  C_23
REMARK   11  A    between atoms: C_28  and  N_29
REMARK                            x       y       z     vdW  Elec       q    Type
REMARK                         _______ _______ _______ _____ _____    ______ ____
ROOT
ATOM      1  C   UNL     1       3.963   4.897  18.805  0.00  0.00    +0.000 A 
ATOM      2  C   UNL     1       2.918   5.389  19.676  0.00  0.00    +0.000 A 
ATOM      3  C   UNL     1       2.622   6.694  19.263  0.00  0.00    +0.000 A 
ATOM      4  C   UNL     1       1.760   7.764  19.717  0.00  0.00    +0.000 A 
ATOM      5  C   UNL     1       1.680   8.903  18.992  0.00  0.00    +0.000 A 
ATOM      6  C   UNL     1       2.430   9.096  17.771  0.00  0.00    +0.000 A 
ATOM      7  C   UNL     1       3.285   8.143  17.388  0.00  0.00    +0.000 A 
ATOM      8  N   UNL     1       3.409   6.970  18.136  0.00  0.00    +0.000 N 
ATOM      9  C   UNL     1       4.304   5.935  17.948  0.00  0.00    +0.000 A 
ENDROOT
BRANCH   1  11
ATOM     10  C   UNL     1       3.814   2.545  17.963  0.00  0.00    +0.000 C 
ATOM     11  C   UNL     1       4.617   3.543  18.785  0.00  0.00    +0.000 C 
ENDBRANCH   1  11
BRANCH   2  12
ATOM     12  C   UNL     1       2.275   4.665  20.780  0.00  0.00    +0.000 C 
ATOM     13  O   UNL     1       2.495   4.910  21.967  0.00  0.00    +0.000 OA
BRANCH  12  14
ATOM     14  C   UNL     1       1.212   3.597  20.482  0.00  0.00    +0.000 C 
ATOM     15  N   UNL     1       0.956   2.709  21.501  0.00  0.00    +0.000 N 
ATOM     16  O   UNL     1       0.622   3.565  19.414  0.00  0.00    +0.000 OA
ATOM     17  H   UNL     1       1.460   2.730  22.377  0.00  0.00    +0.000 HD
ATOM     18  H   UNL     1       0.265   1.987  21.345  0.00  0.00    +0.000 HD
ENDBRANCH  12  14
ENDBRANCH   2  12
BRANCH   4  19
ATOM     19  O   UNL     1       1.113   7.537  20.912  0.00  0.00    +0.000 OA
BRANCH  19  20
ATOM     20  C   UNL     1       1.387   8.437  21.988  0.00  0.00    +0.000 C 
BRANCH  20  21
ATOM     21  C   UNL     1       0.250   9.382  22.363  0.00  0.00    +0.000 C 
ATOM     22  O   UNL     1      -0.563   9.824  21.562  0.00  0.00    +0.000 OA
BRANCH  21  23
ATOM     23  O   UNL     1       0.238   9.713  23.675  0.00  0.00    +0.000 OA
ATOM     24  H   UNL     1       1.150   9.732  24.038  0.00  0.00    +0.000 HD
ENDBRANCH  21  23
ENDBRANCH  20  21
ENDBRANCH  19  20
ENDBRANCH   4  19
BRANCH   9  25
ATOM     25  C   UNL     1       5.480   6.018  17.003  0.00  0.00    +0.000 C 
BRANCH  25  26
ATOM     26  C   UNL     1       6.568   6.988  17.453  0.00  0.00    +0.000 A 
ATOM     27  C   UNL     1       6.623   8.315  16.982  0.00  0.00    +0.000 A 
ATOM     28  C   UNL     1       7.578   9.223  17.450  0.00  0.00    +0.000 A 
ATOM     29  C   UNL     1       8.521   8.830  18.393  0.00  0.00    +0.000 A 
ATOM     30  C   UNL     1       8.520   7.520  18.863  0.00  0.00    +0.000 A 
ATOM     31  C   UNL     1       7.556   6.615  18.388  0.00  0.00    +0.000 A 
BRANCH  31  32
ATOM     32  N   UNL     1       7.615   5.259  18.915  0.00  0.00    +0.000 N 
ATOM     33  O   UNL     1       7.317   5.099  20.106  0.00  0.00    +0.000 OA
ATOM     34  O   UNL     1       7.947   4.362  18.129  0.00  0.00    +0.000 OA
ENDBRANCH  31  32
ENDBRANCH  25  26
ENDBRANCH   9  25
TORSDOF 10
ENDMDL
MODEL 6
REMARK VINA RESULT:      -7.2      2.615      4.050
REMARK  Name = 
REMARK  11 active torsions:
REMARK  status: ('A' for Active; 'I' for Inactive)
REMARK    1  A    between atoms: C_1  and  C_2
REMARK    2  A    between atoms: C_2  and  C_3
REMARK    3  A    between atoms: C_4  and  C_5
REMARK    4  A    between atoms: C_5  and  C_7
REMARK    5  A    between atoms: C_11  and  O_12
REMARK    6  A    between atoms: O_12  and  C_13
REMARK    7  A    between atoms: C_13  and  C_14
REMARK    8  A    between atoms: C_14  and  O_16
REMARK    9  A    between atoms: C_21  and  C_22
REMARK   10  A    between atoms: C_22  and  C_23
REMARK   11  A    between atoms: C_28  and  N_29
REMARK                            x       y       z     vdW  Elec       q    Type
REMARK                         _______ _______ _______ _____ _____    ______ ____
ROOT
ATOM      1  C   UNL     1       3.536   5.773  18.268  0.00  0.00    +0.000 A 
ATOM      2  C   UNL     1       2.571   5.998  19.322  0.00  0.00    +0.000 A 
ATOM      3  C   UNL     1       2.139   7.325  19.205  0.00  0.00    +0.000 A 
ATOM      4  C   UNL     1       1.265   8.210  19.945  0.00  0.00    +0.000 A 
ATOM      5  C   UNL     1       1.023   9.452  19.469  0.00  0.00    +0.000 A 
ATOM      6  C   UNL     1       1.607   9.936  18.239  0.00  0.00    +0.000 A 
ATOM      7  C   UNL     1       2.474   9.152  17.591  0.00  0.00    +0.000 A 
ATOM      8  N   UNL     1       2.766   7.876  18.078  0.00  0.00    +0.000 N 
ATOM      9  C   UNL     1       3.701   6.979  17.600  0.00  0.00    +0.000 A 
ENDROOT
BRANCH   1  11
ATOM     10  C   UNL     1       5.060   3.973  19.105  0.00  0.00    +0.000 C 
ATOM     11  C   UNL     1       4.275   4.511  17.917  0.00  0.00    +0.000 C 
ENDBRANCH   1  11
BRANCH   2  12
ATOM     12  C   UNL     1       2.115   5.026  20.324  0.00  0.00    +0.000 C 
ATOM     13  O   UNL     1       2.373   5.123  21.525  0.00  0.00    +0.000 OA
BRANCH  12  14
ATOM     14  C   UNL     1       1.204   3.862  19.906  0.00  0.00    +0.000 C 
ATOM     15  N   UNL     1       0.770   3.048  20.925  0.00  0.00    +0.000 N 
ATOM     16  O   UNL     1       0.874   3.697  18.742  0.00  0.00    +0.000 OA
ATOM     17  H   UNL     1       1.060   3.180  21.884  0.00  0.00    +0.000 HD
ATOM     18  H   UNL     1       0.171   2.266  20.694  0.00  0.00    +0.000 HD
ENDBRANCH  12  14
ENDBRANCH   2  12
BRANCH   4  19
ATOM     19  O   UNL     1       0.782   7.707  21.134  0.00  0.00    +0.000 OA
BRANCH  19  20
ATOM     20  C   UNL     1      -0.099   8.540  21.890  0.00  0.00    +0.000 C 
BRANCH  20  21
ATOM     21  C   UNL     1       0.559   9.377  22.982  0.00  0.00    +0.000 C 
ATOM     22  O   UNL     1      -0.063  10.025  23.812  0.00  0.00    +0.000 OA
BRANCH  21  23
ATOM     23  O   UNL     1       1.911   9.357  22.931  0.00  0.00    +0.000 OA
ATOM     24  H   UNL     1       2.294   9.369  23.835  0.00  0.00    +0.000 HD
ENDBRANCH  21  23
ENDBRANCH  20  21
ENDBRANCH  19  20
ENDBRANCH   4  19
BRANCH   9  25
ATOM     25  C   UNL     1       4.748   7.342  16.573  0.00  0.00    +0.000 C 
BRANCH  25  26
ATOM     26  C   UNL     1       5.492   6.140  15.997  0.00  0.00    +0.000 A 
ATOM     27  C   UNL     1       4.914   5.308  15.017  0.00  0.00    +0.000 A 
ATOM     28  C   UNL     1       5.624   4.251  14.438  0.00  0.00    +0.000 A 
ATOM     29  C   UNL     1       6.930   3.979  14.833  0.00  0.00    +0.000 A 
ATOM     30  C   UNL     1       7.526   4.759  15.819  0.00  0.00    +0.000 A 
ATOM     31  C   UNL     1       6.806   5.820  16.394  0.00  0.00    +0.000 A 
BRANCH  31  32
ATOM     32  N   UNL     1       7.487   6.591  17.425  0.00  0.00    +0.000 N 
ATOM     33  O   UNL     1       7.666   6.041  18.519  0.00  0.00    +0.000 OA
ATOM     34  O   UNL     1       7.848   7.737  17.127  0.00  0.00    +0.000 OA
ENDBRANCH  31  32
ENDBRANCH  25  26
ENDBRANCH   9  25
TORSDOF 10
ENDMDL
MODEL 7
REMARK VINA RESULT:      -7.0      2.731      5.606
REMARK  Name = 
REMARK  11 active torsions:
REMARK  status: ('A' for Active; 'I' for Inactive)
REMARK    1  A    between atoms: C_1  and  C_2
REMARK    2  A    between atoms: C_2  and  C_3
REMARK    3  A    between atoms: C_4  and  C_5
REMARK    4  A    between atoms: C_5  and  C_7
REMARK    5  A    between atoms: C_11  and  O_12
REMARK    6  A    between atoms: O_12  and  C_13
REMARK    7  A    between atoms: C_13  and  C_14
REMARK    8  A    between atoms: C_14  and  O_16
REMARK    9  A    between atoms: C_21  and  C_22
REMARK   10  A    between atoms: C_22  and  C_23
REMARK   11  A    between atoms: C_28  and  N_29
REMARK                            x       y       z     vdW  Elec       q    Type
REMARK                         _______ _______ _______ _____ _____    ______ ____
ROOT
ATOM      1  C   UNL     1       4.027   6.176  18.181  0.00  0.00    +0.000 A 
ATOM      2  C   UNL     1       4.691   5.026  18.754  0.00  0.00    +0.000 A 
ATOM      3  C   UNL     1       3.694   4.210  19.302  0.00  0.00    +0.000 A 
ATOM      4  C   UNL     1       3.650   2.982  20.067  0.00  0.00    +0.000 A 
ATOM      5  C   UNL     1       2.452   2.431  20.367  0.00  0.00    +0.000 A 
ATOM      6  C   UNL     1       1.202   3.025  19.951  0.00  0.00    +0.000 A 
ATOM      7  C   UNL     1       1.233   4.199  19.311  0.00  0.00    +0.000 A 
ATOM      8  N   UNL     1       2.456   4.804  19.016  0.00  0.00    +0.000 N 
ATOM      9  C   UNL     1       2.673   6.049  18.458  0.00  0.00    +0.000 A 
ENDROOT
BRANCH   1  11
ATOM     10  C   UNL     1       4.926   6.973  15.985  0.00  0.00    +0.000 C 
ATOM     11  C   UNL     1       4.626   7.336  17.432  0.00  0.00    +0.000 C 
ENDBRANCH   1  11
BRANCH   2  12
ATOM     12  C   UNL     1       6.133   4.750  18.760  0.00  0.00    +0.000 C 
ATOM     13  O   UNL     1       6.838   4.862  19.763  0.00  0.00    +0.000 OA
BRANCH  12  14
ATOM     14  C   UNL     1       6.817   4.217  17.492  0.00  0.00    +0.000 C 
ATOM     15  N   UNL     1       5.993   3.588  16.588  0.00  0.00    +0.000 N 
ATOM     16  O   UNL     1       8.013   4.372  17.298  0.00  0.00    +0.000 OA
ATOM     17  H   UNL     1       5.007   3.447  16.761  0.00  0.00    +0.000 HD
ATOM     18  H   UNL     1       6.403   3.218  15.741  0.00  0.00    +0.000 HD
ENDBRANCH  12  14
ENDBRANCH   2  12
BRANCH   4  19
ATOM     19  O   UNL     1       4.873   2.495  20.476  0.00  0.00    +0.000 OA
BRANCH  19  20
ATOM     20  C   UNL     1       5.118   1.099  20.294  0.00  0.00    +0.000 C 
BRANCH  20  21
ATOM     21  C   UNL     1       5.907   0.417  21.407  0.00  0.00    +0.000 C 
ATOM     22  O   UNL     1       6.339   1.000  22.392  0.00  0.00    +0.000 OA
BRANCH  21  23
ATOM     23  O   UNL     1       6.109  -0.903  21.189  0.00  0.00    +0.000 OA
ATOM     24  H   UNL     1       6.443  -1.342  22.002  0.00  0.00    +0.000 HD
ENDBRANCH  21  23
ENDBRANCH  20  21
ENDBRANCH  19  20
ENDBRANCH   4  19
BRANCH   9  25
ATOM     25  C   UNL     1       1.582   7.078  18.277  0.00  0.00    +0.000 C 
BRANCH  25  26
ATOM     26  C   UNL     1       1.377   7.981  19.491  0.00  0.00    +0.000 A 
ATOM     27  C   UNL     1       1.517   7.500  20.808  0.00  0.00    +0.000 A 
ATOM     28  C   UNL     1       1.400   8.345  21.916  0.00  0.00    +0.000 A 
ATOM     29  C   UNL     1       1.120   9.696  21.745  0.00  0.00    +0.000 A 
ATOM     30  C   UNL     1       0.944  10.205  20.462  0.00  0.00    +0.000 A 
ATOM     31  C   UNL     1       1.066   9.349  19.354  0.00  0.00    +0.000 A 
BRANCH  31  32
ATOM     32  N   UNL     1       0.863   9.944  18.041  0.00  0.00    +0.000 N 
ATOM     33  O   UNL     1       1.873  10.247  17.392  0.00  0.00    +0.000 OA
ATOM     34  O   UNL     1      -0.306  10.092  17.663  0.00  0.00    +0.000 OA
ENDBRANCH  31  32
ENDBRANCH  25  26
ENDBRANCH   9  25
TORSDOF 10
ENDMDL
MODEL 8
REMARK VINA RESULT:      -6.9      7.997     10.550
REMARK  Name = 
REMARK  11 active torsions:
REMARK  status: ('A' for Active; 'I' for Inactive)
REMARK    1  A    between atoms: C_1  and  C_2
REMARK    2  A    between atoms: C_2  and  C_3
REMARK    3  A    between atoms: C_4  and  C_5
REMARK    4  A    between atoms: C_5  and  C_7
REMARK    5  A    between atoms: C_11  and  O_12
REMARK    6  A    between atoms: O_12  and  C_13
REMARK    7  A    between atoms: C_13  and  C_14
REMARK    8  A    between atoms: C_14  and  O_16
REMARK    9  A    between atoms: C_21  and  C_22
REMARK   10  A    between atoms: C_22  and  C_23
REMARK   11  A    between atoms: C_28  and  N_29
REMARK                            x       y       z     vdW  Elec       q    Type
REMARK                         _______ _______ _______ _____ _____    ______ ____
ROOT
ATOM      1  C   UNL     1      -2.997  11.048  18.085  0.00  0.00    +0.000 A 
ATOM      2  C   UNL     1      -4.158  11.527  18.803  0.00  0.00    +0.000 A 
ATOM      3  C   UNL     1      -3.692  12.387  19.805  0.00  0.00    +0.000 A 
ATOM      4  C   UNL     1      -4.278  13.135  20.898  0.00  0.00    +0.000 A 
ATOM      5  C   UNL     1      -3.493  13.949  21.640  0.00  0.00    +0.000 A 
ATOM      6  C   UNL     1      -2.079  14.104  21.382  0.00  0.00    +0.000 A 
ATOM      7  C   UNL     1      -1.517  13.359  20.424  0.00  0.00    +0.000 A 
ATOM      8  N   UNL     1      -2.301  12.488  19.665  0.00  0.00    +0.000 N 
ATOM      9  C   UNL     1      -1.879  11.579  18.713  0.00  0.00    +0.000 A 
ENDROOT
BRANCH   1  11
ATOM     10  C   UNL     1      -2.950  10.917  15.586  0.00  0.00    +0.000 C 
ATOM     11  C   UNL     1      -2.936  10.135  16.892  0.00  0.00    +0.000 C 
ENDBRANCH   1  11
BRANCH   2  12
ATOM     12  C   UNL     1      -5.562  11.190  18.539  0.00  0.00    +0.000 C 
ATOM     13  O   UNL     1      -6.063  10.104  18.831  0.00  0.00    +0.000 OA
BRANCH  12  14
ATOM     14  C   UNL     1      -6.505  12.246  17.942  0.00  0.00    +0.000 C 
ATOM     15  N   UNL     1      -5.972  13.025  16.942  0.00  0.00    +0.000 N 
ATOM     16  O   UNL     1      -7.660  12.358  18.322  0.00  0.00    +0.000 OA
ATOM     17  H   UNL     1      -5.010  12.939  16.643  0.00  0.00    +0.000 HD
ATOM     18  H   UNL     1      -6.557  13.736  16.523  0.00  0.00    +0.000 HD
ENDBRANCH  12  14
ENDBRANCH   2  12
BRANCH   4  19
ATOM     19  O   UNL     1      -5.618  12.904  21.123  0.00  0.00    +0.000 OA
BRANCH  19  20
ATOM     20  C   UNL     1      -6.227  13.589  22.218  0.00  0.00    +0.000 C 
BRANCH  20  21
ATOM     21  C   UNL     1      -6.513  12.738  23.451  0.00  0.00    +0.000 C 
ATOM     22  O   UNL     1      -7.157  11.697  23.428  0.00  0.00    +0.000 OA
BRANCH  21  23
ATOM     23  O   UNL     1      -6.006  13.259  24.592  0.00  0.00    +0.000 OA
ATOM     24  H   UNL     1      -6.014  14.241  24.560  0.00  0.00    +0.000 HD
ENDBRANCH  21  23
ENDBRANCH  20  21
ENDBRANCH  19  20
ENDBRANCH   4  19
BRANCH   9  25
ATOM     25  C   UNL     1      -0.428  11.218  18.499  0.00  0.00    +0.000 C 
BRANCH  25  26
ATOM     26  C   UNL     1       0.093  10.154  19.461  0.00  0.00    +0.000 A 
ATOM     27  C   UNL     1      -0.574   9.848  20.663  0.00  0.00    +0.000 A 
ATOM     28  C   UNL     1      -0.136   8.823  21.508  0.00  0.00    +0.000 A 
ATOM     29  C   UNL     1       0.996   8.081  21.187  0.00  0.00    +0.000 A 
ATOM     30  C   UNL     1       1.701   8.371  20.023  0.00  0.00    +0.000 A 
ATOM     31  C   UNL     1       1.252   9.401  19.179  0.00  0.00    +0.000 A 
BRANCH  31  32
ATOM     32  N   UNL     1       2.040   9.657  17.982  0.00  0.00    +0.000 N 
ATOM     33  O   UNL     1       2.462  10.809  17.816  0.00  0.00    +0.000 OA
ATOM     34  O   UNL     1       2.241   8.700  17.224  0.00  0.00    +0.000 OA
ENDBRANCH  31  32
ENDBRANCH  25  26
ENDBRANCH   9  25
TORSDOF 10
ENDMDL
MODEL 9
REMARK VINA RESULT:      -6.8      8.391     11.024
REMARK  Name = 
REMARK  11 active torsions:
REMARK  status: ('A' for Active; 'I' for Inactive)
REMARK    1  A    between atoms: C_1  and  C_2
REMARK    2  A    between atoms: C_2  and  C_3
REMARK    3  A    between atoms: C_4  and  C_5
REMARK    4  A    between atoms: C_5  and  C_7
REMARK    5  A    between atoms: C_11  and  O_12
REMARK    6  A    between atoms: O_12  and  C_13
REMARK    7  A    between atoms: C_13  and  C_14
REMARK    8  A    between atoms: C_14  and  O_16
REMARK    9  A    between atoms: C_21  and  C_22
REMARK   10  A    between atoms: C_22  and  C_23
REMARK   11  A    between atoms: C_28  and  N_29
REMARK                            x       y       z     vdW  Elec       q    Type
REMARK                         _______ _______ _______ _____ _____    ______ ____
ROOT
ATOM      1  C   UNL     1      -3.326  11.597  18.911  0.00  0.00    +0.000 A 
ATOM      2  C   UNL     1      -4.252  12.203  19.842  0.00  0.00    +0.000 A 
ATOM      3  C   UNL     1      -3.493  12.979  20.727  0.00  0.00    +0.000 A 
ATOM      4  C   UNL     1      -3.751  13.773  21.909  0.00  0.00    +0.000 A 
ATOM      5  C   UNL     1      -2.740  14.469  22.475  0.00  0.00    +0.000 A 
ATOM      6  C   UNL     1      -1.396  14.451  21.941  0.00  0.00    +0.000 A 
ATOM      7  C   UNL     1      -1.134  13.661  20.895  0.00  0.00    +0.000 A 
ATOM      8  N   UNL     1      -2.155  12.908  20.312  0.00  0.00    +0.000 N 
ATOM      9  C   UNL     1      -2.047  11.973  19.301  0.00  0.00    +0.000 A 
ENDROOT
BRANCH   1  11
ATOM     10  C   UNL     1      -4.184  11.493  16.562  0.00  0.00    +0.000 C 
ATOM     11  C   UNL     1      -3.617  10.706  17.735  0.00  0.00    +0.000 C 
ENDBRANCH   1  11
BRANCH   2  12
ATOM     12  C   UNL     1      -5.712  12.048  19.864  0.00  0.00    +0.000 C 
ATOM     13  O   UNL     1      -6.302  11.314  20.657  0.00  0.00    +0.000 OA
BRANCH  12  14
ATOM     14  C   UNL     1      -6.586  12.887  18.919  0.00  0.00    +0.000 C 
ATOM     15  N   UNL     1      -6.192  14.193  18.743  0.00  0.00    +0.000 N 
ATOM     16  O   UNL     1      -7.551  12.406  18.347  0.00  0.00    +0.000 OA
ATOM     17  H   UNL     1      -5.402  14.591  19.232  0.00  0.00    +0.000 HD
ATOM     18  H   UNL     1      -6.742  14.782  18.132  0.00  0.00    +0.000 HD
ENDBRANCH  12  14
ENDBRANCH   2  12
BRANCH   4  19
ATOM     19  O   UNL     1      -5.039  13.706  22.397  0.00  0.00    +0.000 OA
BRANCH  19  20
ATOM     20  C   UNL     1      -5.232  13.054  23.653  0.00  0.00    +0.000 C 
BRANCH  20  21
ATOM     21  C   UNL     1      -6.683  12.809  24.053  0.00  0.00    +0.000 C 
ATOM     22  O   UNL     1      -7.271  11.751  23.872  0.00  0.00    +0.000 OA
BRANCH  21  23
ATOM     23  O   UNL     1      -7.277  13.891  24.609  0.00  0.00    +0.000 OA
ATOM     24  H   UNL     1      -6.633  14.405  25.143  0.00  0.00    +0.000 HD
ENDBRANCH  21  23
ENDBRANCH  20  21
ENDBRANCH  19  20
ENDBRANCH   4  19
BRANCH   9  25
ATOM     25  C   UNL     1      -0.725  11.437  18.805  0.00  0.00    +0.000 C 
BRANCH  25  26
ATOM     26  C   UNL     1      -0.129  10.345  19.689  0.00  0.00    +0.000 A 
ATOM     27  C   UNL     1      -0.749   9.937  20.887  0.00  0.00    +0.000 A 
ATOM     28  C   UNL     1      -0.240   8.888  21.658  0.00  0.00    +0.000 A 
ATOM     29  C   UNL     1       0.917   8.222  21.266  0.00  0.00    +0.000 A 
ATOM     30  C   UNL     1       1.576   8.613  20.105  0.00  0.00    +0.000 A 
ATOM     31  C   UNL     1       1.056   9.668  19.335  0.00  0.00    +0.000 A 
BRANCH  31  32
ATOM     32  N   UNL     1       1.799  10.031  18.137  0.00  0.00    +0.000 N 
ATOM     33  O   UNL     1       2.262  11.178  18.082  0.00  0.00    +0.000 OA
ATOM     34  O   UNL     1       1.924   9.162  17.265  0.00  0.00    +0.000 OA
ENDBRANCH  31  32
ENDBRANCH  25  26
ENDBRANCH   9  25
TORSDOF 10
ENDMDL
