MODEL 1
REMARK VINA RESULT:      -7.8      0.000      0.000
REMARK  Name = 
REMARK  3 active torsions:
REMARK  status: ('A' for Active; 'I' for Inactive)
REMARK    1  A    between atoms: C_4  and  O_5
REMARK    2  A    between atoms: O_5  and  C_6
REMARK    3  A    between atoms: C_9  and  N_10
REMARK                            x       y       z     vdW  Elec       q    Type
REMARK                         _______ _______ _______ _____ _____    ______ ____
ROOT
ATOM      1  C   UNL     1       5.269   4.241  18.339  0.00  0.00    +0.000 A 
ATOM      2  C   UNL     1       4.438   4.023  17.236  0.00  0.00    +0.000 A 
ATOM      3  C   UNL     1       4.942   4.139  15.942  0.00  0.00    +0.000 A 
ATOM      4  C   UNL     1       6.266   4.547  15.741  0.00  0.00    +0.000 A 
ATOM      5  C   UNL     1       7.074   4.850  16.849  0.00  0.00    +0.000 A 
ATOM      6  C   UNL     1       6.573   4.697  18.149  0.00  0.00    +0.000 A 
ENDROOT
BRANCH   4   7
ATOM      7  N   UNL     1       6.789   4.649  14.426  0.00  0.00    +0.000 N 
ATOM      8  C   UNL     1       6.433   3.953  13.297  0.00  0.00    +0.000 A 
ATOM      9  N   UNL     1       7.176   4.349  12.291  0.00  0.00    +0.000 NA
ATOM     10  N   UNL     1       8.009   5.310  12.800  0.00  0.00    +0.000 NA
ATOM     11  N   UNL     1       7.784   5.504  14.095  0.00  0.00    +0.000 NA
ENDBRANCH   4   7
BRANCH   1  12
ATOM     12  O   UNL     1       4.853   4.016  19.636  0.00  0.00    +0.000 OA
BRANCH  12  16
ATOM     13  C   UNL     1       0.796   3.148  20.061  0.00  0.00    +0.000 A 
ATOM     14  C   UNL     1       1.657   2.146  19.619  0.00  0.00    +0.000 A 
ATOM     15  C   UNL     1       3.025   2.397  19.532  0.00  0.00    +0.000 A 
ATOM     16  C   UNL     1       3.526   3.674  19.820  0.00  0.00    +0.000 A 
ATOM     17  C   UNL     1       2.670   4.661  20.307  0.00  0.00    +0.000 A 
ATOM     18  C   UNL     1       1.303   4.396  20.428  0.00  0.00    +0.000 A 
ENDBRANCH  12  16
ENDBRANCH   1  12
TORSDOF 3
ENDMDL
MODEL 2
REMARK VINA RESULT:      -7.8      0.760      1.359
REMARK  Name = 
REMARK  3 active torsions:
REMARK  status: ('A' for Active; 'I' for Inactive)
REMARK    1  A    between atoms: C_4  and  O_5
REMARK    2  A    between atoms: O_5  and  C_6
REMARK    3  A    between atoms: C_9  and  N_10
REMARK                            x       y       z     vdW  Elec       q    Type
REMARK                         _______ _______ _______ _____ _____    ______ ____
ROOT
ATOM      1  C   UNL     1       5.240   5.171  18.243  0.00  0.00    +0.000 A 
ATOM      2  C   UNL     1       4.542   5.729  17.169  0.00  0.00    +0.000 A 
ATOM      3  C   UNL     1       5.016   5.578  15.867  0.00  0.00    +0.000 A 
ATOM      4  C   UNL     1       6.235   4.930  15.638  0.00  0.00    +0.000 A 
ATOM      5  C   UNL     1       6.979   4.446  16.726  0.00  0.00    +0.000 A 
ATOM      6  C   UNL     1       6.480   4.568  18.029  0.00  0.00    +0.000 A 
ENDROOT
BRANCH   4   7
ATOM      7  N   UNL     1       6.713   4.758  14.313  0.00  0.00    +0.000 N 
ATOM      8  C   UNL     1       6.310   3.857  13.357  0.00  0.00    +0.000 A 
ATOM      9  N   UNL     1       7.022   4.031  12.269  0.00  0.00    +0.000 NA
ATOM     10  N   UNL     1       7.884   5.058  12.550  0.00  0.00    +0.000 NA
ATOM     11  N   UNL     1       7.706   5.511  13.786  0.00  0.00    +0.000 NA
ENDBRANCH   4   7
BRANCH   1  12
ATOM     12  O   UNL     1       4.748   5.182  19.533  0.00  0.00    +0.000 OA
BRANCH  12  16
ATOM     13  C   UNL     1       1.186   3.158  20.310  0.00  0.00    +0.000 A 
ATOM     14  C   UNL     1       1.255   4.525  20.568  0.00  0.00    +0.000 A 
ATOM     15  C   UNL     1       2.414   5.232  20.254  0.00  0.00    +0.000 A 
ATOM     16  C   UNL     1       3.533   4.558  19.748  0.00  0.00    +0.000 A 
ATOM     17  C   UNL     1       3.447   3.199  19.447  0.00  0.00    +0.000 A 
ATOM     18  C   UNL     1       2.271   2.500  19.728  0.00  0.00    +0.000 A 
ENDBRANCH  12  16
ENDBRANCH   1  12
TORSDOF 3
ENDMDL
MODEL 3
REMARK VINA RESULT:      -7.7      0.716      1.257
REMARK  Name = 
REMARK  3 active torsions:
REMARK  status: ('A' for Active; 'I' for Inactive)
REMARK    1  A    between atoms: C_4  and  O_5
REMARK    2  A    between atoms: O_5  and  C_6
REMARK    3  A    between atoms: C_9  and  N_10
REMARK                            x       y       z     vdW  Elec       q    Type
REMARK                         _______ _______ _______ _____ _____    ______ ____
ROOT
ATOM      1  C   UNL     1       5.159   5.117  18.301  0.00  0.00    +0.000 A 
ATOM      2  C   UNL     1       6.434   4.578  18.113  0.00  0.00    +0.000 A 
ATOM      3  C   UNL     1       6.986   4.503  16.835  0.00  0.00    +0.000 A 
ATOM      4  C   UNL     1       6.232   4.901  15.725  0.00  0.00    +0.000 A 
ATOM      5  C   UNL     1       4.918   5.361  15.906  0.00  0.00    +0.000 A 
ATOM      6  C   UNL     1       4.382   5.468  17.197  0.00  0.00    +0.000 A 
ENDROOT
BRANCH   4   7
ATOM      7  N   UNL     1       6.795   4.844  14.423  0.00  0.00    +0.000 N 
ATOM      8  C   UNL     1       6.464   4.023  13.373  0.00  0.00    +0.000 A 
ATOM      9  N   UNL     1       7.241   4.291  12.350  0.00  0.00    +0.000 NA
ATOM     10  N   UNL     1       8.070   5.298  12.769  0.00  0.00    +0.000 NA
ATOM     11  N   UNL     1       7.809   5.645  14.024  0.00  0.00    +0.000 NA
ENDBRANCH   4   7
BRANCH   1  12
ATOM     12  O   UNL     1       4.622   5.330  19.554  0.00  0.00    +0.000 OA
BRANCH  12  16
ATOM     13  C   UNL     1       1.131   3.216  20.416  0.00  0.00    +0.000 A 
ATOM     14  C   UNL     1       2.289   2.508  20.102  0.00  0.00    +0.000 A 
ATOM     15  C   UNL     1       3.480   3.193  19.875  0.00  0.00    +0.000 A 
ATOM     16  C   UNL     1       3.500   4.594  19.891  0.00  0.00    +0.000 A 
ATOM     17  C   UNL     1       2.353   5.300  20.251  0.00  0.00    +0.000 A 
ATOM     18  C   UNL     1       1.168   4.608  20.515  0.00  0.00    +0.000 A 
ENDBRANCH  12  16
ENDBRANCH   1  12
TORSDOF 3
ENDMDL
MODEL 4
REMARK VINA RESULT:      -7.6      1.296      1.589
REMARK  Name = 
REMARK  3 active torsions:
REMARK  status: ('A' for Active; 'I' for Inactive)
REMARK    1  A    between atoms: C_4  and  O_5
REMARK    2  A    between atoms: O_5  and  C_6
REMARK    3  A    between atoms: C_9  and  N_10
REMARK                            x       y       z     vdW  Elec       q    Type
REMARK                         _______ _______ _______ _____ _____    ______ ____
ROOT
ATOM      1  C   UNL     1       4.442   5.648  18.118  0.00  0.00    +0.000 A 
ATOM      2  C   UNL     1       4.536   6.636  17.134  0.00  0.00    +0.000 A 
ATOM      3  C   UNL     1       5.163   6.362  15.919  0.00  0.00    +0.000 A 
ATOM      4  C   UNL     1       5.767   5.117  15.711  0.00  0.00    +0.000 A 
ATOM      5  C   UNL     1       5.748   4.156  16.734  0.00  0.00    +0.000 A 
ATOM      6  C   UNL     1       5.086   4.424  17.939  0.00  0.00    +0.000 A 
ENDROOT
BRANCH   4   7
ATOM      7  N   UNL     1       6.392   4.827  14.470  0.00  0.00    +0.000 N 
ATOM      8  C   UNL     1       6.047   3.889  13.527  0.00  0.00    +0.000 A 
ATOM      9  N   UNL     1       6.898   3.944  12.530  0.00  0.00    +0.000 NA
ATOM     10  N   UNL     1       7.787   4.934  12.855  0.00  0.00    +0.000 NA
ATOM     11  N   UNL     1       7.491   5.480  14.029  0.00  0.00    +0.000 NA
ENDBRANCH   4   7
BRANCH   1  12
ATOM     12  O   UNL     1       3.723   5.829  19.282  0.00  0.00    +0.000 OA
BRANCH  12  16
ATOM     13  C   UNL     1       0.808   2.925  19.961  0.00  0.00    +0.000 A 
ATOM     14  C   UNL     1       1.531   3.420  21.043  0.00  0.00    +0.000 A 
ATOM     15  C   UNL     1       2.464   4.436  20.847  0.00  0.00    +0.000 A 
ATOM     16  C   UNL     1       2.725   4.910  19.554  0.00  0.00    +0.000 A 
ATOM     17  C   UNL     1       1.968   4.448  18.479  0.00  0.00    +0.000 A 
ATOM     18  C   UNL     1       1.007   3.455  18.684  0.00  0.00    +0.000 A 
ENDBRANCH  12  16
ENDBRANCH   1  12
TORSDOF 3
ENDMDL
MODEL 5
REMARK VINA RESULT:      -7.5      1.141      1.215
REMARK  Name = 
REMARK  3 active torsions:
REMARK  status: ('A' for Active; 'I' for Inactive)
REMARK    1  A    between atoms: C_4  and  O_5
REMARK    2  A    between atoms: O_5  and  C_6
REMARK    3  A    between atoms: C_9  and  N_10
REMARK                            x       y       z     vdW  Elec       q    Type
REMARK                         _______ _______ _______ _____ _____    ______ ____
ROOT
ATOM      1  C   UNL     1       4.785   5.427  18.082  0.00  0.00    +0.000 A 
ATOM      2  C   UNL     1       4.612   6.365  17.060  0.00  0.00    +0.000 A 
ATOM      3  C   UNL     1       5.192   6.157  15.809  0.00  0.00    +0.000 A 
ATOM      4  C   UNL     1       6.012   5.044  15.596  0.00  0.00    +0.000 A 
ATOM      5  C   UNL     1       6.257   4.149  16.650  0.00  0.00    +0.000 A 
ATOM      6  C   UNL     1       5.642   4.343  17.894  0.00  0.00    +0.000 A 
ENDROOT
BRANCH   4   7
ATOM      7  N   UNL     1       6.591   4.819  14.319  0.00  0.00    +0.000 N 
ATOM      8  C   UNL     1       6.217   3.924  13.346  0.00  0.00    +0.000 A 
ATOM      9  N   UNL     1       7.028   4.034  12.321  0.00  0.00    +0.000 NA
ATOM     10  N   UNL     1       7.922   5.016  12.659  0.00  0.00    +0.000 NA
ATOM     11  N   UNL     1       7.667   5.502  13.868  0.00  0.00    +0.000 NA
ENDBRANCH   4   7
BRANCH   1  12
ATOM     12  O   UNL     1       4.130   5.523  19.293  0.00  0.00    +0.000 OA
BRANCH  12  16
ATOM     13  C   UNL     1       0.778   3.145  19.998  0.00  0.00    +0.000 A 
ATOM     14  C   UNL     1       1.229   3.304  18.689  0.00  0.00    +0.000 A 
ATOM     15  C   UNL     1       2.385   4.041  18.440  0.00  0.00    +0.000 A 
ATOM     16  C   UNL     1       3.052   4.681  19.493  0.00  0.00    +0.000 A 
ATOM     17  C   UNL     1       2.627   4.482  20.806  0.00  0.00    +0.000 A 
ATOM     18  C   UNL     1       1.488   3.712  21.057  0.00  0.00    +0.000 A 
ENDBRANCH  12  16
ENDBRANCH   1  12
TORSDOF 3
ENDMDL
MODEL 6
REMARK VINA RESULT:      -7.5      1.604      2.223
REMARK  Name = 
REMARK  3 active torsions:
REMARK  status: ('A' for Active; 'I' for Inactive)
REMARK    1  A    between atoms: C_4  and  O_5
REMARK    2  A    between atoms: O_5  and  C_6
REMARK    3  A    between atoms: C_9  and  N_10
REMARK                            x       y       z     vdW  Elec       q    Type
REMARK                         _______ _______ _______ _____ _____    ______ ____
ROOT
ATOM      1  C   UNL     1       3.090   5.540  17.986  0.00  0.00    +0.000 A 
ATOM      2  C   UNL     1       3.915   6.623  17.667  0.00  0.00    +0.000 A 
ATOM      3  C   UNL     1       4.921   6.484  16.712  0.00  0.00    +0.000 A 
ATOM      4  C   UNL     1       5.156   5.237  16.121  0.00  0.00    +0.000 A 
ATOM      5  C   UNL     1       4.383   4.130  16.506  0.00  0.00    +0.000 A 
ATOM      6  C   UNL     1       3.350   4.283  17.441  0.00  0.00    +0.000 A 
ENDROOT
BRANCH   4   7
ATOM      7  N   UNL     1       6.166   5.095  15.135  0.00  0.00    +0.000 N 
ATOM      8  C   UNL     1       6.143   4.363  13.973  0.00  0.00    +0.000 A 
ATOM      9  N   UNL     1       7.292   4.497  13.353  0.00  0.00    +0.000 NA
ATOM     10  N   UNL     1       8.044   5.328  14.141  0.00  0.00    +0.000 NA
ATOM     11  N   UNL     1       7.373   5.700  15.225  0.00  0.00    +0.000 NA
ENDBRANCH   4   7
BRANCH   1  12
ATOM     12  O   UNL     1       2.003   5.660  18.828  0.00  0.00    +0.000 OA
BRANCH  12  16
ATOM     13  C   UNL     1       1.527   2.511  21.520  0.00  0.00    +0.000 A 
ATOM     14  C   UNL     1       2.356   3.575  21.867  0.00  0.00    +0.000 A 
ATOM     15  C   UNL     1       2.477   4.667  21.010  0.00  0.00    +0.000 A 
ATOM     16  C   UNL     1       1.825   4.663  19.770  0.00  0.00    +0.000 A 
ATOM     17  C   UNL     1       0.959   3.620  19.444  0.00  0.00    +0.000 A 
ATOM     18  C   UNL     1       0.810   2.543  20.322  0.00  0.00    +0.000 A 
ENDBRANCH  12  16
ENDBRANCH   1  12
TORSDOF 3
ENDMDL
MODEL 7
REMARK VINA RESULT:      -7.3      1.190      1.440
REMARK  Name = 
REMARK  3 active torsions:
REMARK  status: ('A' for Active; 'I' for Inactive)
REMARK    1  A    between atoms: C_4  and  O_5
REMARK    2  A    between atoms: O_5  and  C_6
REMARK    3  A    between atoms: C_9  and  N_10
REMARK                            x       y       z     vdW  Elec       q    Type
REMARK                         _______ _______ _______ _____ _____    ______ ____
ROOT
ATOM      1  C   UNL     1       4.403   5.293  18.084  0.00  0.00    +0.000 A 
ATOM      2  C   UNL     1       4.862   4.031  17.696  0.00  0.00    +0.000 A 
ATOM      3  C   UNL     1       5.540   3.869  16.489  0.00  0.00    +0.000 A 
ATOM      4  C   UNL     1       5.698   4.957  15.625  0.00  0.00    +0.000 A 
ATOM      5  C   UNL     1       5.159   6.206  15.976  0.00  0.00    +0.000 A 
ATOM      6  C   UNL     1       4.510   6.371  17.206  0.00  0.00    +0.000 A 
ENDROOT
BRANCH   4   7
ATOM      7  N   UNL     1       6.403   4.801  14.403  0.00  0.00    +0.000 N 
ATOM      8  C   UNL     1       6.148   3.944  13.361  0.00  0.00    +0.000 A 
ATOM      9  N   UNL     1       7.052   4.117  12.426  0.00  0.00    +0.000 NA
ATOM     10  N   UNL     1       7.884   5.101  12.891  0.00  0.00    +0.000 NA
ATOM     11  N   UNL     1       7.501   5.527  14.089  0.00  0.00    +0.000 NA
ENDBRANCH   4   7
BRANCH   1  12
ATOM     12  O   UNL     1       3.840   5.529  19.322  0.00  0.00    +0.000 OA
BRANCH  12  16
ATOM     13  C   UNL     1       1.030   2.869  20.877  0.00  0.00    +0.000 A 
ATOM     14  C   UNL     1       0.753   3.517  19.676  0.00  0.00    +0.000 A 
ATOM     15  C   UNL     1       1.705   4.359  19.107  0.00  0.00    +0.000 A 
ATOM     16  C   UNL     1       2.911   4.611  19.776  0.00  0.00    +0.000 A 
ATOM     17  C   UNL     1       3.207   3.926  20.953  0.00  0.00    +0.000 A 
ATOM     18  C   UNL     1       2.264   3.053  21.503  0.00  0.00    +0.000 A 
ENDBRANCH  12  16
ENDBRANCH   1  12
TORSDOF 3
ENDMDL
MODEL 8
REMARK VINA RESULT:      -7.3      0.591      1.696
REMARK  Name = 
REMARK  3 active torsions:
REMARK  status: ('A' for Active; 'I' for Inactive)
REMARK    1  A    between atoms: C_4  and  O_5
REMARK    2  A    between atoms: O_5  and  C_6
REMARK    3  A    between atoms: C_9  and  N_10
REMARK                            x       y       z     vdW  Elec       q    Type
REMARK                         _______ _______ _______ _____ _____    ______ ____
ROOT
ATOM      1  C   UNL     1       5.672   4.117  18.408  0.00  0.00    +0.000 A 
ATOM      2  C   UNL     1       6.912   4.686  18.106  0.00  0.00    +0.000 A 
ATOM      3  C   UNL     1       7.302   4.860  16.779  0.00  0.00    +0.000 A 
ATOM      4  C   UNL     1       6.483   4.397  15.744  0.00  0.00    +0.000 A 
ATOM      5  C   UNL     1       5.277   3.747  16.051  0.00  0.00    +0.000 A 
ATOM      6  C   UNL     1       4.873   3.607  17.385  0.00  0.00    +0.000 A 
ENDROOT
BRANCH   4   7
ATOM      7  N   UNL     1       6.867   4.587  14.390  0.00  0.00    +0.000 N 
ATOM      8  C   UNL     1       6.433   3.926  13.267  0.00  0.00    +0.000 A 
ATOM      9  N   UNL     1       7.052   4.407  12.215  0.00  0.00    +0.000 NA
ATOM     10  N   UNL     1       7.885   5.386  12.690  0.00  0.00    +0.000 NA
ATOM     11  N   UNL     1       7.781   5.507  14.008  0.00  0.00    +0.000 NA
ENDBRANCH   4   7
BRANCH   1  12
ATOM     12  O   UNL     1       5.187   4.040  19.698  0.00  0.00    +0.000 OA
BRANCH  12  16
ATOM     13  C   UNL     1       1.091   4.386  20.402  0.00  0.00    +0.000 A 
ATOM     14  C   UNL     1       1.814   5.525  20.053  0.00  0.00    +0.000 A 
ATOM     15  C   UNL     1       3.169   5.419  19.751  0.00  0.00    +0.000 A 
ATOM     16  C   UNL     1       3.821   4.184  19.866  0.00  0.00    +0.000 A 
ATOM     17  C   UNL     1       3.088   3.038  20.169  0.00  0.00    +0.000 A 
ATOM     18  C   UNL     1       1.720   3.140  20.436  0.00  0.00    +0.000 A 
ENDBRANCH  12  16
ENDBRANCH   1  12
TORSDOF 3
ENDMDL
MODEL 9
REMARK VINA RESULT:      -7.3      1.150      1.524
REMARK  Name = 
REMARK  3 active torsions:
REMARK  status: ('A' for Active; 'I' for Inactive)
REMARK    1  A    between atoms: C_4  and  O_5
REMARK    2  A    between atoms: O_5  and  C_6
REMARK    3  A    between atoms: C_9  and  N_10
REMARK                            x       y       z     vdW  Elec       q    Type
REMARK                         _______ _______ _______ _____ _____    ______ ____
ROOT
ATOM      1  C   UNL     1       4.619   5.328  18.031  0.00  0.00    +0.000 A 
ATOM      2  C   UNL     1       5.295   4.144  17.722  0.00  0.00    +0.000 A 
ATOM      3  C   UNL     1       5.980   4.019  16.514  0.00  0.00    +0.000 A 
ATOM      4  C   UNL     1       5.930   5.053  15.573  0.00  0.00    +0.000 A 
ATOM      5  C   UNL     1       5.177   6.206  15.848  0.00  0.00    +0.000 A 
ATOM      6  C   UNL     1       4.521   6.341  17.078  0.00  0.00    +0.000 A 
ENDROOT
BRANCH   4   7
ATOM      7  N   UNL     1       6.639   4.938  14.349  0.00  0.00    +0.000 N 
ATOM      8  C   UNL     1       6.395   4.107  13.283  0.00  0.00    +0.000 A 
ATOM      9  N   UNL     1       7.300   4.315  12.355  0.00  0.00    +0.000 NA
ATOM     10  N   UNL     1       8.121   5.293  12.850  0.00  0.00    +0.000 NA
ATOM     11  N   UNL     1       7.731   5.682  14.059  0.00  0.00    +0.000 NA
ENDBRANCH   4   7
BRANCH   1  12
ATOM     12  O   UNL     1       4.036   5.548  19.262  0.00  0.00    +0.000 OA
BRANCH  12  16
ATOM     13  C   UNL     1       0.793   3.063  20.103  0.00  0.00    +0.000 A 
ATOM     14  C   UNL     1       1.551   3.563  21.159  0.00  0.00    +0.000 A 
ATOM     15  C   UNL     1       2.598   4.446  20.903  0.00  0.00    +0.000 A 
ATOM     16  C   UNL     1       2.934   4.775  19.583  0.00  0.00    +0.000 A 
ATOM     17  C   UNL     1       2.146   4.312  18.531  0.00  0.00    +0.000 A 
ATOM     18  C   UNL     1       1.074   3.455  18.793  0.00  0.00    +0.000 A 
ENDBRANCH  12  16
ENDBRANCH   1  12
TORSDOF 3
ENDMDL
