MODEL 1
REMARK VINA RESULT:      -8.0      0.000      0.000
REMARK  Name = 
REMARK  7 active torsions:
REMARK  status: ('A' for Active; 'I' for Inactive)
REMARK    1  A    between atoms: C_1  and  O_2
REMARK    2  A    between atoms: O_2  and  C_3
REMARK    3  A    between atoms: C_7  and  C_8
REMARK    4  A    between atoms: C_8  and  N_9
REMARK    5  A    between atoms: C_14  and  C_15
REMARK    6  A    between atoms: C_14  and  C_16
REMARK    7  A    between atoms: N_18  and  C_19
REMARK                            x       y       z     vdW  Elec       q    Type
REMARK                         _______ _______ _______ _____ _____    ______ ____
ROOT
ATOM      1  N   UNL     1       4.812   5.909  17.243  0.00  0.00    +0.000 N 
ATOM      2  C   UNL     1       5.419   6.203  16.024  0.00  0.00    +0.000 C 
ATOM      3  O   UNL     1       4.992   6.956  15.169  0.00  0.00    +0.000 OA
ATOM      4  C   UNL     1       6.644   5.357  15.870  0.00  0.00    +0.000 C 
ATOM      5  C   UNL     1       6.894   4.775  17.249  0.00  0.00    +0.000 C 
ATOM      6  C   UNL     1       5.593   4.967  18.063  0.00  0.00    +0.000 C 
ATOM      7  C   UNL     1       6.017   5.585  19.412  0.00  0.00    +0.000 C 
ENDROOT
BRANCH   6   8
ATOM      8  C   UNL     1       4.861   3.584  18.260  0.00  0.00    +0.000 C 
ATOM      9  O   UNL     1       4.713   2.780  17.347  0.00  0.00    +0.000 OA
ATOM     10  N   UNL     1       4.260   3.426  19.499  0.00  0.00    +0.000 N 
ATOM     11  H   UNL     1       4.152   4.266  20.053  0.00  0.00    +0.000 HD
BRANCH  10  12
ATOM     12  C   UNL     1       3.393   2.314  19.890  0.00  0.00    +0.000 C 
ATOM     13  C   UNL     1       2.780   2.459  21.294  0.00  0.00    +0.000 C 
ATOM     14  C   UNL     1       1.775   3.605  21.385  0.00  0.00    +0.000 C 
ATOM     15  C   UNL     1       0.681   3.492  20.327  0.00  0.00    +0.000 C 
ATOM     16  C   UNL     1       1.263   3.334  18.927  0.00  0.00    +0.000 C 
ATOM     17  C   UNL     1       2.257   2.171  18.860  0.00  0.00    +0.000 C 
ENDBRANCH  10  12
ENDBRANCH   6   8
BRANCH   1  18
ATOM     18  C   UNL     1       3.365   6.042  17.308  0.00  0.00    +0.000 C 
BRANCH  18  23
ATOM     19  C   UNL     1       1.770   7.969  20.159  0.00  0.00    +0.000 A 
ATOM     20  C   UNL     1       1.500   9.193  19.548  0.00  0.00    +0.000 A 
ATOM     21  C   UNL     1       1.895   9.425  18.230  0.00  0.00    +0.000 A 
ATOM     22  C   UNL     1       2.549   8.425  17.511  0.00  0.00    +0.000 A 
ATOM     23  C   UNL     1       2.846   7.198  18.119  0.00  0.00    +0.000 A 
ATOM     24  C   UNL     1       2.476   6.992  19.458  0.00  0.00    +0.000 A 
BRANCH  19  26
ATOM     25  C   UNL     1       0.952   9.035  22.101  0.00  0.00    +0.000 C 
ATOM     26  O   UNL     1       1.302   7.823  21.437  0.00  0.00    +0.000 OA
ENDBRANCH  19  26
ENDBRANCH  18  23
ENDBRANCH   1  18
TORSDOF 5
ENDMDL
MODEL 2
REMARK VINA RESULT:      -7.9      1.634      4.592
REMARK  Name = 
REMARK  7 active torsions:
REMARK  status: ('A' for Active; 'I' for Inactive)
REMARK    1  A    between atoms: C_1  and  O_2
REMARK    2  A    between atoms: O_2  and  C_3
REMARK    3  A    between atoms: C_7  and  C_8
REMARK    4  A    between atoms: C_8  and  N_9
REMARK    5  A    between atoms: C_14  and  C_15
REMARK    6  A    between atoms: C_14  and  C_16
REMARK    7  A    between atoms: N_18  and  C_19
REMARK                            x       y       z     vdW  Elec       q    Type
REMARK                         _______ _______ _______ _____ _____    ______ ____
ROOT
ATOM      1  N   UNL     1       2.313   4.310  19.579  0.00  0.00    +0.000 N 
ATOM      2  C   UNL     1       1.976   3.651  20.760  0.00  0.00    +0.000 C 
ATOM      3  O   UNL     1       2.041   4.110  21.885  0.00  0.00    +0.000 OA
ATOM      4  C   UNL     1       1.619   2.232  20.445  0.00  0.00    +0.000 C 
ATOM      5  C   UNL     1       1.453   2.196  18.937  0.00  0.00    +0.000 C 
ATOM      6  C   UNL     1       2.108   3.481  18.379  0.00  0.00    +0.000 C 
ATOM      7  C   UNL     1       1.080   4.104  17.412  0.00  0.00    +0.000 C 
ENDROOT
BRANCH   6   8
ATOM      8  C   UNL     1       3.460   3.132  17.646  0.00  0.00    +0.000 C 
ATOM      9  O   UNL     1       4.021   2.051  17.777  0.00  0.00    +0.000 OA
ATOM     10  N   UNL     1       4.041   4.198  16.978  0.00  0.00    +0.000 N 
ATOM     11  H   UNL     1       3.682   5.117  17.206  0.00  0.00    +0.000 HD
BRANCH  10  12
ATOM     12  C   UNL     1       5.362   4.193  16.348  0.00  0.00    +0.000 C 
ATOM     13  C   UNL     1       5.533   5.244  15.238  0.00  0.00    +0.000 C 
ATOM     14  C   UNL     1       5.515   6.675  15.769  0.00  0.00    +0.000 C 
ATOM     15  C   UNL     1       6.544   6.887  16.877  0.00  0.00    +0.000 C 
ATOM     16  C   UNL     1       6.403   5.849  17.984  0.00  0.00    +0.000 C 
ATOM     17  C   UNL     1       6.438   4.424  17.426  0.00  0.00    +0.000 C 
ENDBRANCH  10  12
ENDBRANCH   6   8
BRANCH   1  18
ATOM     18  C   UNL     1       3.298   5.376  19.677  0.00  0.00    +0.000 C 
BRANCH  18  23
ATOM     19  C   UNL     1       1.336   8.606  20.001  0.00  0.00    +0.000 A 
ATOM     20  C   UNL     1       1.501   9.158  18.732  0.00  0.00    +0.000 A 
ATOM     21  C   UNL     1       2.306   8.521  17.786  0.00  0.00    +0.000 A 
ATOM     22  C   UNL     1       2.937   7.319  18.102  0.00  0.00    +0.000 A 
ATOM     23  C   UNL     1       2.797   6.763  19.381  0.00  0.00    +0.000 A 
ATOM     24  C   UNL     1       2.014   7.433  20.334  0.00  0.00    +0.000 A 
BRANCH  19  26
ATOM     25  C   UNL     1       0.889   9.317  22.208  0.00  0.00    +0.000 C 
ATOM     26  O   UNL     1       0.491   9.280  20.840  0.00  0.00    +0.000 OA
ENDBRANCH  19  26
ENDBRANCH  18  23
ENDBRANCH   1  18
TORSDOF 5
ENDMDL
MODEL 3
REMARK VINA RESULT:      -7.5      2.719      6.153
REMARK  Name = 
REMARK  7 active torsions:
REMARK  status: ('A' for Active; 'I' for Inactive)
REMARK    1  A    between atoms: C_1  and  O_2
REMARK    2  A    between atoms: O_2  and  C_3
REMARK    3  A    between atoms: C_7  and  C_8
REMARK    4  A    between atoms: C_8  and  N_9
REMARK    5  A    between atoms: C_14  and  C_15
REMARK    6  A    between atoms: C_14  and  C_16
REMARK    7  A    between atoms: N_18  and  C_19
REMARK                            x       y       z     vdW  Elec       q    Type
REMARK                         _______ _______ _______ _____ _____    ______ ____
ROOT
ATOM      1  N   UNL     1       6.185   4.756  16.883  0.00  0.00    +0.000 N 
ATOM      2  C   UNL     1       7.198   4.726  17.839  0.00  0.00    +0.000 C 
ATOM      3  O   UNL     1       8.264   4.147  17.743  0.00  0.00    +0.000 OA
ATOM      4  C   UNL     1       6.730   5.437  19.070  0.00  0.00    +0.000 C 
ATOM      5  C   UNL     1       5.476   6.177  18.642  0.00  0.00    +0.000 C 
ATOM      6  C   UNL     1       5.024   5.560  17.298  0.00  0.00    +0.000 C 
ATOM      7  C   UNL     1       4.767   6.746  16.345  0.00  0.00    +0.000 C 
ENDROOT
BRANCH   6   8
ATOM      8  C   UNL     1       3.726   4.689  17.506  0.00  0.00    +0.000 C 
ATOM      9  O   UNL     1       3.287   3.941  16.639  0.00  0.00    +0.000 OA
ATOM     10  N   UNL     1       3.035   4.959  18.676  0.00  0.00    +0.000 N 
ATOM     11  H   UNL     1       3.288   5.814  19.156  0.00  0.00    +0.000 HD
BRANCH  10  12
ATOM     12  C   UNL     1       1.728   4.412  19.043  0.00  0.00    +0.000 C 
ATOM     13  C   UNL     1       1.648   2.877  18.972  0.00  0.00    +0.000 C 
ATOM     14  C   UNL     1       2.513   2.190  20.027  0.00  0.00    +0.000 C 
ATOM     15  C   UNL     1       2.196   2.684  21.436  0.00  0.00    +0.000 C 
ATOM     16  C   UNL     1       2.256   4.204  21.529  0.00  0.00    +0.000 C 
ATOM     17  C   UNL     1       1.372   4.867  20.470  0.00  0.00    +0.000 C 
ENDBRANCH  10  12
ENDBRANCH   6   8
BRANCH   1  18
ATOM     18  C   UNL     1       6.112   3.628  15.967  0.00  0.00    +0.000 C 
BRANCH  18  23
ATOM     19  C   UNL     1       6.130   3.252  12.192  0.00  0.00    +0.000 A 
ATOM     20  C   UNL     1       7.053   4.229  11.822  0.00  0.00    +0.000 A 
ATOM     21  C   UNL     1       7.623   5.062  12.786  0.00  0.00    +0.000 A 
ATOM     22  C   UNL     1       7.283   4.909  14.130  0.00  0.00    +0.000 A 
ATOM     23  C   UNL     1       6.341   3.945  14.514  0.00  0.00    +0.000 A 
ATOM     24  C   UNL     1       5.747   3.140  13.529  0.00  0.00    +0.000 A 
BRANCH  19  26
ATOM     25  C   UNL     1       6.359   1.225  11.003  0.00  0.00    +0.000 C 
ATOM     26  O   UNL     1       5.664   2.457  11.181  0.00  0.00    +0.000 OA
ENDBRANCH  19  26
ENDBRANCH  18  23
ENDBRANCH   1  18
TORSDOF 5
ENDMDL
MODEL 4
REMARK VINA RESULT:      -7.2      0.995      1.499
REMARK  Name = 
REMARK  7 active torsions:
REMARK  status: ('A' for Active; 'I' for Inactive)
REMARK    1  A    between atoms: C_1  and  O_2
REMARK    2  A    between atoms: O_2  and  C_3
REMARK    3  A    between atoms: C_7  and  C_8
REMARK    4  A    between atoms: C_8  and  N_9
REMARK    5  A    between atoms: C_14  and  C_15
REMARK    6  A    between atoms: C_14  and  C_16
REMARK    7  A    between atoms: N_18  and  C_19
REMARK                            x       y       z     vdW  Elec       q    Type
REMARK                         _______ _______ _______ _____ _____    ______ ____
ROOT
ATOM      1  N   UNL     1       4.746   5.894  17.216  0.00  0.00    +0.000 N 
ATOM      2  C   UNL     1       5.435   6.199  16.044  0.00  0.00    +0.000 C 
ATOM      3  O   UNL     1       5.034   6.897  15.132  0.00  0.00    +0.000 OA
ATOM      4  C   UNL     1       6.724   5.439  16.022  0.00  0.00    +0.000 C 
ATOM      5  C   UNL     1       6.892   4.912  17.435  0.00  0.00    +0.000 C 
ATOM      6  C   UNL     1       5.515   5.032  18.129  0.00  0.00    +0.000 C 
ATOM      7  C   UNL     1       5.777   5.713  19.488  0.00  0.00    +0.000 C 
ENDROOT
BRANCH   6   8
ATOM      8  C   UNL     1       4.866   3.606  18.307  0.00  0.00    +0.000 C 
ATOM      9  O   UNL     1       4.797   2.793  17.393  0.00  0.00    +0.000 OA
ATOM     10  N   UNL     1       4.238   3.411  19.527  0.00  0.00    +0.000 N 
ATOM     11  H   UNL     1       4.060   4.244  20.075  0.00  0.00    +0.000 HD
BRANCH  10  12
ATOM     12  C   UNL     1       3.430   2.247  19.895  0.00  0.00    +0.000 C 
ATOM     13  C   UNL     1       2.793   2.341  21.291  0.00  0.00    +0.000 C 
ATOM     14  C   UNL     1       1.723   3.427  21.382  0.00  0.00    +0.000 C 
ATOM     15  C   UNL     1       0.650   3.265  20.308  0.00  0.00    +0.000 C 
ATOM     16  C   UNL     1       1.258   3.157  18.915  0.00  0.00    +0.000 C 
ATOM     17  C   UNL     1       2.317   2.053  18.848  0.00  0.00    +0.000 C 
ENDBRANCH  10  12
ENDBRANCH   6   8
BRANCH   1  18
ATOM     18  C   UNL     1       3.293   5.925  17.153  0.00  0.00    +0.000 C 
BRANCH  18  23
ATOM     19  C   UNL     1       1.986   9.194  18.564  0.00  0.00    +0.000 A 
ATOM     20  C   UNL     1       1.741   8.844  19.891  0.00  0.00    +0.000 A 
ATOM     21  C   UNL     1       1.932   7.530  20.320  0.00  0.00    +0.000 A 
ATOM     22  C   UNL     1       2.385   6.562  19.424  0.00  0.00    +0.000 A 
ATOM     23  C   UNL     1       2.615   6.895  18.082  0.00  0.00    +0.000 A 
ATOM     24  C   UNL     1       2.383   8.213  17.656  0.00  0.00    +0.000 A 
BRANCH  19  26
ATOM     25  C   UNL     1       0.946  11.239  19.123  0.00  0.00    +0.000 C 
ATOM     26  O   UNL     1       1.813  10.516  18.254  0.00  0.00    +0.000 OA
ENDBRANCH  19  26
ENDBRANCH  18  23
ENDBRANCH   1  18
TORSDOF 5
ENDMDL
MODEL 5
REMARK VINA RESULT:      -7.1      2.731      5.804
REMARK  Name = 
REMARK  7 active torsions:
REMARK  status: ('A' for Active; 'I' for Inactive)
REMARK    1  A    between atoms: C_1  and  O_2
REMARK    2  A    between atoms: O_2  and  C_3
REMARK    3  A    between atoms: C_7  and  C_8
REMARK    4  A    between atoms: C_8  and  N_9
REMARK    5  A    between atoms: C_14  and  C_15
REMARK    6  A    between atoms: C_14  and  C_16
REMARK    7  A    between atoms: N_18  and  C_19
REMARK                            x       y       z     vdW  Elec       q    Type
REMARK                         _______ _______ _______ _____ _____    ______ ____
ROOT
ATOM      1  N   UNL     1       6.292   4.826  17.138  0.00  0.00    +0.000 N 
ATOM      2  C   UNL     1       7.100   4.949  18.266  0.00  0.00    +0.000 C 
ATOM      3  O   UNL     1       8.257   4.587  18.369  0.00  0.00    +0.000 OA
ATOM      4  C   UNL     1       6.286   5.507  19.392  0.00  0.00    +0.000 C 
ATOM      5  C   UNL     1       5.012   6.013  18.742  0.00  0.00    +0.000 C 
ATOM      6  C   UNL     1       4.941   5.378  17.333  0.00  0.00    +0.000 C 
ATOM      7  C   UNL     1       4.638   6.532  16.356  0.00  0.00    +0.000 C 
ENDROOT
BRANCH   6   8
ATOM      8  C   UNL     1       3.821   4.269  17.290  0.00  0.00    +0.000 C 
ATOM      9  O   UNL     1       3.191   4.006  16.272  0.00  0.00    +0.000 OA
ATOM     10  N   UNL     1       3.495   3.735  18.526  0.00  0.00    +0.000 N 
ATOM     11  H   UNL     1       3.826   4.247  19.335  0.00  0.00    +0.000 HD
BRANCH  10  12
ATOM     12  C   UNL     1       2.393   2.808  18.793  0.00  0.00    +0.000 C 
ATOM     13  C   UNL     1       2.672   1.812  19.931  0.00  0.00    +0.000 C 
ATOM     14  C   UNL     1       2.769   2.486  21.298  0.00  0.00    +0.000 C 
ATOM     15  C   UNL     1       1.535   3.329  21.608  0.00  0.00    +0.000 C 
ATOM     16  C   UNL     1       1.230   4.318  20.488  0.00  0.00    +0.000 C 
ATOM     17  C   UNL     1       1.126   3.615  19.132  0.00  0.00    +0.000 C 
ENDBRANCH  10  12
ENDBRANCH   6   8
BRANCH   1  18
ATOM     18  C   UNL     1       6.607   3.744  16.218  0.00  0.00    +0.000 C 
BRANCH  18  23
ATOM     19  C   UNL     1       6.080   3.554  12.466  0.00  0.00    +0.000 A 
ATOM     20  C   UNL     1       7.020   4.477  12.009  0.00  0.00    +0.000 A 
ATOM     21  C   UNL     1       7.781   5.216  12.915  0.00  0.00    +0.000 A 
ATOM     22  C   UNL     1       7.616   5.023  14.286  0.00  0.00    +0.000 A 
ATOM     23  C   UNL     1       6.660   4.115  14.761  0.00  0.00    +0.000 A 
ATOM     24  C   UNL     1       5.875   3.405  13.838  0.00  0.00    +0.000 A 
BRANCH  19  26
ATOM     25  C   UNL     1       4.066   3.237  11.276  0.00  0.00    +0.000 C 
ATOM     26  O   UNL     1       5.418   2.847  11.500  0.00  0.00    +0.000 OA
ENDBRANCH  19  26
ENDBRANCH  18  23
ENDBRANCH   1  18
TORSDOF 5
ENDMDL
MODEL 6
REMARK VINA RESULT:      -7.1      1.701      4.837
REMARK  Name = 
REMARK  7 active torsions:
REMARK  status: ('A' for Active; 'I' for Inactive)
REMARK    1  A    between atoms: C_1  and  O_2
REMARK    2  A    between atoms: O_2  and  C_3
REMARK    3  A    between atoms: C_7  and  C_8
REMARK    4  A    between atoms: C_8  and  N_9
REMARK    5  A    between atoms: C_14  and  C_15
REMARK    6  A    between atoms: C_14  and  C_16
REMARK    7  A    between atoms: N_18  and  C_19
REMARK                            x       y       z     vdW  Elec       q    Type
REMARK                         _______ _______ _______ _____ _____    ______ ____
ROOT
ATOM      1  N   UNL     1       2.279   4.188  19.704  0.00  0.00    +0.000 N 
ATOM      2  C   UNL     1       1.977   3.468  20.858  0.00  0.00    +0.000 C 
ATOM      3  O   UNL     1       1.899   3.914  21.987  0.00  0.00    +0.000 OA
ATOM      4  C   UNL     1       1.869   2.015  20.514  0.00  0.00    +0.000 C 
ATOM      5  C   UNL     1       1.805   1.975  18.998  0.00  0.00    +0.000 C 
ATOM      6  C   UNL     1       2.283   3.355  18.489  0.00  0.00    +0.000 C 
ATOM      7  C   UNL     1       1.231   3.822  17.461  0.00  0.00    +0.000 C 
ENDROOT
BRANCH   6   8
ATOM      8  C   UNL     1       3.715   3.234  17.842  0.00  0.00    +0.000 C 
ATOM      9  O   UNL     1       4.564   2.454  18.259  0.00  0.00    +0.000 OA
ATOM     10  N   UNL     1       3.991   4.189  16.877  0.00  0.00    +0.000 N 
ATOM     11  H   UNL     1       3.363   4.983  16.843  0.00  0.00    +0.000 HD
BRANCH  10  12
ATOM     12  C   UNL     1       5.287   4.401  16.230  0.00  0.00    +0.000 C 
ATOM     13  C   UNL     1       5.328   5.615  15.287  0.00  0.00    +0.000 C 
ATOM     14  C   UNL     1       5.197   6.944  16.028  0.00  0.00    +0.000 C 
ATOM     15  C   UNL     1       6.237   7.086  17.137  0.00  0.00    +0.000 C 
ATOM     16  C   UNL     1       6.224   5.887  18.079  0.00  0.00    +0.000 C 
ATOM     17  C   UNL     1       6.370   4.570  17.313  0.00  0.00    +0.000 C 
ENDBRANCH  10  12
ENDBRANCH   6   8
BRANCH   1  18
ATOM     18  C   UNL     1       3.075   5.394  19.869  0.00  0.00    +0.000 C 
BRANCH  18  23
ATOM     19  C   UNL     1       1.986   8.782  18.558  0.00  0.00    +0.000 A 
ATOM     20  C   UNL     1       1.303   9.298  19.658  0.00  0.00    +0.000 A 
ATOM     21  C   UNL     1       1.132   8.524  20.807  0.00  0.00    +0.000 A 
ATOM     22  C   UNL     1       1.658   7.234  20.865  0.00  0.00    +0.000 A 
ATOM     23  C   UNL     1       2.329   6.695  19.759  0.00  0.00    +0.000 A 
ATOM     24  C   UNL     1       2.461   7.471  18.596  0.00  0.00    +0.000 A 
BRANCH  19  26
ATOM     25  C   UNL     1       2.194  11.019  17.831  0.00  0.00    +0.000 C 
ATOM     26  O   UNL     1       2.141   9.635  17.498  0.00  0.00    +0.000 OA
ENDBRANCH  19  26
ENDBRANCH  18  23
ENDBRANCH   1  18
TORSDOF 5
ENDMDL
MODEL 7
REMARK VINA RESULT:      -7.0      1.803      4.663
REMARK  Name = 
REMARK  7 active torsions:
REMARK  status: ('A' for Active; 'I' for Inactive)
REMARK    1  A    between atoms: C_1  and  O_2
REMARK    2  A    between atoms: O_2  and  C_3
REMARK    3  A    between atoms: C_7  and  C_8
REMARK    4  A    between atoms: C_8  and  N_9
REMARK    5  A    between atoms: C_14  and  C_15
REMARK    6  A    between atoms: C_14  and  C_16
REMARK    7  A    between atoms: N_18  and  C_19
REMARK                            x       y       z     vdW  Elec       q    Type
REMARK                         _______ _______ _______ _____ _____    ______ ____
ROOT
ATOM      1  N   UNL     1       2.497   4.336  19.483  0.00  0.00    +0.000 N 
ATOM      2  C   UNL     1       1.673   3.634  20.361  0.00  0.00    +0.000 C 
ATOM      3  O   UNL     1       1.107   4.088  21.338  0.00  0.00    +0.000 OA
ATOM      4  C   UNL     1       1.672   2.187  19.981  0.00  0.00    +0.000 C 
ATOM      5  C   UNL     1       2.304   2.144  18.602  0.00  0.00    +0.000 C 
ATOM      6  C   UNL     1       3.019   3.499  18.390  0.00  0.00    +0.000 C 
ATOM      7  C   UNL     1       2.572   4.009  17.004  0.00  0.00    +0.000 C 
ENDROOT
BRANCH   6   8
ATOM      8  C   UNL     1       4.583   3.311  18.465  0.00  0.00    +0.000 C 
ATOM      9  O   UNL     1       5.134   2.734  19.395  0.00  0.00    +0.000 OA
ATOM     10  N   UNL     1       5.289   3.988  17.484  0.00  0.00    +0.000 N 
ATOM     11  H   UNL     1       4.776   4.697  16.973  0.00  0.00    +0.000 HD
BRANCH  10  12
ATOM     12  C   UNL     1       6.746   4.110  17.410  0.00  0.00    +0.000 C 
ATOM     13  C   UNL     1       7.261   4.699  16.086  0.00  0.00    +0.000 C 
ATOM     14  C   UNL     1       6.877   6.166  15.902  0.00  0.00    +0.000 C 
ATOM     15  C   UNL     1       7.317   7.026  17.084  0.00  0.00    +0.000 C 
ATOM     16  C   UNL     1       6.829   6.455  18.410  0.00  0.00    +0.000 C 
ATOM     17  C   UNL     1       7.238   4.989  18.575  0.00  0.00    +0.000 C 
ENDBRANCH  10  12
ENDBRANCH   6   8
BRANCH   1  18
ATOM     18  C   UNL     1       3.180   5.506  20.014  0.00  0.00    +0.000 C 
BRANCH  18  23
ATOM     19  C   UNL     1       1.254   8.749  19.619  0.00  0.00    +0.000 A 
ATOM     20  C   UNL     1       1.573   9.102  18.309  0.00  0.00    +0.000 A 
ATOM     21  C   UNL     1       2.470   8.329  17.569  0.00  0.00    +0.000 A 
ATOM     22  C   UNL     1       3.038   7.188  18.134  0.00  0.00    +0.000 A 
ATOM     23  C   UNL     1       2.742   6.832  19.457  0.00  0.00    +0.000 A 
ATOM     24  C   UNL     1       1.868   7.640  20.201  0.00  0.00    +0.000 A 
BRANCH  19  26
ATOM     25  C   UNL     1       0.117  10.819  19.643  0.00  0.00    +0.000 C 
ATOM     26  O   UNL     1       0.331   9.544  20.243  0.00  0.00    +0.000 OA
ENDBRANCH  19  26
ENDBRANCH  18  23
ENDBRANCH   1  18
TORSDOF 5
ENDMDL
MODEL 8
REMARK VINA RESULT:      -7.0      1.759      4.977
REMARK  Name = 
REMARK  7 active torsions:
REMARK  status: ('A' for Active; 'I' for Inactive)
REMARK    1  A    between atoms: C_1  and  O_2
REMARK    2  A    between atoms: O_2  and  C_3
REMARK    3  A    between atoms: C_7  and  C_8
REMARK    4  A    between atoms: C_8  and  N_9
REMARK    5  A    between atoms: C_14  and  C_15
REMARK    6  A    between atoms: C_14  and  C_16
REMARK    7  A    between atoms: N_18  and  C_19
REMARK                            x       y       z     vdW  Elec       q    Type
REMARK                         _______ _______ _______ _____ _____    ______ ____
ROOT
ATOM      1  N   UNL     1       2.190   4.148  20.089  0.00  0.00    +0.000 N 
ATOM      2  C   UNL     1       1.740   3.130  20.926  0.00  0.00    +0.000 C 
ATOM      3  O   UNL     1       1.287   3.264  22.047  0.00  0.00    +0.000 OA
ATOM      4  C   UNL     1       2.000   1.808  20.273  0.00  0.00    +0.000 C 
ATOM      5  C   UNL     1       2.342   2.144  18.833  0.00  0.00    +0.000 C 
ATOM      6  C   UNL     1       2.667   3.655  18.787  0.00  0.00    +0.000 C 
ATOM      7  C   UNL     1       1.852   4.234  17.612  0.00  0.00    +0.000 C 
ENDROOT
BRANCH   6   8
ATOM      8  C   UNL     1       4.216   3.876  18.585  0.00  0.00    +0.000 C 
ATOM      9  O   UNL     1       5.058   3.312  19.274  0.00  0.00    +0.000 OA
ATOM     10  N   UNL     1       4.539   4.875  17.681  0.00  0.00    +0.000 N 
ATOM     11  H   UNL     1       3.787   5.501  17.420  0.00  0.00    +0.000 HD
BRANCH  10  12
ATOM     12  C   UNL     1       5.885   5.388  17.421  0.00  0.00    +0.000 C 
ATOM     13  C   UNL     1       6.854   4.343  16.844  0.00  0.00    +0.000 C 
ATOM     14  C   UNL     1       6.476   3.901  15.431  0.00  0.00    +0.000 C 
ATOM     15  C   UNL     1       6.332   5.087  14.481  0.00  0.00    +0.000 C 
ATOM     16  C   UNL     1       5.384   6.144  15.037  0.00  0.00    +0.000 C 
ATOM     17  C   UNL     1       5.793   6.578  16.447  0.00  0.00    +0.000 C 
ENDBRANCH  10  12
ENDBRANCH   6   8
BRANCH   1  18
ATOM     18  C   UNL     1       2.674   5.361  20.730  0.00  0.00    +0.000 C 
BRANCH  18  23
ATOM     19  C   UNL     1       1.886   8.561  18.851  0.00  0.00    +0.000 A 
ATOM     20  C   UNL     1       1.029   9.202  19.744  0.00  0.00    +0.000 A 
ATOM     21  C   UNL     1       0.647   8.571  20.929  0.00  0.00    +0.000 A 
ATOM     22  C   UNL     1       1.134   7.301  21.232  0.00  0.00    +0.000 A 
ATOM     23  C   UNL     1       1.980   6.636  20.335  0.00  0.00    +0.000 A 
ATOM     24  C   UNL     1       2.327   7.266  19.129  0.00  0.00    +0.000 A 
BRANCH  19  26
ATOM     25  C   UNL     1       2.162  10.696  17.881  0.00  0.00    +0.000 C 
ATOM     26  O   UNL     1       2.239   9.280  17.741  0.00  0.00    +0.000 OA
ENDBRANCH  19  26
ENDBRANCH  18  23
ENDBRANCH   1  18
TORSDOF 5
ENDMDL
MODEL 9
REMARK VINA RESULT:      -7.0      1.787      4.886
REMARK  Name = 
REMARK  7 active torsions:
REMARK  status: ('A' for Active; 'I' for Inactive)
REMARK    1  A    between atoms: C_1  and  O_2
REMARK    2  A    between atoms: O_2  and  C_3
REMARK    3  A    between atoms: C_7  and  C_8
REMARK    4  A    between atoms: C_8  and  N_9
REMARK    5  A    between atoms: C_14  and  C_15
REMARK    6  A    between atoms: C_14  and  C_16
REMARK    7  A    between atoms: N_18  and  C_19
REMARK                            x       y       z     vdW  Elec       q    Type
REMARK                         _______ _______ _______ _____ _____    ______ ____
ROOT
ATOM      1  N   UNL     1       2.409   4.301  19.455  0.00  0.00    +0.000 N 
ATOM      2  C   UNL     1       1.527   3.550  20.229  0.00  0.00    +0.000 C 
ATOM      3  O   UNL     1       0.836   3.962  21.141  0.00  0.00    +0.000 OA
ATOM      4  C   UNL     1       1.637   2.109  19.836  0.00  0.00    +0.000 C 
ATOM      5  C   UNL     1       2.418   2.117  18.536  0.00  0.00    +0.000 C 
ATOM      6  C   UNL     1       3.087   3.506  18.418  0.00  0.00    +0.000 C 
ATOM      7  C   UNL     1       2.771   4.016  16.996  0.00  0.00    +0.000 C 
ENDROOT
BRANCH   6   8
ATOM      8  C   UNL     1       4.640   3.389  18.663  0.00  0.00    +0.000 C 
ATOM      9  O   UNL     1       5.112   2.823  19.642  0.00  0.00    +0.000 OA
ATOM     10  N   UNL     1       5.417   4.114  17.774  0.00  0.00    +0.000 N 
ATOM     11  H   UNL     1       4.930   4.806  17.218  0.00  0.00    +0.000 HD
BRANCH  10  12
ATOM     12  C   UNL     1       6.865   4.304  17.864  0.00  0.00    +0.000 C 
ATOM     13  C   UNL     1       7.550   4.558  16.510  0.00  0.00    +0.000 C 
ATOM     14  C   UNL     1       7.160   5.899  15.892  0.00  0.00    +0.000 C 
ATOM     15  C   UNL     1       7.404   7.063  16.849  0.00  0.00    +0.000 C 
ATOM     16  C   UNL     1       6.744   6.829  18.202  0.00  0.00    +0.000 C 
ATOM     17  C   UNL     1       7.162   5.485  18.806  0.00  0.00    +0.000 C 
ENDBRANCH  10  12
ENDBRANCH   6   8
BRANCH   1  18
ATOM     18  C   UNL     1       2.973   5.493  20.070  0.00  0.00    +0.000 C 
BRANCH  18  23
ATOM     19  C   UNL     1       1.864   8.806  18.592  0.00  0.00    +0.000 A 
ATOM     20  C   UNL     1       1.097   9.329  19.632  0.00  0.00    +0.000 A 
ATOM     21  C   UNL     1       0.877   8.582  20.790  0.00  0.00    +0.000 A 
ATOM     22  C   UNL     1       1.439   7.312  20.919  0.00  0.00    +0.000 A 
ATOM     23  C   UNL     1       2.195   6.765  19.874  0.00  0.00    +0.000 A 
ATOM     24  C   UNL     1       2.377   7.513  18.699  0.00  0.00    +0.000 A 
BRANCH  19  26
ATOM     25  C   UNL     1       2.232  11.012  17.836  0.00  0.00    +0.000 C 
ATOM     26  O   UNL     1       2.060   9.633  17.520  0.00  0.00    +0.000 OA
ENDBRANCH  19  26
ENDBRANCH  18  23
ENDBRANCH   1  18
TORSDOF 5
ENDMDL
