MODEL 1
REMARK VINA RESULT:      -8.9      0.000      0.000
REMARK  Name = 
REMARK  9 active torsions:
REMARK  status: ('A' for Active; 'I' for Inactive)
REMARK    1  A    between atoms: C_1  and  O_2
REMARK    2  A    between atoms: O_2  and  C_3
REMARK    3  A    between atoms: C_6  and  C_7
REMARK    4  A    between atoms: N_12  and  C_13
REMARK    5  A    between atoms: C_13  and  C_14
REMARK    6  A    between atoms: N_16  and  C_17
REMARK    7  A    between atoms: C_17  and  C_18
REMARK    8  A    between atoms: C_23  and  O_24
REMARK    9  A    between atoms: O_24  and  C_25
REMARK                            x       y       z     vdW  Elec       q    Type
REMARK                         _______ _______ _______ _____ _____    ______ ____
ROOT
ATOM      1  C   UNL     1       8.503   8.974  18.439  0.00  0.00    +0.000 A 
ATOM      2  C   UNL     1       7.672   8.645  17.334  0.00  0.00    +0.000 A 
ATOM      3  C   UNL     1       7.420   7.304  17.458  0.00  0.00    +0.000 A 
ATOM      4  C   UNL     1       6.652   6.368  16.707  0.00  0.00    +0.000 A 
ATOM      5  O   UNL     1       6.029   6.684  15.696  0.00  0.00    +0.000 OA
ATOM      6  N   UNL     1       6.670   5.069  17.235  0.00  0.00    +0.000 N 
ATOM      7  N   UNL     1       7.363   4.686  18.394  0.00  0.00    +0.000 NA
ATOM      8  C   UNL     1       8.060   5.592  19.021  0.00  0.00    +0.000 A 
ATOM      9  N   UNL     1       8.089   6.897  18.562  0.00  0.00    +0.000 N 
ATOM     10  N   UNL     1       8.755   7.882  19.191  0.00  0.00    +0.000 NA
ENDROOT
BRANCH   1  14
ATOM     11  C   UNL     1       9.774  12.909  19.537  0.00  0.00    +0.000 A 
ATOM     12  C   UNL     1       9.978  11.833  20.404  0.00  0.00    +0.000 A 
ATOM     13  C   UNL     1       9.608  10.538  20.031  0.00  0.00    +0.000 A 
ATOM     14  C   UNL     1       8.998  10.305  18.793  0.00  0.00    +0.000 A 
ATOM     15  C   UNL     1       8.808  11.389  17.922  0.00  0.00    +0.000 A 
ATOM     16  C   UNL     1       9.190  12.683  18.292  0.00  0.00    +0.000 A 
BRANCH  11  18
ATOM     17  C   UNL     1       9.571  15.255  19.363  0.00  0.00    +0.000 C 
ATOM     18  O   UNL     1      10.139  14.132  20.026  0.00  0.00    +0.000 OA
ENDBRANCH  11  18
ENDBRANCH   1  14
BRANCH   6  19
ATOM     19  C   UNL     1       5.977   4.014  16.507  0.00  0.00    +0.000 C 
BRANCH  19  20
ATOM     20  C   UNL     1       4.571   3.713  17.016  0.00  0.00    +0.000 C 
ATOM     21  O   UNL     1       3.709   4.592  17.042  0.00  0.00    +0.000 OA
ATOM     22  N   UNL     1       4.304   2.410  17.394  0.00  0.00    +0.000 N 
ATOM     23  H   UNL     1       4.886   1.697  16.970  0.00  0.00    +0.000 HD
BRANCH  22  24
ATOM     24  C   UNL     1       2.933   2.076  17.716  0.00  0.00    +0.000 C 
BRANCH  24  25
ATOM     25  C   UNL     1       2.462   2.444  19.097  0.00  0.00    +0.000 A 
ATOM     26  C   UNL     1       1.107   2.773  19.318  0.00  0.00    +0.000 A 
ATOM     27  C   UNL     1       0.648   3.171  20.576  0.00  0.00    +0.000 A 
ATOM     28  C   UNL     1       1.526   3.211  21.651  0.00  0.00    +0.000 A 
ATOM     29  C   UNL     1       2.859   2.844  21.464  0.00  0.00    +0.000 A 
ATOM     30  C   UNL     1       3.334   2.447  20.205  0.00  0.00    +0.000 A 
BRANCH  30  31
ATOM     31  O   UNL     1       4.686   2.222  20.189  0.00  0.00    +0.000 OA
ATOM     32  C   UNL     1       5.205   1.147  20.964  0.00  0.00    +0.000 C 
ENDBRANCH  30  31
ENDBRANCH  24  25
ENDBRANCH  22  24
ENDBRANCH  19  20
ENDBRANCH   6  19
TORSDOF 7
ENDMDL
MODEL 2
REMARK VINA RESULT:      -8.4      1.517      2.075
REMARK  Name = 
REMARK  9 active torsions:
REMARK  status: ('A' for Active; 'I' for Inactive)
REMARK    1  A    between atoms: C_1  and  O_2
REMARK    2  A    between atoms: O_2  and  C_3
REMARK    3  A    between atoms: C_6  and  C_7
REMARK    4  A    between atoms: N_12  and  C_13
REMARK    5  A    between atoms: C_13  and  C_14
REMARK    6  A    between atoms: N_16  and  C_17
REMARK    7  A    between atoms: C_17  and  C_18
REMARK    8  A    between atoms: C_23  and  O_24
REMARK    9  A    between atoms: O_24  and  C_25
REMARK                            x       y       z     vdW  Elec       q    Type
REMARK                         _______ _______ _______ _____ _____    ______ ____
ROOT
ATOM      1  C   UNL     1       8.196   8.633  18.215  0.00  0.00    +0.000 A 
ATOM      2  C   UNL     1       7.299   8.326  17.156  0.00  0.00    +0.000 A 
ATOM      3  C   UNL     1       7.028   6.990  17.287  0.00  0.00    +0.000 A 
ATOM      4  C   UNL     1       6.202   6.073  16.575  0.00  0.00    +0.000 A 
ATOM      5  O   UNL     1       5.530   6.407  15.601  0.00  0.00    +0.000 OA
ATOM      6  N   UNL     1       6.224   4.771  17.094  0.00  0.00    +0.000 N 
ATOM      7  N   UNL     1       6.972   4.368  18.211  0.00  0.00    +0.000 NA
ATOM      8  C   UNL     1       7.720   5.256  18.803  0.00  0.00    +0.000 A 
ATOM      9  N   UNL     1       7.749   6.564  18.350  0.00  0.00    +0.000 N 
ATOM     10  N   UNL     1       8.468   7.532  18.947  0.00  0.00    +0.000 NA
ENDROOT
BRANCH   1  14
ATOM     11  C   UNL     1       9.939  12.437  19.104  0.00  0.00    +0.000 A 
ATOM     12  C   UNL     1       9.156  12.270  17.961  0.00  0.00    +0.000 A 
ATOM     13  C   UNL     1       8.545  11.042  17.689  0.00  0.00    +0.000 A 
ATOM     14  C   UNL     1       8.735   9.952  18.548  0.00  0.00    +0.000 A 
ATOM     15  C   UNL     1       9.513  10.132  19.701  0.00  0.00    +0.000 A 
ATOM     16  C   UNL     1      10.114  11.365  19.977  0.00  0.00    +0.000 A 
BRANCH  11  18
ATOM     17  C   UNL     1      11.928  13.671  19.420  0.00  0.00    +0.000 C 
ATOM     18  O   UNL     1      10.517  13.668  19.243  0.00  0.00    +0.000 OA
ENDBRANCH  11  18
ENDBRANCH   1  14
BRANCH   6  19
ATOM     19  C   UNL     1       5.471   3.734  16.399  0.00  0.00    +0.000 C 
BRANCH  19  20
ATOM     20  C   UNL     1       4.093   3.452  16.988  0.00  0.00    +0.000 C 
ATOM     21  O   UNL     1       3.866   2.397  17.581  0.00  0.00    +0.000 OA
ATOM     22  N   UNL     1       3.140   4.446  16.866  0.00  0.00    +0.000 N 
ATOM     23  H   UNL     1       3.494   5.389  16.757  0.00  0.00    +0.000 HD
BRANCH  22  24
ATOM     24  C   UNL     1       1.887   4.259  17.565  0.00  0.00    +0.000 C 
BRANCH  24  25
ATOM     25  C   UNL     1       1.980   3.991  19.043  0.00  0.00    +0.000 A 
ATOM     26  C   UNL     1       1.430   2.809  19.584  0.00  0.00    +0.000 A 
ATOM     27  C   UNL     1       1.452   2.556  20.958  0.00  0.00    +0.000 A 
ATOM     28  C   UNL     1       2.058   3.461  21.818  0.00  0.00    +0.000 A 
ATOM     29  C   UNL     1       2.649   4.613  21.299  0.00  0.00    +0.000 A 
ATOM     30  C   UNL     1       2.631   4.882  19.922  0.00  0.00    +0.000 A 
BRANCH  30  31
ATOM     31  O   UNL     1       3.167   6.104  19.608  0.00  0.00    +0.000 OA
ATOM     32  C   UNL     1       2.318   7.245  19.627  0.00  0.00    +0.000 C 
ENDBRANCH  30  31
ENDBRANCH  24  25
ENDBRANCH  22  24
ENDBRANCH  19  20
ENDBRANCH   6  19
TORSDOF 7
ENDMDL
MODEL 3
REMARK VINA RESULT:      -8.1      1.622      2.235
REMARK  Name = 
REMARK  9 active torsions:
REMARK  status: ('A' for Active; 'I' for Inactive)
REMARK    1  A    between atoms: C_1  and  O_2
REMARK    2  A    between atoms: O_2  and  C_3
REMARK    3  A    between atoms: C_6  and  C_7
REMARK    4  A    between atoms: N_12  and  C_13
REMARK    5  A    between atoms: C_13  and  C_14
REMARK    6  A    between atoms: N_16  and  C_17
REMARK    7  A    between atoms: C_17  and  C_18
REMARK    8  A    between atoms: C_23  and  O_24
REMARK    9  A    between atoms: O_24  and  C_25
REMARK                            x       y       z     vdW  Elec       q    Type
REMARK                         _______ _______ _______ _____ _____    ______ ____
ROOT
ATOM      1  C   UNL     1       8.420   9.050  18.393  0.00  0.00    +0.000 A 
ATOM      2  C   UNL     1       7.562   8.681  17.321  0.00  0.00    +0.000 A 
ATOM      3  C   UNL     1       7.367   7.333  17.462  0.00  0.00    +0.000 A 
ATOM      4  C   UNL     1       6.609   6.362  16.745  0.00  0.00    +0.000 A 
ATOM      5  O   UNL     1       5.937   6.647  15.757  0.00  0.00    +0.000 OA
ATOM      6  N   UNL     1       6.697   5.069  17.279  0.00  0.00    +0.000 N 
ATOM      7  N   UNL     1       7.448   4.720  18.413  0.00  0.00    +0.000 NA
ATOM      8  C   UNL     1       8.131   5.657  19.009  0.00  0.00    +0.000 A 
ATOM      9  N   UNL     1       8.093   6.960  18.542  0.00  0.00    +0.000 N 
ATOM     10  N   UNL     1       8.743   7.974  19.141  0.00  0.00    +0.000 NA
ENDROOT
BRANCH   1  14
ATOM     11  C   UNL     1       9.569  13.049  19.389  0.00  0.00    +0.000 A 
ATOM     12  C   UNL     1       9.650  12.033  20.342  0.00  0.00    +0.000 A 
ATOM     13  C   UNL     1       9.321  10.715  20.010  0.00  0.00    +0.000 A 
ATOM     14  C   UNL     1       8.875  10.402  18.720  0.00  0.00    +0.000 A 
ATOM     15  C   UNL     1       8.809  11.426  17.764  0.00  0.00    +0.000 A 
ATOM     16  C   UNL     1       9.149  12.742  18.096  0.00  0.00    +0.000 A 
BRANCH  11  18
ATOM     17  C   UNL     1      11.098  14.414  20.563  0.00  0.00    +0.000 C 
ATOM     18  O   UNL     1       9.877  14.302  19.840  0.00  0.00    +0.000 OA
ENDBRANCH  11  18
ENDBRANCH   1  14
BRANCH   6  19
ATOM     19  C   UNL     1       6.019   3.983  16.582  0.00  0.00    +0.000 C 
BRANCH  19  20
ATOM     20  C   UNL     1       4.683   3.576  17.194  0.00  0.00    +0.000 C 
ATOM     21  O   UNL     1       4.640   2.940  18.248  0.00  0.00    +0.000 OA
ATOM     22  N   UNL     1       3.538   3.994  16.542  0.00  0.00    +0.000 N 
ATOM     23  H   UNL     1       3.634   4.820  15.962  0.00  0.00    +0.000 HD
BRANCH  22  24
ATOM     24  C   UNL     1       2.271   3.761  17.201  0.00  0.00    +0.000 C 
BRANCH  24  25
ATOM     25  C   UNL     1       2.052   4.482  18.504  0.00  0.00    +0.000 A 
ATOM     26  C   UNL     1       1.439   3.816  19.587  0.00  0.00    +0.000 A 
ATOM     27  C   UNL     1       1.174   4.473  20.791  0.00  0.00    +0.000 A 
ATOM     28  C   UNL     1       1.549   5.799  20.953  0.00  0.00    +0.000 A 
ATOM     29  C   UNL     1       2.198   6.462  19.911  0.00  0.00    +0.000 A 
ATOM     30  C   UNL     1       2.468   5.816  18.695  0.00  0.00    +0.000 A 
BRANCH  30  31
ATOM     31  O   UNL     1       3.018   6.650  17.756  0.00  0.00    +0.000 OA
ATOM     32  C   UNL     1       2.744   8.044  17.841  0.00  0.00    +0.000 C 
ENDBRANCH  30  31
ENDBRANCH  24  25
ENDBRANCH  22  24
ENDBRANCH  19  20
ENDBRANCH   6  19
TORSDOF 7
ENDMDL
MODEL 4
REMARK VINA RESULT:      -8.1      1.709      1.943
REMARK  Name = 
REMARK  9 active torsions:
REMARK  status: ('A' for Active; 'I' for Inactive)
REMARK    1  A    between atoms: C_1  and  O_2
REMARK    2  A    between atoms: O_2  and  C_3
REMARK    3  A    between atoms: C_6  and  C_7
REMARK    4  A    between atoms: N_12  and  C_13
REMARK    5  A    between atoms: C_13  and  C_14
REMARK    6  A    between atoms: N_16  and  C_17
REMARK    7  A    between atoms: C_17  and  C_18
REMARK    8  A    between atoms: C_23  and  O_24
REMARK    9  A    between atoms: O_24  and  C_25
REMARK                            x       y       z     vdW  Elec       q    Type
REMARK                         _______ _______ _______ _____ _____    ______ ____
ROOT
ATOM      1  C   UNL     1       8.515   9.070  18.351  0.00  0.00    +0.000 A 
ATOM      2  C   UNL     1       7.646   8.670  17.299  0.00  0.00    +0.000 A 
ATOM      3  C   UNL     1       7.430   7.332  17.497  0.00  0.00    +0.000 A 
ATOM      4  C   UNL     1       6.653   6.345  16.825  0.00  0.00    +0.000 A 
ATOM      5  O   UNL     1       5.982   6.598  15.828  0.00  0.00    +0.000 OA
ATOM      6  N   UNL     1       6.723   5.074  17.412  0.00  0.00    +0.000 N 
ATOM      7  N   UNL     1       7.473   4.761  18.557  0.00  0.00    +0.000 NA
ATOM      8  C   UNL     1       8.174   5.711  19.110  0.00  0.00    +0.000 A 
ATOM      9  N   UNL     1       8.154   6.993  18.589  0.00  0.00    +0.000 N 
ATOM     10  N   UNL     1       8.823   8.021  19.142  0.00  0.00    +0.000 NA
ENDROOT
BRANCH   1  14
ATOM     11  C   UNL     1       9.743  13.076  19.214  0.00  0.00    +0.000 A 
ATOM     12  C   UNL     1      10.051  12.037  20.095  0.00  0.00    +0.000 A 
ATOM     13  C   UNL     1       9.694  10.719  19.796  0.00  0.00    +0.000 A 
ATOM     14  C   UNL     1       8.994  10.426  18.620  0.00  0.00    +0.000 A 
ATOM     15  C   UNL     1       8.699  11.473  17.733  0.00  0.00    +0.000 A 
ATOM     16  C   UNL     1       9.067  12.790  18.029  0.00  0.00    +0.000 A 
BRANCH  11  18
ATOM     17  C   UNL     1      10.154  15.324  18.620  0.00  0.00    +0.000 C 
ATOM     18  O   UNL     1      10.107  14.325  19.632  0.00  0.00    +0.000 OA
ENDBRANCH  11  18
ENDBRANCH   1  14
BRANCH   6  19
ATOM     19  C   UNL     1       6.024   3.971  16.764  0.00  0.00    +0.000 C 
BRANCH  19  20
ATOM     20  C   UNL     1       4.666   3.638  17.374  0.00  0.00    +0.000 C 
ATOM     21  O   UNL     1       4.583   2.930  18.377  0.00  0.00    +0.000 OA
ATOM     22  N   UNL     1       3.553   4.203  16.778  0.00  0.00    +0.000 N 
ATOM     23  H   UNL     1       3.714   5.059  16.260  0.00  0.00    +0.000 HD
BRANCH  22  24
ATOM     24  C   UNL     1       2.281   4.033  17.446  0.00  0.00    +0.000 C 
BRANCH  24  25
ATOM     25  C   UNL     1       2.004   4.955  18.602  0.00  0.00    +0.000 A 
ATOM     26  C   UNL     1       2.365   6.318  18.523  0.00  0.00    +0.000 A 
ATOM     27  C   UNL     1       2.170   7.188  19.599  0.00  0.00    +0.000 A 
ATOM     28  C   UNL     1       1.575   6.724  20.764  0.00  0.00    +0.000 A 
ATOM     29  C   UNL     1       1.168   5.392  20.846  0.00  0.00    +0.000 A 
ATOM     30  C   UNL     1       1.361   4.506  19.775  0.00  0.00    +0.000 A 
BRANCH  30  31
ATOM     31  O   UNL     1       0.993   3.220  20.072  0.00  0.00    +0.000 OA
ATOM     32  C   UNL     1       1.681   2.539  21.115  0.00  0.00    +0.000 C 
ENDBRANCH  30  31
ENDBRANCH  24  25
ENDBRANCH  22  24
ENDBRANCH  19  20
ENDBRANCH   6  19
TORSDOF 7
ENDMDL
MODEL 5
REMARK VINA RESULT:      -8.0      8.457     11.058
REMARK  Name = 
REMARK  9 active torsions:
REMARK  status: ('A' for Active; 'I' for Inactive)
REMARK    1  A    between atoms: C_1  and  O_2
REMARK    2  A    between atoms: O_2  and  C_3
REMARK    3  A    between atoms: C_6  and  C_7
REMARK    4  A    between atoms: N_12  and  C_13
REMARK    5  A    between atoms: C_13  and  C_14
REMARK    6  A    between atoms: N_16  and  C_17
REMARK    7  A    between atoms: C_17  and  C_18
REMARK    8  A    between atoms: C_23  and  O_24
REMARK    9  A    between atoms: O_24  and  C_25
REMARK                            x       y       z     vdW  Elec       q    Type
REMARK                         _______ _______ _______ _____ _____    ______ ____
ROOT
ATOM      1  C   UNL     1       1.579   7.989  20.317  0.00  0.00    +0.000 A 
ATOM      2  C   UNL     1       1.003   8.323  21.574  0.00  0.00    +0.000 A 
ATOM      3  C   UNL     1       0.516   9.594  21.423  0.00  0.00    +0.000 A 
ATOM      4  C   UNL     1      -0.184  10.494  22.277  0.00  0.00    +0.000 A 
ATOM      5  O   UNL     1      -0.481  10.209  23.435  0.00  0.00    +0.000 OA
ATOM      6  N   UNL     1      -0.506  11.716  21.670  0.00  0.00    +0.000 N 
ATOM      7  N   UNL     1      -0.189  12.060  20.346  0.00  0.00    +0.000 NA
ATOM      8  C   UNL     1       0.469  11.194  19.627  0.00  0.00    +0.000 A 
ATOM      9  N   UNL     1       0.819   9.964  20.156  0.00  0.00    +0.000 N 
ATOM     10  N   UNL     1       1.460   9.016  19.449  0.00  0.00    +0.000 NA
ENDROOT
BRANCH   1  14
ATOM     11  C   UNL     1       3.175   4.204  19.126  0.00  0.00    +0.000 A 
ATOM     12  C   UNL     1       3.508   5.363  18.423  0.00  0.00    +0.000 A 
ATOM     13  C   UNL     1       3.028   6.609  18.836  0.00  0.00    +0.000 A 
ATOM     14  C   UNL     1       2.179   6.708  19.945  0.00  0.00    +0.000 A 
ATOM     15  C   UNL     1       1.859   5.540  20.654  0.00  0.00    +0.000 A 
ATOM     16  C   UNL     1       2.350   4.295  20.245  0.00  0.00    +0.000 A 
BRANCH  11  18
ATOM     17  C   UNL     1       4.235   2.135  19.547  0.00  0.00    +0.000 C 
ATOM     18  O   UNL     1       3.671   3.041  18.605  0.00  0.00    +0.000 OA
ENDBRANCH  11  18
ENDBRANCH   1  14
BRANCH   6  19
ATOM     19  C   UNL     1      -1.158  12.740  22.476  0.00  0.00    +0.000 C 
BRANCH  19  20
ATOM     20  C   UNL     1      -2.655  12.887  22.220  0.00  0.00    +0.000 C 
ATOM     21  O   UNL     1      -3.462  12.813  23.146  0.00  0.00    +0.000 OA
ATOM     22  N   UNL     1      -3.049  13.152  20.921  0.00  0.00    +0.000 N 
ATOM     23  H   UNL     1      -2.357  13.597  20.330  0.00  0.00    +0.000 HD
BRANCH  22  24
ATOM     24  C   UNL     1      -4.445  13.461  20.697  0.00  0.00    +0.000 C 
BRANCH  24  25
ATOM     25  C   UNL     1      -5.285  12.364  20.100  0.00  0.00    +0.000 A 
ATOM     26  C   UNL     1      -6.465  11.943  20.750  0.00  0.00    +0.000 A 
ATOM     27  C   UNL     1      -7.238  10.892  20.250  0.00  0.00    +0.000 A 
ATOM     28  C   UNL     1      -6.869  10.263  19.069  0.00  0.00    +0.000 A 
ATOM     29  C   UNL     1      -5.732  10.695  18.386  0.00  0.00    +0.000 A 
ATOM     30  C   UNL     1      -4.944  11.747  18.878  0.00  0.00    +0.000 A 
BRANCH  30  31
ATOM     31  O   UNL     1      -3.816  11.965  18.132  0.00  0.00    +0.000 OA
ATOM     32  C   UNL     1      -2.885  10.900  17.979  0.00  0.00    +0.000 C 
ENDBRANCH  30  31
ENDBRANCH  24  25
ENDBRANCH  22  24
ENDBRANCH  19  20
ENDBRANCH   6  19
TORSDOF 7
ENDMDL
MODEL 6
REMARK VINA RESULT:      -8.0      2.141      2.498
REMARK  Name = 
REMARK  9 active torsions:
REMARK  status: ('A' for Active; 'I' for Inactive)
REMARK    1  A    between atoms: C_1  and  O_2
REMARK    2  A    between atoms: O_2  and  C_3
REMARK    3  A    between atoms: C_6  and  C_7
REMARK    4  A    between atoms: N_12  and  C_13
REMARK    5  A    between atoms: C_13  and  C_14
REMARK    6  A    between atoms: N_16  and  C_17
REMARK    7  A    between atoms: C_17  and  C_18
REMARK    8  A    between atoms: C_23  and  O_24
REMARK    9  A    between atoms: O_24  and  C_25
REMARK                            x       y       z     vdW  Elec       q    Type
REMARK                         _______ _______ _______ _____ _____    ______ ____
ROOT
ATOM      1  C   UNL     1       8.630   8.991  18.528  0.00  0.00    +0.000 A 
ATOM      2  C   UNL     1       7.751   8.700  17.449  0.00  0.00    +0.000 A 
ATOM      3  C   UNL     1       7.455   7.368  17.573  0.00  0.00    +0.000 A 
ATOM      4  C   UNL     1       6.628   6.466  16.843  0.00  0.00    +0.000 A 
ATOM      5  O   UNL     1       5.984   6.811  15.856  0.00  0.00    +0.000 OA
ATOM      6  N   UNL     1       6.617   5.163  17.362  0.00  0.00    +0.000 N 
ATOM      7  N   UNL     1       7.334   4.747  18.495  0.00  0.00    +0.000 NA
ATOM      8  C   UNL     1       8.084   5.622  19.103  0.00  0.00    +0.000 A 
ATOM      9  N   UNL     1       8.145   6.929  18.652  0.00  0.00    +0.000 N 
ATOM     10  N   UNL     1       8.868   7.885  19.264  0.00  0.00    +0.000 NA
ENDROOT
BRANCH   1  14
ATOM     11  C   UNL     1      10.424  12.736  19.553  0.00  0.00    +0.000 A 
ATOM     12  C   UNL     1      10.239  12.386  18.215  0.00  0.00    +0.000 A 
ATOM     13  C   UNL     1       9.610  11.184  17.874  0.00  0.00    +0.000 A 
ATOM     14  C   UNL     1       9.184  10.301  18.872  0.00  0.00    +0.000 A 
ATOM     15  C   UNL     1       9.362  10.666  20.215  0.00  0.00    +0.000 A 
ATOM     16  C   UNL     1       9.982  11.874  20.555  0.00  0.00    +0.000 A 
BRANCH  11  18
ATOM     17  C   UNL     1      10.262  15.060  19.943  0.00  0.00    +0.000 C 
ATOM     18  O   UNL     1      11.085  13.914  19.763  0.00  0.00    +0.000 OA
ENDBRANCH  11  18
ENDBRANCH   1  14
BRANCH   6  19
ATOM     19  C   UNL     1       5.862   4.140  16.651  0.00  0.00    +0.000 C 
BRANCH  19  20
ATOM     20  C   UNL     1       4.438   3.936  17.159  0.00  0.00    +0.000 C 
ATOM     21  O   UNL     1       4.036   2.815  17.471  0.00  0.00    +0.000 OA
ATOM     22  N   UNL     1       3.651   5.064  17.297  0.00  0.00    +0.000 N 
ATOM     23  H   UNL     1       4.147   5.939  17.425  0.00  0.00    +0.000 HD
BRANCH  22  24
ATOM     24  C   UNL     1       2.363   4.905  17.936  0.00  0.00    +0.000 C 
BRANCH  24  25
ATOM     25  C   UNL     1       1.997   5.936  18.970  0.00  0.00    +0.000 A 
ATOM     26  C   UNL     1       2.195   7.308  18.702  0.00  0.00    +0.000 A 
ATOM     27  C   UNL     1       1.916   8.285  19.660  0.00  0.00    +0.000 A 
ATOM     28  C   UNL     1       1.397   7.917  20.893  0.00  0.00    +0.000 A 
ATOM     29  C   UNL     1       1.150   6.571  21.161  0.00  0.00    +0.000 A 
ATOM     30  C   UNL     1       1.429   5.577  20.210  0.00  0.00    +0.000 A 
BRANCH  30  31
ATOM     31  O   UNL     1       1.218   4.309  20.683  0.00  0.00    +0.000 OA
ATOM     32  C   UNL     1       2.214   3.716  21.508  0.00  0.00    +0.000 C 
ENDBRANCH  30  31
ENDBRANCH  24  25
ENDBRANCH  22  24
ENDBRANCH  19  20
ENDBRANCH   6  19
TORSDOF 7
ENDMDL
MODEL 7
REMARK VINA RESULT:      -7.9      8.203     10.420
REMARK  Name = 
REMARK  9 active torsions:
REMARK  status: ('A' for Active; 'I' for Inactive)
REMARK    1  A    between atoms: C_1  and  O_2
REMARK    2  A    between atoms: O_2  and  C_3
REMARK    3  A    between atoms: C_6  and  C_7
REMARK    4  A    between atoms: N_12  and  C_13
REMARK    5  A    between atoms: C_13  and  C_14
REMARK    6  A    between atoms: N_16  and  C_17
REMARK    7  A    between atoms: C_17  and  C_18
REMARK    8  A    between atoms: C_23  and  O_24
REMARK    9  A    between atoms: O_24  and  C_25
REMARK                            x       y       z     vdW  Elec       q    Type
REMARK                         _______ _______ _______ _____ _____    ______ ____
ROOT
ATOM      1  C   UNL     1       2.012   8.006  18.964  0.00  0.00    +0.000 A 
ATOM      2  C   UNL     1       1.587   9.237  18.393  0.00  0.00    +0.000 A 
ATOM      3  C   UNL     1       1.074   9.962  19.435  0.00  0.00    +0.000 A 
ATOM      4  C   UNL     1       0.509  11.265  19.550  0.00  0.00    +0.000 A 
ATOM      5  O   UNL     1       0.382  12.018  18.588  0.00  0.00    +0.000 OA
ATOM      6  N   UNL     1       0.126  11.601  20.857  0.00  0.00    +0.000 N 
ATOM      7  N   UNL     1       0.272  10.764  21.974  0.00  0.00    +0.000 NA
ATOM      8  C   UNL     1       0.781   9.578  21.791  0.00  0.00    +0.000 A 
ATOM      9  N   UNL     1       1.185   9.175  20.530  0.00  0.00    +0.000 N 
ATOM     10  N   UNL     1       1.756   7.980  20.289  0.00  0.00    +0.000 NA
ENDROOT
BRANCH   1  14
ATOM     11  C   UNL     1       4.110   4.782  17.092  0.00  0.00    +0.000 A 
ATOM     12  C   UNL     1       2.925   4.542  17.791  0.00  0.00    +0.000 A 
ATOM     13  C   UNL     1       2.210   5.598  18.365  0.00  0.00    +0.000 A 
ATOM     14  C   UNL     1       2.690   6.910  18.272  0.00  0.00    +0.000 A 
ATOM     15  C   UNL     1       3.874   7.144  17.557  0.00  0.00    +0.000 A 
ATOM     16  C   UNL     1       4.583   6.088  16.974  0.00  0.00    +0.000 A 
BRANCH  11  18
ATOM     17  C   UNL     1       5.839   3.912  15.739  0.00  0.00    +0.000 C 
ATOM     18  O   UNL     1       4.741   3.670  16.611  0.00  0.00    +0.000 OA
ENDBRANCH  11  18
ENDBRANCH   1  14
BRANCH   6  19
ATOM     19  C   UNL     1      -0.531  12.883  21.079  0.00  0.00    +0.000 C 
BRANCH  19  20
ATOM     20  C   UNL     1      -2.041  12.794  21.274  0.00  0.00    +0.000 C 
ATOM     21  O   UNL     1      -2.515  12.290  22.292  0.00  0.00    +0.000 OA
ATOM     22  N   UNL     1      -2.837  13.345  20.287  0.00  0.00    +0.000 N 
ATOM     23  H   UNL     1      -2.411  14.074  19.728  0.00  0.00    +0.000 HD
BRANCH  22  24
ATOM     24  C   UNL     1      -4.260  13.418  20.542  0.00  0.00    +0.000 C 
BRANCH  24  25
ATOM     25  C   UNL     1      -5.107  12.343  19.915  0.00  0.00    +0.000 A 
ATOM     26  C   UNL     1      -6.332  11.971  20.510  0.00  0.00    +0.000 A 
ATOM     27  C   UNL     1      -7.116  10.941  19.984  0.00  0.00    +0.000 A 
ATOM     28  C   UNL     1      -6.712  10.286  18.829  0.00  0.00    +0.000 A 
ATOM     29  C   UNL     1      -5.528  10.670  18.199  0.00  0.00    +0.000 A 
ATOM     30  C   UNL     1      -4.729  11.700  18.718  0.00  0.00    +0.000 A 
BRANCH  30  31
ATOM     31  O   UNL     1      -3.558  11.870  18.027  0.00  0.00    +0.000 OA
ATOM     32  C   UNL     1      -2.782  10.720  17.708  0.00  0.00    +0.000 C 
ENDBRANCH  30  31
ENDBRANCH  24  25
ENDBRANCH  22  24
ENDBRANCH  19  20
ENDBRANCH   6  19
TORSDOF 7
ENDMDL
MODEL 8
REMARK VINA RESULT:      -7.9      8.894     11.246
REMARK  Name = 
REMARK  9 active torsions:
REMARK  status: ('A' for Active; 'I' for Inactive)
REMARK    1  A    between atoms: C_1  and  O_2
REMARK    2  A    between atoms: O_2  and  C_3
REMARK    3  A    between atoms: C_6  and  C_7
REMARK    4  A    between atoms: N_12  and  C_13
REMARK    5  A    between atoms: C_13  and  C_14
REMARK    6  A    between atoms: N_16  and  C_17
REMARK    7  A    between atoms: C_17  and  C_18
REMARK    8  A    between atoms: C_23  and  O_24
REMARK    9  A    between atoms: O_24  and  C_25
REMARK                            x       y       z     vdW  Elec       q    Type
REMARK                         _______ _______ _______ _____ _____    ______ ____
ROOT
ATOM      1  C   UNL     1       1.727   8.214  19.816  0.00  0.00    +0.000 A 
ATOM      2  C   UNL     1       1.431   8.353  21.200  0.00  0.00    +0.000 A 
ATOM      3  C   UNL     1       0.674   9.490  21.296  0.00  0.00    +0.000 A 
ATOM      4  C   UNL     1       0.045  10.172  22.377  0.00  0.00    +0.000 A 
ATOM      5  O   UNL     1       0.114   9.776  23.538  0.00  0.00    +0.000 OA
ATOM      6  N   UNL     1      -0.661  11.320  21.988  0.00  0.00    +0.000 N 
ATOM      7  N   UNL     1      -0.764  11.787  20.668  0.00  0.00    +0.000 NA
ATOM      8  C   UNL     1      -0.148  11.122  19.731  0.00  0.00    +0.000 A 
ATOM      9  N   UNL     1       0.567   9.977  20.037  0.00  0.00    +0.000 N 
ATOM     10  N   UNL     1       1.187   9.228  19.107  0.00  0.00    +0.000 NA
ENDROOT
BRANCH   1  14
ATOM     11  C   UNL     1       3.714   4.961  17.876  0.00  0.00    +0.000 A 
ATOM     12  C   UNL     1       3.831   6.259  17.376  0.00  0.00    +0.000 A 
ATOM     13  C   UNL     1       3.223   7.333  18.032  0.00  0.00    +0.000 A 
ATOM     14  C   UNL     1       2.461   7.116  19.186  0.00  0.00    +0.000 A 
ATOM     15  C   UNL     1       2.359   5.811  19.691  0.00  0.00    +0.000 A 
ATOM     16  C   UNL     1       2.978   4.739  19.039  0.00  0.00    +0.000 A 
BRANCH  11  18
ATOM     17  C   UNL     1       5.655   4.259  16.728  0.00  0.00    +0.000 C 
ATOM     18  O   UNL     1       4.317   3.988  17.128  0.00  0.00    +0.000 OA
ENDBRANCH  11  18
ENDBRANCH   1  14
BRANCH   6  19
ATOM     19  C   UNL     1      -1.283  12.135  23.023  0.00  0.00    +0.000 C 
BRANCH  19  20
ATOM     20  C   UNL     1      -2.779  12.365  22.833  0.00  0.00    +0.000 C 
ATOM     21  O   UNL     1      -3.587  11.985  23.680  0.00  0.00    +0.000 OA
ATOM     22  N   UNL     1      -3.171  13.054  21.700  0.00  0.00    +0.000 N 
ATOM     23  H   UNL     1      -2.478  13.671  21.294  0.00  0.00    +0.000 HD
BRANCH  22  24
ATOM     24  C   UNL     1      -4.566  13.425  21.594  0.00  0.00    +0.000 C 
BRANCH  24  25
ATOM     25  C   UNL     1      -5.409  12.597  20.662  0.00  0.00    +0.000 A 
ATOM     26  C   UNL     1      -4.861  12.114  19.453  0.00  0.00    +0.000 A 
ATOM     27  C   UNL     1      -5.632  11.389  18.542  0.00  0.00    +0.000 A 
ATOM     28  C   UNL     1      -6.957  11.097  18.834  0.00  0.00    +0.000 A 
ATOM     29  C   UNL     1      -7.504  11.525  20.044  0.00  0.00    +0.000 A 
ATOM     30  C   UNL     1      -6.743  12.257  20.968  0.00  0.00    +0.000 A 
BRANCH  30  31
ATOM     31  O   UNL     1      -7.473  12.677  22.049  0.00  0.00    +0.000 OA
ATOM     32  C   UNL     1      -7.916  11.705  22.990  0.00  0.00    +0.000 C 
ENDBRANCH  30  31
ENDBRANCH  24  25
ENDBRANCH  22  24
ENDBRANCH  19  20
ENDBRANCH   6  19
TORSDOF 7
ENDMDL
MODEL 9
REMARK VINA RESULT:      -7.8      8.232     10.935
REMARK  Name = 
REMARK  9 active torsions:
REMARK  status: ('A' for Active; 'I' for Inactive)
REMARK    1  A    between atoms: C_1  and  O_2
REMARK    2  A    between atoms: O_2  and  C_3
REMARK    3  A    between atoms: C_6  and  C_7
REMARK    4  A    between atoms: N_12  and  C_13
REMARK    5  A    between atoms: C_13  and  C_14
REMARK    6  A    between atoms: N_16  and  C_17
REMARK    7  A    between atoms: C_17  and  C_18
REMARK    8  A    between atoms: C_23  and  O_24
REMARK    9  A    between atoms: O_24  and  C_25
REMARK                            x       y       z     vdW  Elec       q    Type
REMARK                         _______ _______ _______ _____ _____    ______ ____
ROOT
ATOM      1  C   UNL     1       1.700   7.533  20.332  0.00  0.00    +0.000 A 
ATOM      2  C   UNL     1       1.203   7.989  21.584  0.00  0.00    +0.000 A 
ATOM      3  C   UNL     1       0.766   9.266  21.356  0.00  0.00    +0.000 A 
ATOM      4  C   UNL     1       0.150  10.261  22.169  0.00  0.00    +0.000 A 
ATOM      5  O   UNL     1      -0.100  10.081  23.359  0.00  0.00    +0.000 OA
ATOM      6  N   UNL     1      -0.147  11.448  21.484  0.00  0.00    +0.000 N 
ATOM      7  N   UNL     1       0.117  11.674  20.124  0.00  0.00    +0.000 NA
ATOM      8  C   UNL     1       0.699  10.725  19.445  0.00  0.00    +0.000 A 
ATOM      9  N   UNL     1       1.021   9.524  20.052  0.00  0.00    +0.000 N 
ATOM     10  N   UNL     1       1.583   8.495  19.391  0.00  0.00    +0.000 NA
ENDROOT
BRANCH   1  14
ATOM     11  C   UNL     1       3.326   3.640  19.626  0.00  0.00    +0.000 A 
ATOM     12  C   UNL     1       2.057   3.784  20.190  0.00  0.00    +0.000 A 
ATOM     13  C   UNL     1       1.501   5.052  20.379  0.00  0.00    +0.000 A 
ATOM     14  C   UNL     1       2.224   6.200  20.033  0.00  0.00    +0.000 A 
ATOM     15  C   UNL     1       3.493   6.048  19.455  0.00  0.00    +0.000 A 
ATOM     16  C   UNL     1       4.043   4.777  19.256  0.00  0.00    +0.000 A 
BRANCH  11  18
ATOM     17  C   UNL     1       4.714   1.952  20.523  0.00  0.00    +0.000 C 
ATOM     18  O   UNL     1       3.781   2.355  19.527  0.00  0.00    +0.000 OA
ENDBRANCH  11  18
ENDBRANCH   1  14
BRANCH   6  19
ATOM     19  C   UNL     1      -0.713  12.561  22.236  0.00  0.00    +0.000 C 
BRANCH  19  20
ATOM     20  C   UNL     1      -2.231  12.677  22.147  0.00  0.00    +0.000 C 
ATOM     21  O   UNL     1      -2.940  12.422  23.121  0.00  0.00    +0.000 OA
ATOM     22  N   UNL     1      -2.760  13.123  20.950  0.00  0.00    +0.000 N 
ATOM     23  H   UNL     1      -2.143  13.686  20.376  0.00  0.00    +0.000 HD
BRANCH  22  24
ATOM     24  C   UNL     1      -4.180  13.398  20.909  0.00  0.00    +0.000 C 
BRANCH  24  25
ATOM     25  C   UNL     1      -5.027  12.426  20.134  0.00  0.00    +0.000 A 
ATOM     26  C   UNL     1      -6.330  12.112  20.578  0.00  0.00    +0.000 A 
ATOM     27  C   UNL     1      -7.122  11.174  19.911  0.00  0.00    +0.000 A 
ATOM     28  C   UNL     1      -6.644  10.557  18.764  0.00  0.00    +0.000 A 
ATOM     29  C   UNL     1      -5.378  10.888  18.281  0.00  0.00    +0.000 A 
ATOM     30  C   UNL     1      -4.570  11.825  18.943  0.00  0.00    +0.000 A 
BRANCH  30  31
ATOM     31  O   UNL     1      -3.325  11.947  18.384  0.00  0.00    +0.000 OA
ATOM     32  C   UNL     1      -2.712  10.790  17.827  0.00  0.00    +0.000 C 
ENDBRANCH  30  31
ENDBRANCH  24  25
ENDBRANCH  22  24
ENDBRANCH  19  20
ENDBRANCH   6  19
TORSDOF 7
ENDMDL
