MODEL 1
REMARK VINA RESULT:      -7.7      0.000      0.000
REMARK  Name = 
REMARK  6 active torsions:
REMARK  status: ('A' for Active; 'I' for Inactive)
REMARK    1  A    between atoms: C_1  and  O_2
REMARK    2  A    between atoms: O_2  and  C_3
REMARK    3  A    between atoms: C_5  and  O_6
REMARK    4  A    between atoms: O_6  and  C_7
REMARK    5  A    between atoms: C_8  and  C_9
REMARK    6  A    between atoms: C_18  and  N_19
REMARK                            x       y       z     vdW  Elec       q    Type
REMARK                         _______ _______ _______ _____ _____    ______ ____
ROOT
ATOM      1  C   UNL     1       1.463   9.680  18.570  0.00  0.00    +0.000 A 
ATOM      2  C   UNL     1       1.417   8.748  19.586  0.00  0.00    +0.000 A 
ATOM      3  N   UNL     1       2.228   7.722  19.188  0.00  0.00    +0.000 N 
ATOM      4  C   UNL     1       2.611   6.593  19.884  0.00  0.00    +0.000 A 
ATOM      5  C   UNL     1       3.462   5.738  19.311  0.00  0.00    +0.000 A 
ATOM      6  C   UNL     1       3.941   6.065  17.911  0.00  0.00    +0.000 A 
ATOM      7  N   UNL     1       4.847   5.206  17.301  0.00  0.00    +0.000 N 
ATOM      8  C   UNL     1       5.810   4.376  18.014  0.00  0.00    +0.000 C 
ATOM      9  C   UNL     1       7.113   4.592  17.264  0.00  0.00    +0.000 C 
ATOM     10  C   UNL     1       6.669   4.731  15.812  0.00  0.00    +0.000 C 
ATOM     11  C   UNL     1       5.257   5.363  15.904  0.00  0.00    +0.000 C 
ATOM     12  N   UNL     1       3.520   7.132  17.265  0.00  0.00    +0.000 NA
ATOM     13  C   UNL     1       2.682   7.999  17.909  0.00  0.00    +0.000 A 
ATOM     14  N   UNL     1       2.223   9.177  17.525  0.00  0.00    +0.000 NA
ENDROOT
BRANCH   1  18
ATOM     15  C   UNL     1       0.024  13.733  18.764  0.00  0.00    +0.000 A 
ATOM     16  C   UNL     1      -0.892  12.676  18.687  0.00  0.00    +0.000 A 
ATOM     17  C   UNL     1      -0.482  11.338  18.565  0.00  0.00    +0.000 A 
ATOM     18  C   UNL     1       0.895  11.033  18.567  0.00  0.00    +0.000 A 
ATOM     19  C   UNL     1       1.808  12.107  18.626  0.00  0.00    +0.000 A 
ATOM     20  C   UNL     1       1.387  13.441  18.731  0.00  0.00    +0.000 A 
ATOM     21 CL   UNL     1       2.633  14.622  18.909  0.00  0.00    +0.000 Cl
BRANCH  15  23
ATOM     22  C   UNL     1      -0.775  15.353  20.322  0.00  0.00    +0.000 C 
ATOM     23  O   UNL     1      -0.581  14.944  18.975  0.00  0.00    +0.000 OA
ENDBRANCH  15  23
BRANCH  17  24
ATOM     24  O   UNL     1      -1.389  10.309  18.506  0.00  0.00    +0.000 OA
ATOM     25  C   UNL     1      -1.977  10.030  17.238  0.00  0.00    +0.000 C 
ENDBRANCH  17  24
ENDBRANCH   1  18
BRANCH  10  26
ATOM     26  N   UNL     1       7.652   5.504  15.049  0.00  0.00    +0.000 NA
ATOM     27  H   UNL     1       8.541   5.505  15.554  0.00  0.00    +0.000 HD
ATOM     28  H   UNL     1       7.367   6.482  15.017  0.00  0.00    +0.000 HD
ENDBRANCH  10  26
TORSDOF 4
ENDMDL
MODEL 2
REMARK VINA RESULT:      -7.0      4.287      9.003
REMARK  Name = 
REMARK  6 active torsions:
REMARK  status: ('A' for Active; 'I' for Inactive)
REMARK    1  A    between atoms: C_1  and  O_2
REMARK    2  A    between atoms: O_2  and  C_3
REMARK    3  A    between atoms: C_5  and  O_6
REMARK    4  A    between atoms: O_6  and  C_7
REMARK    5  A    between atoms: C_8  and  C_9
REMARK    6  A    between atoms: C_18  and  N_19
REMARK                            x       y       z     vdW  Elec       q    Type
REMARK                         _______ _______ _______ _____ _____    ______ ____
ROOT
ATOM      1  C   UNL     1       1.671   7.985  20.239  0.00  0.00    +0.000 A 
ATOM      2  C   UNL     1       1.580   8.107  21.610  0.00  0.00    +0.000 A 
ATOM      3  N   UNL     1       0.714   9.140  21.835  0.00  0.00    +0.000 N 
ATOM      4  C   UNL     1       0.199   9.602  23.030  0.00  0.00    +0.000 A 
ATOM      5  C   UNL     1      -0.683  10.605  23.009  0.00  0.00    +0.000 A 
ATOM      6  C   UNL     1      -1.048  11.184  21.657  0.00  0.00    +0.000 A 
ATOM      7  N   UNL     1      -1.983  12.211  21.604  0.00  0.00    +0.000 N 
ATOM      8  C   UNL     1      -3.052  12.409  22.576  0.00  0.00    +0.000 C 
ATOM      9  C   UNL     1      -4.285  12.657  21.725  0.00  0.00    +0.000 C 
ATOM     10  C   UNL     1      -3.745  13.442  20.535  0.00  0.00    +0.000 C 
ATOM     11  C   UNL     1      -2.294  12.924  20.364  0.00  0.00    +0.000 C 
ATOM     12  N   UNL     1      -0.504  10.742  20.543  0.00  0.00    +0.000 NA
ATOM     13  C   UNL     1       0.362   9.686  20.611  0.00  0.00    +0.000 A 
ATOM     14  N   UNL     1       0.937   8.998  19.641  0.00  0.00    +0.000 NA
ENDROOT
BRANCH   1  18
ATOM     15  C   UNL     1       3.606   5.061  17.740  0.00  0.00    +0.000 A 
ATOM     16  C   UNL     1       2.793   4.637  18.800  0.00  0.00    +0.000 A 
ATOM     17  C   UNL     1       2.182   5.543  19.683  0.00  0.00    +0.000 A 
ATOM     18  C   UNL     1       2.346   6.929  19.476  0.00  0.00    +0.000 A 
ATOM     19  C   UNL     1       3.182   7.343  18.417  0.00  0.00    +0.000 A 
ATOM     20  C   UNL     1       3.801   6.429  17.553  0.00  0.00    +0.000 A 
ATOM     21 CL   UNL     1       4.696   7.106  16.241  0.00  0.00    +0.000 Cl
BRANCH  15  23
ATOM     22  C   UNL     1       3.805   2.705  17.423  0.00  0.00    +0.000 C 
ATOM     23  O   UNL     1       4.025   4.026  16.947  0.00  0.00    +0.000 OA
ENDBRANCH  15  23
BRANCH  17  24
ATOM     24  O   UNL     1       1.375   5.117  20.708  0.00  0.00    +0.000 OA
ATOM     25  C   UNL     1       1.413   3.730  21.033  0.00  0.00    +0.000 C 
ENDBRANCH  17  24
ENDBRANCH   1  18
BRANCH  10  26
ATOM     26  N   UNL     1      -4.613  13.266  19.369  0.00  0.00    +0.000 NA
ATOM     27  H   UNL     1      -4.206  13.759  18.571  0.00  0.00    +0.000 HD
ATOM     28  H   UNL     1      -5.507  13.728  19.535  0.00  0.00    +0.000 HD
ENDBRANCH  10  26
TORSDOF 4
ENDMDL
MODEL 3
REMARK VINA RESULT:      -6.9      3.874      8.614
REMARK  Name = 
REMARK  6 active torsions:
REMARK  status: ('A' for Active; 'I' for Inactive)
REMARK    1  A    between atoms: C_1  and  O_2
REMARK    2  A    between atoms: O_2  and  C_3
REMARK    3  A    between atoms: C_5  and  O_6
REMARK    4  A    between atoms: O_6  and  C_7
REMARK    5  A    between atoms: C_8  and  C_9
REMARK    6  A    between atoms: C_18  and  N_19
REMARK                            x       y       z     vdW  Elec       q    Type
REMARK                         _______ _______ _______ _____ _____    ______ ____
ROOT
ATOM      1  C   UNL     1       2.853   6.612  19.087  0.00  0.00    +0.000 A 
ATOM      2  C   UNL     1       2.094   6.352  20.209  0.00  0.00    +0.000 A 
ATOM      3  N   UNL     1       1.454   7.523  20.505  0.00  0.00    +0.000 N 
ATOM      4  C   UNL     1       0.497   7.776  21.468  0.00  0.00    +0.000 A 
ATOM      5  C   UNL     1      -0.035   8.998  21.546  0.00  0.00    +0.000 A 
ATOM      6  C   UNL     1       0.469  10.041  20.570  0.00  0.00    +0.000 A 
ATOM      7  N   UNL     1      -0.085  11.314  20.612  0.00  0.00    +0.000 N 
ATOM      8  C   UNL     1      -1.440  11.613  21.060  0.00  0.00    +0.000 C 
ATOM      9  C   UNL     1      -1.983  12.553  19.996  0.00  0.00    +0.000 C 
ATOM     10  C   UNL     1      -0.767  13.382  19.600  0.00  0.00    +0.000 C 
ATOM     11  C   UNL     1       0.432  12.422  19.806  0.00  0.00    +0.000 C 
ATOM     12  N   UNL     1       1.413   9.772  19.692  0.00  0.00    +0.000 NA
ATOM     13  C   UNL     1       1.897   8.495  19.622  0.00  0.00    +0.000 A 
ATOM     14  N   UNL     1       2.744   7.956  18.764  0.00  0.00    +0.000 NA
ENDROOT
BRANCH   1  18
ATOM     15  C   UNL     1       5.242   4.036  16.598  0.00  0.00    +0.000 A 
ATOM     16  C   UNL     1       3.863   3.808  16.709  0.00  0.00    +0.000 A 
ATOM     17  C   UNL     1       3.043   4.580  17.549  0.00  0.00    +0.000 A 
ATOM     18  C   UNL     1       3.606   5.652  18.272  0.00  0.00    +0.000 A 
ATOM     19  C   UNL     1       4.998   5.859  18.167  0.00  0.00    +0.000 A 
ATOM     20  C   UNL     1       5.810   5.072  17.339  0.00  0.00    +0.000 A 
ATOM     21 CL   UNL     1       7.471   5.533  17.237  0.00  0.00    +0.000 Cl
BRANCH  15  23
ATOM     22  C   UNL     1       6.155   3.828  14.404  0.00  0.00    +0.000 C 
ATOM     23  O   UNL     1       5.837   3.238  15.657  0.00  0.00    +0.000 OA
ENDBRANCH  15  23
BRANCH  17  24
ATOM     24  O   UNL     1       1.692   4.357  17.637  0.00  0.00    +0.000 OA
ATOM     25  C   UNL     1       1.266   3.211  18.370  0.00  0.00    +0.000 C 
ENDBRANCH  17  24
ENDBRANCH   1  18
BRANCH  10  26
ATOM     26  N   UNL     1      -0.924  13.902  18.240  0.00  0.00    +0.000 NA
ATOM     27  H   UNL     1       0.000  14.033  17.822  0.00  0.00    +0.000 HD
ATOM     28  H   UNL     1      -1.330  14.837  18.276  0.00  0.00    +0.000 HD
ENDBRANCH  10  26
TORSDOF 4
ENDMDL
MODEL 4
REMARK VINA RESULT:      -6.9      3.206      4.312
REMARK  Name = 
REMARK  6 active torsions:
REMARK  status: ('A' for Active; 'I' for Inactive)
REMARK    1  A    between atoms: C_1  and  O_2
REMARK    2  A    between atoms: O_2  and  C_3
REMARK    3  A    between atoms: C_5  and  O_6
REMARK    4  A    between atoms: O_6  and  C_7
REMARK    5  A    between atoms: C_8  and  C_9
REMARK    6  A    between atoms: C_18  and  N_19
REMARK                            x       y       z     vdW  Elec       q    Type
REMARK                         _______ _______ _______ _____ _____    ______ ____
ROOT
ATOM      1  C   UNL     1       0.640  10.441  19.989  0.00  0.00    +0.000 A 
ATOM      2  C   UNL     1       1.237  10.178  18.774  0.00  0.00    +0.000 A 
ATOM      3  N   UNL     1       1.704   8.896  18.858  0.00  0.00    +0.000 N 
ATOM      4  C   UNL     1       2.287   8.114  17.881  0.00  0.00    +0.000 A 
ATOM      5  C   UNL     1       2.625   6.856  18.176  0.00  0.00    +0.000 A 
ATOM      6  C   UNL     1       2.356   6.375  19.586  0.00  0.00    +0.000 A 
ATOM      7  N   UNL     1       2.674   5.062  19.913  0.00  0.00    +0.000 N 
ATOM      8  C   UNL     1       2.692   3.954  18.966  0.00  0.00    +0.000 C 
ATOM      9  C   UNL     1       1.941   2.843  19.680  0.00  0.00    +0.000 C 
ATOM     10  C   UNL     1       2.341   3.026  21.140  0.00  0.00    +0.000 C 
ATOM     11  C   UNL     1       2.581   4.550  21.282  0.00  0.00    +0.000 C 
ATOM     12  N   UNL     1       1.835   7.165  20.502  0.00  0.00    +0.000 NA
ATOM     13  C   UNL     1       1.467   8.431  20.141  0.00  0.00    +0.000 A 
ATOM     14  N   UNL     1       0.828   9.357  20.833  0.00  0.00    +0.000 NA
ENDROOT
BRANCH   1  18
ATOM     15  C   UNL     1      -1.849  13.855  20.818  0.00  0.00    +0.000 A 
ATOM     16  C   UNL     1      -0.488  13.893  21.150  0.00  0.00    +0.000 A 
ATOM     17  C   UNL     1       0.360  12.790  20.956  0.00  0.00    +0.000 A 
ATOM     18  C   UNL     1      -0.153  11.618  20.362  0.00  0.00    +0.000 A 
ATOM     19  C   UNL     1      -1.529  11.585  20.050  0.00  0.00    +0.000 A 
ATOM     20  C   UNL     1      -2.370  12.686  20.264  0.00  0.00    +0.000 A 
ATOM     21 CL   UNL     1      -3.999  12.518  19.718  0.00  0.00    +0.000 Cl
BRANCH  15  23
ATOM     22  C   UNL     1      -1.845  16.211  20.446  0.00  0.00    +0.000 C 
ATOM     23  O   UNL     1      -2.472  15.062  20.998  0.00  0.00    +0.000 OA
ENDBRANCH  15  23
BRANCH  17  24
ATOM     24  O   UNL     1       1.695  12.844  21.271  0.00  0.00    +0.000 OA
ATOM     25  C   UNL     1       2.529  13.647  20.439  0.00  0.00    +0.000 C 
ENDBRANCH  17  24
ENDBRANCH   1  18
BRANCH  10  26
ATOM     26  N   UNL     1       1.314   2.470  22.024  0.00  0.00    +0.000 NA
ATOM     27  H   UNL     1       0.725   1.827  21.489  0.00  0.00    +0.000 HD
ATOM     28  H   UNL     1       0.684   3.213  22.326  0.00  0.00    +0.000 HD
ENDBRANCH  10  26
TORSDOF 4
ENDMDL
MODEL 5
REMARK VINA RESULT:      -6.8      2.752      3.762
REMARK  Name = 
REMARK  6 active torsions:
REMARK  status: ('A' for Active; 'I' for Inactive)
REMARK    1  A    between atoms: C_1  and  O_2
REMARK    2  A    between atoms: O_2  and  C_3
REMARK    3  A    between atoms: C_5  and  O_6
REMARK    4  A    between atoms: O_6  and  C_7
REMARK    5  A    between atoms: C_8  and  C_9
REMARK    6  A    between atoms: C_18  and  N_19
REMARK                            x       y       z     vdW  Elec       q    Type
REMARK                         _______ _______ _______ _____ _____    ______ ____
ROOT
ATOM      1  C   UNL     1       0.584  10.203  19.663  0.00  0.00    +0.000 A 
ATOM      2  C   UNL     1       1.317   9.923  18.529  0.00  0.00    +0.000 A 
ATOM      3  N   UNL     1       1.819   8.665  18.712  0.00  0.00    +0.000 N 
ATOM      4  C   UNL     1       2.532   7.873  17.833  0.00  0.00    +0.000 A 
ATOM      5  C   UNL     1       2.882   6.641  18.210  0.00  0.00    +0.000 A 
ATOM      6  C   UNL     1       2.481   6.199  19.602  0.00  0.00    +0.000 A 
ATOM      7  N   UNL     1       2.810   4.912  20.011  0.00  0.00    +0.000 N 
ATOM      8  C   UNL     1       2.970   3.773  19.115  0.00  0.00    +0.000 C 
ATOM      9  C   UNL     1       2.188   2.659  19.789  0.00  0.00    +0.000 C 
ATOM     10  C   UNL     1       2.421   2.907  21.275  0.00  0.00    +0.000 C 
ATOM     11  C   UNL     1       2.589   4.444  21.381  0.00  0.00    +0.000 C 
ATOM     12  N   UNL     1       1.836   6.998  20.426  0.00  0.00    +0.000 NA
ATOM     13  C   UNL     1       1.463   8.235  19.980  0.00  0.00    +0.000 A 
ATOM     14  N   UNL     1       0.720   9.158  20.564  0.00  0.00    +0.000 NA
ENDROOT
BRANCH   1  18
ATOM     15  C   UNL     1      -1.866  13.597  20.669  0.00  0.00    +0.000 A 
ATOM     16  C   UNL     1      -2.368  12.613  19.808  0.00  0.00    +0.000 A 
ATOM     17  C   UNL     1      -1.595  11.512  19.400  0.00  0.00    +0.000 A 
ATOM     18  C   UNL     1      -0.287  11.359  19.905  0.00  0.00    +0.000 A 
ATOM     19  C   UNL     1       0.214  12.368  20.755  0.00  0.00    +0.000 A 
ATOM     20  C   UNL     1      -0.561  13.470  21.143  0.00  0.00    +0.000 A 
ATOM     21 CL   UNL     1       0.164  14.549  22.280  0.00  0.00    +0.000 Cl
BRANCH  15  23
ATOM     22  C   UNL     1      -3.943  14.072  21.742  0.00  0.00    +0.000 C 
ATOM     23  O   UNL     1      -2.810  14.528  21.017  0.00  0.00    +0.000 OA
ENDBRANCH  15  23
BRANCH  17  24
ATOM     24  O   UNL     1      -2.102  10.545  18.568  0.00  0.00    +0.000 OA
ATOM     25  C   UNL     1      -2.264  10.886  17.194  0.00  0.00    +0.000 C 
ENDBRANCH  17  24
ENDBRANCH   1  18
BRANCH  10  26
ATOM     26  N   UNL     1       1.326   2.341  22.066  0.00  0.00    +0.000 NA
ATOM     27  H   UNL     1       1.664   1.510  22.558  0.00  0.00    +0.000 HD
ATOM     28  H   UNL     1       0.596   1.998  21.442  0.00  0.00    +0.000 HD
ENDBRANCH  10  26
TORSDOF 4
ENDMDL
MODEL 6
REMARK VINA RESULT:      -6.8      1.946      2.292
REMARK  Name = 
REMARK  6 active torsions:
REMARK  status: ('A' for Active; 'I' for Inactive)
REMARK    1  A    between atoms: C_1  and  O_2
REMARK    2  A    between atoms: O_2  and  C_3
REMARK    3  A    between atoms: C_5  and  O_6
REMARK    4  A    between atoms: O_6  and  C_7
REMARK    5  A    between atoms: C_8  and  C_9
REMARK    6  A    between atoms: C_18  and  N_19
REMARK                            x       y       z     vdW  Elec       q    Type
REMARK                         _______ _______ _______ _____ _____    ______ ____
ROOT
ATOM      1  C   UNL     1       1.255   8.836  19.851  0.00  0.00    +0.000 A 
ATOM      2  C   UNL     1       1.272   7.701  20.634  0.00  0.00    +0.000 A 
ATOM      3  N   UNL     1       2.122   6.831  20.010  0.00  0.00    +0.000 N 
ATOM      4  C   UNL     1       2.571   5.596  20.432  0.00  0.00    +0.000 A 
ATOM      5  C   UNL     1       3.449   4.933  19.674  0.00  0.00    +0.000 A 
ATOM      6  C   UNL     1       3.884   5.587  18.379  0.00  0.00    +0.000 A 
ATOM      7  N   UNL     1       4.816   4.931  17.584  0.00  0.00    +0.000 N 
ATOM      8  C   UNL     1       5.831   4.012  18.085  0.00  0.00    +0.000 C 
ATOM      9  C   UNL     1       7.107   4.454  17.390  0.00  0.00    +0.000 C 
ATOM     10  C   UNL     1       6.628   4.890  16.010  0.00  0.00    +0.000 C 
ATOM     11  C   UNL     1       5.191   5.415  16.254  0.00  0.00    +0.000 C 
ATOM     12  N   UNL     1       3.401   6.748  17.991  0.00  0.00    +0.000 NA
ATOM     13  C   UNL     1       2.537   7.407  18.820  0.00  0.00    +0.000 A 
ATOM     14  N   UNL     1       2.016   8.617  18.713  0.00  0.00    +0.000 NA
ENDROOT
BRANCH   1  18
ATOM     15  C   UNL     1      -0.452  12.738  20.487  0.00  0.00    +0.000 A 
ATOM     16  C   UNL     1      -0.028  11.980  21.587  0.00  0.00    +0.000 A 
ATOM     17  C   UNL     1       0.484  10.679  21.445  0.00  0.00    +0.000 A 
ATOM     18  C   UNL     1       0.625  10.127  20.155  0.00  0.00    +0.000 A 
ATOM     19  C   UNL     1       0.177  10.892  19.058  0.00  0.00    +0.000 A 
ATOM     20  C   UNL     1      -0.348  12.183  19.212  0.00  0.00    +0.000 A 
ATOM     21 CL   UNL     1      -0.740  13.025  17.757  0.00  0.00    +0.000 Cl
BRANCH  15  23
ATOM     22  C   UNL     1      -2.215  14.258  21.007  0.00  0.00    +0.000 C 
ATOM     23  O   UNL     1      -0.827  14.009  20.833  0.00  0.00    +0.000 OA
ENDBRANCH  15  23
BRANCH  17  24
ATOM     24  O   UNL     1       0.911   9.952  22.528  0.00  0.00    +0.000 OA
ATOM     25  C   UNL     1      -0.081   9.522  23.457  0.00  0.00    +0.000 C 
ENDBRANCH  17  24
ENDBRANCH   1  18
BRANCH  10  26
ATOM     26  N   UNL     1       7.559   5.861  15.429  0.00  0.00    +0.000 NA
ATOM     27  H   UNL     1       7.873   6.502  16.162  0.00  0.00    +0.000 HD
ATOM     28  H   UNL     1       7.064   6.450  14.759  0.00  0.00    +0.000 HD
ENDBRANCH  10  26
TORSDOF 4
ENDMDL
MODEL 7
REMARK VINA RESULT:      -6.8      2.277      3.421
REMARK  Name = 
REMARK  6 active torsions:
REMARK  status: ('A' for Active; 'I' for Inactive)
REMARK    1  A    between atoms: C_1  and  O_2
REMARK    2  A    between atoms: O_2  and  C_3
REMARK    3  A    between atoms: C_5  and  O_6
REMARK    4  A    between atoms: O_6  and  C_7
REMARK    5  A    between atoms: C_8  and  C_9
REMARK    6  A    between atoms: C_18  and  N_19
REMARK                            x       y       z     vdW  Elec       q    Type
REMARK                         _______ _______ _______ _____ _____    ______ ____
ROOT
ATOM      1  C   UNL     1       1.265  10.112  19.005  0.00  0.00    +0.000 A 
ATOM      2  C   UNL     1       2.012   9.648  17.942  0.00  0.00    +0.000 A 
ATOM      3  N   UNL     1       2.359   8.365  18.263  0.00  0.00    +0.000 N 
ATOM      4  C   UNL     1       3.016   7.422  17.499  0.00  0.00    +0.000 A 
ATOM      5  C   UNL     1       3.206   6.199  18.003  0.00  0.00    +0.000 A 
ATOM      6  C   UNL     1       2.695   5.937  19.405  0.00  0.00    +0.000 A 
ATOM      7  N   UNL     1       2.856   4.666  19.944  0.00  0.00    +0.000 N 
ATOM      8  C   UNL     1       2.927   3.437  19.162  0.00  0.00    +0.000 C 
ATOM      9  C   UNL     1       1.993   2.483  19.887  0.00  0.00    +0.000 C 
ATOM     10  C   UNL     1       2.186   2.844  21.356  0.00  0.00    +0.000 C 
ATOM     11  C   UNL     1       2.522   4.356  21.335  0.00  0.00    +0.000 C 
ATOM     12  N   UNL     1       2.109   6.875  20.117  0.00  0.00    +0.000 NA
ATOM     13  C   UNL     1       1.899   8.098  19.543  0.00  0.00    +0.000 A 
ATOM     14  N   UNL     1       1.240   9.148  20.001  0.00  0.00    +0.000 NA
ENDROOT
BRANCH   1  18
ATOM     15  C   UNL     1      -0.716  13.904  19.492  0.00  0.00    +0.000 A 
ATOM     16  C   UNL     1      -1.476  12.751  19.253  0.00  0.00    +0.000 A 
ATOM     17  C   UNL     1      -0.883  11.497  19.030  0.00  0.00    +0.000 A 
ATOM     18  C   UNL     1       0.521  11.374  19.094  0.00  0.00    +0.000 A 
ATOM     19  C   UNL     1       1.276  12.544  19.316  0.00  0.00    +0.000 A 
ATOM     20  C   UNL     1       0.674  13.794  19.521  0.00  0.00    +0.000 A 
ATOM     21 CL   UNL     1       1.738  15.101  19.895  0.00  0.00    +0.000 Cl
BRANCH  15  23
ATOM     22  C   UNL     1      -1.885  15.185  21.129  0.00  0.00    +0.000 C 
ATOM     23  O   UNL     1      -1.489  14.998  19.777  0.00  0.00    +0.000 OA
ENDBRANCH  15  23
BRANCH  17  24
ATOM     24  O   UNL     1      -1.638  10.372  18.812  0.00  0.00    +0.000 OA
ATOM     25  C   UNL     1      -2.074  10.127  17.478  0.00  0.00    +0.000 C 
ENDBRANCH  17  24
ENDBRANCH   1  18
BRANCH  10  26
ATOM     26  N   UNL     1       0.999   2.477  22.132  0.00  0.00    +0.000 NA
ATOM     27  H   UNL     1       1.085   1.504  22.435  0.00  0.00    +0.000 HD
ATOM     28  H   UNL     1       0.177   2.493  21.527  0.00  0.00    +0.000 HD
ENDBRANCH  10  26
TORSDOF 4
ENDMDL
MODEL 8
REMARK VINA RESULT:      -6.8      3.916      8.582
REMARK  Name = 
REMARK  6 active torsions:
REMARK  status: ('A' for Active; 'I' for Inactive)
REMARK    1  A    between atoms: C_1  and  O_2
REMARK    2  A    between atoms: O_2  and  C_3
REMARK    3  A    between atoms: C_5  and  O_6
REMARK    4  A    between atoms: O_6  and  C_7
REMARK    5  A    between atoms: C_8  and  C_9
REMARK    6  A    between atoms: C_18  and  N_19
REMARK                            x       y       z     vdW  Elec       q    Type
REMARK                         _______ _______ _______ _____ _____    ______ ____
ROOT
ATOM      1  C   UNL     1       2.566   7.702  18.363  0.00  0.00    +0.000 A 
ATOM      2  C   UNL     1       2.280   8.139  19.639  0.00  0.00    +0.000 A 
ATOM      3  N   UNL     1       1.196   8.961  19.517  0.00  0.00    +0.000 N 
ATOM      4  C   UNL     1       0.449   9.574  20.504  0.00  0.00    +0.000 A 
ATOM      5  C   UNL     1      -0.614  10.303  20.152  0.00  0.00    +0.000 A 
ATOM      6  C   UNL     1      -0.919  10.421  18.674  0.00  0.00    +0.000 A 
ATOM      7  N   UNL     1      -2.034  11.151  18.282  0.00  0.00    +0.000 N 
ATOM      8  C   UNL     1      -3.234  11.330  19.091  0.00  0.00    +0.000 C 
ATOM      9  C   UNL     1      -4.376  11.058  18.125  0.00  0.00    +0.000 C 
ATOM     10  C   UNL     1      -3.867  11.624  16.805  0.00  0.00    +0.000 C 
ATOM     11  C   UNL     1      -2.330  11.437  16.876  0.00  0.00    +0.000 C 
ATOM     12  N   UNL     1      -0.159   9.854  17.760  0.00  0.00    +0.000 NA
ATOM     13  C   UNL     1       0.893   9.084  18.170  0.00  0.00    +0.000 A 
ATOM     14  N   UNL     1       1.717   8.330  17.465  0.00  0.00    +0.000 NA
ENDROOT
BRANCH   1  18
ATOM     15  C   UNL     1       5.557   4.916  17.009  0.00  0.00    +0.000 A 
ATOM     16  C   UNL     1       4.237   4.482  17.186  0.00  0.00    +0.000 A 
ATOM     17  C   UNL     1       3.231   5.330  17.679  0.00  0.00    +0.000 A 
ATOM     18  C   UNL     1       3.538   6.677  17.962  0.00  0.00    +0.000 A 
ATOM     19  C   UNL     1       4.875   7.097  17.798  0.00  0.00    +0.000 A 
ATOM     20  C   UNL     1       5.875   6.237  17.322  0.00  0.00    +0.000 A 
ATOM     21 CL   UNL     1       7.430   6.943  17.069  0.00  0.00    +0.000 Cl
BRANCH  15  23
ATOM     22  C   UNL     1       6.529   4.024  15.022  0.00  0.00    +0.000 C 
ATOM     23  O   UNL     1       6.355   3.964  16.431  0.00  0.00    +0.000 OA
ENDBRANCH  15  23
BRANCH  17  24
ATOM     24  O   UNL     1       1.937   4.899  17.834  0.00  0.00    +0.000 OA
ATOM     25  C   UNL     1       1.745   3.545  18.238  0.00  0.00    +0.000 C 
ENDBRANCH  17  24
ENDBRANCH   1  18
BRANCH  10  26
ATOM     26  N   UNL     1      -4.526  10.961  15.677  0.00  0.00    +0.000 NA
ATOM     27  H   UNL     1      -5.512  11.234  15.659  0.00  0.00    +0.000 HD
ATOM     28  H   UNL     1      -4.535   9.953  15.831  0.00  0.00    +0.000 HD
ENDBRANCH  10  26
TORSDOF 4
ENDMDL
MODEL 9
REMARK VINA RESULT:      -6.7      3.632      5.127
REMARK  Name = 
REMARK  6 active torsions:
REMARK  status: ('A' for Active; 'I' for Inactive)
REMARK    1  A    between atoms: C_1  and  O_2
REMARK    2  A    between atoms: O_2  and  C_3
REMARK    3  A    between atoms: C_5  and  O_6
REMARK    4  A    between atoms: O_6  and  C_7
REMARK    5  A    between atoms: C_8  and  C_9
REMARK    6  A    between atoms: C_18  and  N_19
REMARK                            x       y       z     vdW  Elec       q    Type
REMARK                         _______ _______ _______ _____ _____    ______ ____
ROOT
ATOM      1  C   UNL     1       0.345  11.117  21.300  0.00  0.00    +0.000 A 
ATOM      2  C   UNL     1       0.782  11.186  19.994  0.00  0.00    +0.000 A 
ATOM      3  N   UNL     1       1.221   9.930  19.681  0.00  0.00    +0.000 N 
ATOM      4  C   UNL     1       1.659   9.435  18.469  0.00  0.00    +0.000 A 
ATOM      5  C   UNL     1       1.996   8.146  18.380  0.00  0.00    +0.000 A 
ATOM      6  C   UNL     1       1.888   7.310  19.638  0.00  0.00    +0.000 A 
ATOM      7  N   UNL     1       2.208   5.959  19.568  0.00  0.00    +0.000 N 
ATOM      8  C   UNL     1       2.081   5.139  18.370  0.00  0.00    +0.000 C 
ATOM      9  C   UNL     1       1.393   3.875  18.857  0.00  0.00    +0.000 C 
ATOM     10  C   UNL     1       1.972   3.670  20.252  0.00  0.00    +0.000 C 
ATOM     11  C   UNL     1       2.269   5.105  20.756  0.00  0.00    +0.000 C 
ATOM     12  N   UNL     1       1.505   7.828  20.786  0.00  0.00    +0.000 NA
ATOM     13  C   UNL     1       1.130   9.142  20.817  0.00  0.00    +0.000 A 
ATOM     14  N   UNL     1       0.605   9.850  21.802  0.00  0.00    +0.000 NA
ENDROOT
BRANCH   1  18
ATOM     15  C   UNL     1      -2.007  14.022  23.436  0.00  0.00    +0.000 A 
ATOM     16  C   UNL     1      -0.800  14.411  22.841  0.00  0.00    +0.000 A 
ATOM     17  C   UNL     1       0.037  13.496  22.180  0.00  0.00    +0.000 A 
ATOM     18  C   UNL     1      -0.365  12.149  22.064  0.00  0.00    +0.000 A 
ATOM     19  C   UNL     1      -1.573  11.766  22.685  0.00  0.00    +0.000 A 
ATOM     20  C   UNL     1      -2.392  12.684  23.357  0.00  0.00    +0.000 A 
ATOM     21 CL   UNL     1      -3.890  12.072  23.958  0.00  0.00    +0.000 Cl
BRANCH  15  23
ATOM     22  C   UNL     1      -2.699  15.263  25.352  0.00  0.00    +0.000 C 
ATOM     23  O   UNL     1      -2.714  15.081  23.943  0.00  0.00    +0.000 OA
ENDBRANCH  15  23
BRANCH  17  24
ATOM     24  O   UNL     1       1.209  13.892  21.586  0.00  0.00    +0.000 OA
ATOM     25  C   UNL     1       1.213  15.156  20.929  0.00  0.00    +0.000 C 
ENDBRANCH  17  24
ENDBRANCH   1  18
BRANCH  10  26
ATOM     26  N   UNL     1       1.046   2.895  21.080  0.00  0.00    +0.000 NA
ATOM     27  H   UNL     1       0.086   3.149  20.836  0.00  0.00    +0.000 HD
ATOM     28  H   UNL     1       1.150   3.169  22.058  0.00  0.00    +0.000 HD
ENDBRANCH  10  26
TORSDOF 4
ENDMDL
