MODEL 1
REMARK VINA RESULT:      -8.2      0.000      0.000
REMARK  Name = 
REMARK  9 active torsions:
REMARK  status: ('A' for Active; 'I' for Inactive)
REMARK    1  A    between atoms: C_1  and  C_2
REMARK    2  A    between atoms: C_3  and  C_4
REMARK    3  A    between atoms: C_4  and  C_5
REMARK    4  A    between atoms: C_5  and  C_6
REMARK    5  A    between atoms: C_6  and  O_8
REMARK    6  A    between atoms: C_13  and  C_14
REMARK    7  A    between atoms: C_15  and  O_16
REMARK    8  A    between atoms: O_16  and  C_17
REMARK    9  A    between atoms: C_17  and  C_18
REMARK                            x       y       z     vdW  Elec       q    Type
REMARK                         _______ _______ _______ _____ _____    ______ ____
ROOT
ATOM      1  C   UNL     1       4.259   6.239  17.253  0.00  0.00    +0.000 C 
ATOM      2  C   UNL     1       3.358   6.202  18.466  0.00  0.00    +0.000 A 
ATOM      3  C   UNL     1       3.245   5.137  19.298  0.00  0.00    +0.000 A 
ATOM      4  C   UNL     1       2.426   5.243  20.543  0.00  0.00    +0.000 A 
ATOM      5  O   UNL     1       2.284   4.307  21.321  0.00  0.00    +0.000 OA
ATOM      6  O   UNL     1       1.835   6.459  20.823  0.00  0.00    +0.000 OA
ATOM      7  C   UNL     1       1.859   7.535  19.924  0.00  0.00    +0.000 A 
ATOM      8  C   UNL     1       1.108   8.673  20.269  0.00  0.00    +0.000 A 
ATOM      9  C   UNL     1       0.368   8.772  21.577  0.00  0.00    +0.000 C 
ATOM     10  C   UNL     1       1.070   9.744  19.365  0.00  0.00    +0.000 A 
ATOM     11  C   UNL     1       1.778   9.668  18.167  0.00  0.00    +0.000 A 
ATOM     12  C   UNL     1       2.543   8.533  17.870  0.00  0.00    +0.000 A 
ATOM     13  C   UNL     1       2.591   7.438  18.744  0.00  0.00    +0.000 A 
ENDROOT
BRANCH   3  14
ATOM     14  C   UNL     1       3.973   3.817  19.061  0.00  0.00    +0.000 C 
BRANCH  14  15
ATOM     15  C   UNL     1       3.388   2.818  18.054  0.00  0.00    +0.000 C 
BRANCH  15  16
ATOM     16  C   UNL     1       1.880   2.785  18.131  0.00  0.00    +0.000 C 
ATOM     17  O   UNL     1       1.226   2.089  18.892  0.00  0.00    +0.000 OA
BRANCH  16  18
ATOM     18  O   UNL     1       1.304   3.635  17.250  0.00  0.00    +0.000 OA
ATOM     19  H   UNL     1       0.339   3.727  17.372  0.00  0.00    +0.000 HD
ENDBRANCH  16  18
ENDBRANCH  15  16
ENDBRANCH  14  15
ENDBRANCH   3  14
BRANCH  10  20
ATOM     20  O   UNL     1       0.273  10.796  19.717  0.00  0.00    +0.000 OA
BRANCH  20  21
ATOM     21  C   UNL     1      -0.160  11.663  18.671  0.00  0.00    +0.000 C 
BRANCH  21  22
ATOM     22  C   UNL     1      -1.576  11.272  18.328  0.00  0.00    +0.000 A 
ATOM     23  C   UNL     1      -1.849  10.264  17.396  0.00  0.00    +0.000 A 
ATOM     24  C   UNL     1      -3.168   9.914  17.102  0.00  0.00    +0.000 A 
ATOM     25  C   UNL     1      -4.225  10.571  17.734  0.00  0.00    +0.000 A 
ATOM     26  C   UNL     1      -3.964  11.577  18.660  0.00  0.00    +0.000 A 
ATOM     27  I   UNL     1      -5.530  12.555  19.608  0.00  0.00    +0.000 I 
ATOM     28  C   UNL     1      -2.647  11.932  18.955  0.00  0.00    +0.000 A 
ENDBRANCH  21  22
ENDBRANCH  20  21
ENDBRANCH  10  20
TORSDOF 7
ENDMDL
MODEL 2
REMARK VINA RESULT:      -8.0      3.180      4.647
REMARK  Name = 
REMARK  9 active torsions:
REMARK  status: ('A' for Active; 'I' for Inactive)
REMARK    1  A    between atoms: C_1  and  C_2
REMARK    2  A    between atoms: C_3  and  C_4
REMARK    3  A    between atoms: C_4  and  C_5
REMARK    4  A    between atoms: C_5  and  C_6
REMARK    5  A    between atoms: C_6  and  O_8
REMARK    6  A    between atoms: C_13  and  C_14
REMARK    7  A    between atoms: C_15  and  O_16
REMARK    8  A    between atoms: O_16  and  C_17
REMARK    9  A    between atoms: C_17  and  C_18
REMARK                            x       y       z     vdW  Elec       q    Type
REMARK                         _______ _______ _______ _____ _____    ______ ____
ROOT
ATOM      1  C   UNL     1       4.521   3.220  18.827  0.00  0.00    +0.000 C 
ATOM      2  C   UNL     1       4.409   4.639  18.320  0.00  0.00    +0.000 A 
ATOM      3  C   UNL     1       5.136   5.140  17.291  0.00  0.00    +0.000 A 
ATOM      4  C   UNL     1       4.861   6.516  16.779  0.00  0.00    +0.000 A 
ATOM      5  O   UNL     1       5.497   7.017  15.859  0.00  0.00    +0.000 OA
ATOM      6  O   UNL     1       3.830   7.225  17.362  0.00  0.00    +0.000 OA
ATOM      7  C   UNL     1       3.138   6.762  18.490  0.00  0.00    +0.000 A 
ATOM      8  C   UNL     1       2.200   7.635  19.069  0.00  0.00    +0.000 A 
ATOM      9  C   UNL     1       1.889   8.981  18.467  0.00  0.00    +0.000 C 
ATOM     10  C   UNL     1       1.532   7.221  20.230  0.00  0.00    +0.000 A 
ATOM     11  C   UNL     1       1.795   5.964  20.771  0.00  0.00    +0.000 A 
ATOM     12  C   UNL     1       2.711   5.105  20.150  0.00  0.00    +0.000 A 
ATOM     13  C   UNL     1       3.408   5.494  18.998  0.00  0.00    +0.000 A 
ENDROOT
BRANCH   3  14
ATOM     14  C   UNL     1       6.211   4.335  16.564  0.00  0.00    +0.000 C 
BRANCH  14  15
ATOM     15  C   UNL     1       5.852   3.645  15.241  0.00  0.00    +0.000 C 
BRANCH  15  16
ATOM     16  C   UNL     1       6.624   4.241  14.088  0.00  0.00    +0.000 C 
ATOM     17  O   UNL     1       6.519   3.905  12.919  0.00  0.00    +0.000 OA
BRANCH  16  18
ATOM     18  O   UNL     1       7.467   5.221  14.487  0.00  0.00    +0.000 OA
ATOM     19  H   UNL     1       8.410   4.996  14.370  0.00  0.00    +0.000 HD
ENDBRANCH  16  18
ENDBRANCH  15  16
ENDBRANCH  14  15
ENDBRANCH   3  14
BRANCH  10  20
ATOM     20  O   UNL     1       0.681   8.132  20.788  0.00  0.00    +0.000 OA
BRANCH  20  21
ATOM     21  C   UNL     1       1.158   8.858  21.919  0.00  0.00    +0.000 C 
BRANCH  21  22
ATOM     22  C   UNL     1       0.272  10.070  22.075  0.00  0.00    +0.000 A 
ATOM     23  C   UNL     1      -0.716  10.128  23.065  0.00  0.00    +0.000 A 
ATOM     24  C   UNL     1      -1.518  11.263  23.195  0.00  0.00    +0.000 A 
ATOM     25  C   UNL     1      -1.341  12.348  22.335  0.00  0.00    +0.000 A 
ATOM     26  C   UNL     1      -0.363  12.298  21.345  0.00  0.00    +0.000 A 
ATOM     27  I   UNL     1      -0.090  13.910  20.066  0.00  0.00    +0.000 I 
ATOM     28  C   UNL     1       0.439  11.165  21.210  0.00  0.00    +0.000 A 
ENDBRANCH  21  22
ENDBRANCH  20  21
ENDBRANCH  10  20
TORSDOF 7
ENDMDL
MODEL 3
REMARK VINA RESULT:      -7.8      0.838      1.566
REMARK  Name = 
REMARK  9 active torsions:
REMARK  status: ('A' for Active; 'I' for Inactive)
REMARK    1  A    between atoms: C_1  and  C_2
REMARK    2  A    between atoms: C_3  and  C_4
REMARK    3  A    between atoms: C_4  and  C_5
REMARK    4  A    between atoms: C_5  and  C_6
REMARK    5  A    between atoms: C_6  and  O_8
REMARK    6  A    between atoms: C_13  and  C_14
REMARK    7  A    between atoms: C_15  and  O_16
REMARK    8  A    between atoms: O_16  and  C_17
REMARK    9  A    between atoms: C_17  and  C_18
REMARK                            x       y       z     vdW  Elec       q    Type
REMARK                         _______ _______ _______ _____ _____    ______ ____
ROOT
ATOM      1  C   UNL     1       4.243   6.363  17.248  0.00  0.00    +0.000 C 
ATOM      2  C   UNL     1       3.326   6.326  18.449  0.00  0.00    +0.000 A 
ATOM      3  C   UNL     1       3.215   5.268  19.290  0.00  0.00    +0.000 A 
ATOM      4  C   UNL     1       2.379   5.375  20.522  0.00  0.00    +0.000 A 
ATOM      5  O   UNL     1       2.238   4.445  21.308  0.00  0.00    +0.000 OA
ATOM      6  O   UNL     1       1.768   6.586  20.783  0.00  0.00    +0.000 OA
ATOM      7  C   UNL     1       1.790   7.654  19.874  0.00  0.00    +0.000 A 
ATOM      8  C   UNL     1       1.020   8.785  20.197  0.00  0.00    +0.000 A 
ATOM      9  C   UNL     1       0.261   8.887  21.494  0.00  0.00    +0.000 C 
ATOM     10  C   UNL     1       0.980   9.846  19.282  0.00  0.00    +0.000 A 
ATOM     11  C   UNL     1       1.705   9.768  18.094  0.00  0.00    +0.000 A 
ATOM     12  C   UNL     1       2.489   8.640  17.819  0.00  0.00    +0.000 A 
ATOM     13  C   UNL     1       2.539   7.555  18.704  0.00  0.00    +0.000 A 
ENDROOT
BRANCH   3  14
ATOM     14  C   UNL     1       3.964   3.955  19.076  0.00  0.00    +0.000 C 
BRANCH  14  15
ATOM     15  C   UNL     1       3.483   2.998  17.978  0.00  0.00    +0.000 C 
BRANCH  15  16
ATOM     16  C   UNL     1       1.992   2.772  18.065  0.00  0.00    +0.000 C 
ATOM     17  O   UNL     1       1.140   3.470  17.536  0.00  0.00    +0.000 OA
BRANCH  16  18
ATOM     18  O   UNL     1       1.680   1.683  18.804  0.00  0.00    +0.000 OA
ATOM     19  H   UNL     1       0.719   1.541  18.903  0.00  0.00    +0.000 HD
ENDBRANCH  16  18
ENDBRANCH  15  16
ENDBRANCH  14  15
ENDBRANCH   3  14
BRANCH  10  20
ATOM     20  O   UNL     1       0.164  10.892  19.613  0.00  0.00    +0.000 OA
BRANCH  20  21
ATOM     21  C   UNL     1      -0.624  11.457  18.568  0.00  0.00    +0.000 C 
BRANCH  21  22
ATOM     22  C   UNL     1      -1.933  11.887  19.184  0.00  0.00    +0.000 A 
ATOM     23  C   UNL     1      -1.975  12.555  20.414  0.00  0.00    +0.000 A 
ATOM     24  C   UNL     1      -3.198  12.951  20.959  0.00  0.00    +0.000 A 
ATOM     25  C   UNL     1      -4.388  12.681  20.282  0.00  0.00    +0.000 A 
ATOM     26  C   UNL     1      -4.356  12.015  19.060  0.00  0.00    +0.000 A 
ATOM     27  I   UNL     1      -6.122  11.613  18.044  0.00  0.00    +0.000 I 
ATOM     28  C   UNL     1      -3.137  11.615  18.512  0.00  0.00    +0.000 A 
ENDBRANCH  21  22
ENDBRANCH  20  21
ENDBRANCH  10  20
TORSDOF 7
ENDMDL
MODEL 4
REMARK VINA RESULT:      -7.8      1.976      2.424
REMARK  Name = 
REMARK  9 active torsions:
REMARK  status: ('A' for Active; 'I' for Inactive)
REMARK    1  A    between atoms: C_1  and  C_2
REMARK    2  A    between atoms: C_3  and  C_4
REMARK    3  A    between atoms: C_4  and  C_5
REMARK    4  A    between atoms: C_5  and  C_6
REMARK    5  A    between atoms: C_6  and  O_8
REMARK    6  A    between atoms: C_13  and  C_14
REMARK    7  A    between atoms: C_15  and  O_16
REMARK    8  A    between atoms: O_16  and  C_17
REMARK    9  A    between atoms: C_17  and  C_18
REMARK                            x       y       z     vdW  Elec       q    Type
REMARK                         _______ _______ _______ _____ _____    ______ ____
ROOT
ATOM      1  C   UNL     1       3.753   7.250  17.270  0.00  0.00    +0.000 C 
ATOM      2  C   UNL     1       2.905   7.014  18.499  0.00  0.00    +0.000 A 
ATOM      3  C   UNL     1       2.880   5.850  19.194  0.00  0.00    +0.000 A 
ATOM      4  C   UNL     1       2.109   5.756  20.469  0.00  0.00    +0.000 A 
ATOM      5  O   UNL     1       2.046   4.725  21.128  0.00  0.00    +0.000 OA
ATOM      6  O   UNL     1       1.470   6.894  20.920  0.00  0.00    +0.000 OA
ATOM      7  C   UNL     1       1.403   8.073  20.164  0.00  0.00    +0.000 A 
ATOM      8  C   UNL     1       0.611   9.116  20.674  0.00  0.00    +0.000 A 
ATOM      9  C   UNL     1      -0.078   9.012  22.009  0.00  0.00    +0.000 C 
ATOM     10  C   UNL     1       0.482  10.287  19.913  0.00  0.00    +0.000 A 
ATOM     11  C   UNL     1       1.144  10.398  18.691  0.00  0.00    +0.000 A 
ATOM     12  C   UNL     1       1.952   9.352  18.228  0.00  0.00    +0.000 A 
ATOM     13  C   UNL     1       2.090   8.162  18.956  0.00  0.00    +0.000 A 
ENDROOT
BRANCH   3  14
ATOM     14  C   UNL     1       3.663   4.611  18.768  0.00  0.00    +0.000 C 
BRANCH  14  15
ATOM     15  C   UNL     1       5.088   4.415  19.302  0.00  0.00    +0.000 C 
BRANCH  15  16
ATOM     16  C   UNL     1       6.082   4.278  18.172  0.00  0.00    +0.000 C 
ATOM     17  O   UNL     1       7.277   4.512  18.251  0.00  0.00    +0.000 OA
BRANCH  16  18
ATOM     18  O   UNL     1       5.500   3.851  17.028  0.00  0.00    +0.000 OA
ATOM     19  H   UNL     1       4.527   3.930  17.032  0.00  0.00    +0.000 HD
ENDBRANCH  16  18
ENDBRANCH  15  16
ENDBRANCH  14  15
ENDBRANCH   3  14
BRANCH  10  20
ATOM     20  O   UNL     1      -0.351  11.243  20.423  0.00  0.00    +0.000 OA
BRANCH  20  21
ATOM     21  C   UNL     1      -0.676  12.341  19.573  0.00  0.00    +0.000 C 
BRANCH  21  22
ATOM     22  C   UNL     1      -1.996  12.017  18.916  0.00  0.00    +0.000 A 
ATOM     23  C   UNL     1      -3.213  12.287  19.554  0.00  0.00    +0.000 A 
ATOM     24  C   UNL     1      -4.421  11.986  18.923  0.00  0.00    +0.000 A 
ATOM     25  C   UNL     1      -4.423  11.412  17.651  0.00  0.00    +0.000 A 
ATOM     26  C   UNL     1      -3.218  11.138  17.010  0.00  0.00    +0.000 A 
ATOM     27  I   UNL     1      -3.213  10.289  15.116  0.00  0.00    +0.000 I 
ATOM     28  C   UNL     1      -2.008  11.434  17.638  0.00  0.00    +0.000 A 
ENDBRANCH  21  22
ENDBRANCH  20  21
ENDBRANCH  10  20
TORSDOF 7
ENDMDL
MODEL 5
REMARK VINA RESULT:      -7.7      1.482      2.402
REMARK  Name = 
REMARK  9 active torsions:
REMARK  status: ('A' for Active; 'I' for Inactive)
REMARK    1  A    between atoms: C_1  and  C_2
REMARK    2  A    between atoms: C_3  and  C_4
REMARK    3  A    between atoms: C_4  and  C_5
REMARK    4  A    between atoms: C_5  and  C_6
REMARK    5  A    between atoms: C_6  and  O_8
REMARK    6  A    between atoms: C_13  and  C_14
REMARK    7  A    between atoms: C_15  and  O_16
REMARK    8  A    between atoms: O_16  and  C_17
REMARK    9  A    between atoms: C_17  and  C_18
REMARK                            x       y       z     vdW  Elec       q    Type
REMARK                         _______ _______ _______ _____ _____    ______ ____
ROOT
ATOM      1  C   UNL     1       2.173   4.708  21.013  0.00  0.00    +0.000 C 
ATOM      2  C   UNL     1       2.662   5.665  19.950  0.00  0.00    +0.000 A 
ATOM      3  C   UNL     1       3.611   5.360  19.030  0.00  0.00    +0.000 A 
ATOM      4  C   UNL     1       3.934   6.327  17.939  0.00  0.00    +0.000 A 
ATOM      5  O   UNL     1       4.790   6.104  17.091  0.00  0.00    +0.000 OA
ATOM      6  O   UNL     1       3.212   7.503  17.887  0.00  0.00    +0.000 OA
ATOM      7  C   UNL     1       2.303   7.876  18.887  0.00  0.00    +0.000 A 
ATOM      8  C   UNL     1       1.731   9.157  18.786  0.00  0.00    +0.000 A 
ATOM      9  C   UNL     1       2.018  10.067  17.621  0.00  0.00    +0.000 C 
ATOM     10  C   UNL     1       0.859   9.578  19.801  0.00  0.00    +0.000 A 
ATOM     11  C   UNL     1       0.568   8.726  20.865  0.00  0.00    +0.000 A 
ATOM     12  C   UNL     1       1.129   7.444  20.917  0.00  0.00    +0.000 A 
ATOM     13  C   UNL     1       2.017   6.997  19.929  0.00  0.00    +0.000 A 
ENDROOT
BRANCH   3  14
ATOM     14  C   UNL     1       4.347   4.023  19.008  0.00  0.00    +0.000 C 
BRANCH  14  15
ATOM     15  C   UNL     1       3.987   2.996  17.927  0.00  0.00    +0.000 C 
BRANCH  15  16
ATOM     16  C   UNL     1       3.292   1.795  18.524  0.00  0.00    +0.000 C 
ATOM     17  O   UNL     1       2.196   1.809  19.063  0.00  0.00    +0.000 OA
BRANCH  16  18
ATOM     18  O   UNL     1       4.021   0.663  18.392  0.00  0.00    +0.000 OA
ATOM     19  H   UNL     1       4.923   0.818  18.052  0.00  0.00    +0.000 HD
ENDBRANCH  16  18
ENDBRANCH  15  16
ENDBRANCH  14  15
ENDBRANCH   3  14
BRANCH  10  20
ATOM     20  O   UNL     1       0.384  10.854  19.689  0.00  0.00    +0.000 OA
BRANCH  20  21
ATOM     21  C   UNL     1      -0.961  11.085  20.104  0.00  0.00    +0.000 C 
BRANCH  21  22
ATOM     22  C   UNL     1      -1.835  10.923  18.884  0.00  0.00    +0.000 A 
ATOM     23  C   UNL     1      -1.408  10.185  17.774  0.00  0.00    +0.000 A 
ATOM     24  C   UNL     1      -2.238  10.043  16.660  0.00  0.00    +0.000 A 
ATOM     25  C   UNL     1      -3.500  10.639  16.646  0.00  0.00    +0.000 A 
ATOM     26  C   UNL     1      -3.932  11.377  17.744  0.00  0.00    +0.000 A 
ATOM     27  I   UNL     1      -5.809  12.263  17.732  0.00  0.00    +0.000 I 
ATOM     28  C   UNL     1      -3.105  11.525  18.858  0.00  0.00    +0.000 A 
ENDBRANCH  21  22
ENDBRANCH  20  21
ENDBRANCH  10  20
TORSDOF 7
ENDMDL
MODEL 6
REMARK VINA RESULT:      -7.7      1.600      1.894
REMARK  Name = 
REMARK  9 active torsions:
REMARK  status: ('A' for Active; 'I' for Inactive)
REMARK    1  A    between atoms: C_1  and  C_2
REMARK    2  A    between atoms: C_3  and  C_4
REMARK    3  A    between atoms: C_4  and  C_5
REMARK    4  A    between atoms: C_5  and  C_6
REMARK    5  A    between atoms: C_6  and  O_8
REMARK    6  A    between atoms: C_13  and  C_14
REMARK    7  A    between atoms: C_15  and  O_16
REMARK    8  A    between atoms: O_16  and  C_17
REMARK    9  A    between atoms: C_17  and  C_18
REMARK                            x       y       z     vdW  Elec       q    Type
REMARK                         _______ _______ _______ _____ _____    ______ ____
ROOT
ATOM      1  C   UNL     1       3.852   7.154  17.156  0.00  0.00    +0.000 C 
ATOM      2  C   UNL     1       2.977   6.951  18.372  0.00  0.00    +0.000 A 
ATOM      3  C   UNL     1       2.883   5.784  19.056  0.00  0.00    +0.000 A 
ATOM      4  C   UNL     1       2.092   5.719  20.320  0.00  0.00    +0.000 A 
ATOM      5  O   UNL     1       1.968   4.686  20.969  0.00  0.00    +0.000 OA
ATOM      6  O   UNL     1       1.505   6.883  20.773  0.00  0.00    +0.000 OA
ATOM      7  C   UNL     1       1.508   8.070  20.027  0.00  0.00    +0.000 A 
ATOM      8  C   UNL     1       0.762   9.148  20.536  0.00  0.00    +0.000 A 
ATOM      9  C   UNL     1       0.051   9.068  21.861  0.00  0.00    +0.000 C 
ATOM     10  C   UNL     1       0.703  10.330  19.785  0.00  0.00    +0.000 A 
ATOM     11  C   UNL     1       1.385  10.418  18.573  0.00  0.00    +0.000 A 
ATOM     12  C   UNL     1       2.146   9.337  18.110  0.00  0.00    +0.000 A 
ATOM     13  C   UNL     1       2.214   8.135  18.829  0.00  0.00    +0.000 A 
ENDROOT
BRANCH   3  14
ATOM     14  C   UNL     1       3.609   4.511  18.628  0.00  0.00    +0.000 C 
BRANCH  14  15
ATOM     15  C   UNL     1       2.787   3.240  18.372  0.00  0.00    +0.000 C 
BRANCH  15  16
ATOM     16  C   UNL     1       3.413   2.040  19.043  0.00  0.00    +0.000 C 
ATOM     17  O   UNL     1       3.793   1.030  18.473  0.00  0.00    +0.000 OA
BRANCH  16  18
ATOM     18  O   UNL     1       3.520   2.201  20.382  0.00  0.00    +0.000 OA
ATOM     19  H   UNL     1       3.978   1.463  20.828  0.00  0.00    +0.000 HD
ENDBRANCH  16  18
ENDBRANCH  15  16
ENDBRANCH  14  15
ENDBRANCH   3  14
BRANCH  10  20
ATOM     20  O   UNL     1      -0.088  11.323  20.292  0.00  0.00    +0.000 OA
BRANCH  20  21
ATOM     21  C   UNL     1      -0.450  12.381  19.407  0.00  0.00    +0.000 C 
BRANCH  21  22
ATOM     22  C   UNL     1      -1.801  12.033  18.830  0.00  0.00    +0.000 A 
ATOM     23  C   UNL     1      -2.982  12.284  19.539  0.00  0.00    +0.000 A 
ATOM     24  C   UNL     1      -4.220  11.961  18.980  0.00  0.00    +0.000 A 
ATOM     25  C   UNL     1      -4.288  11.384  17.712  0.00  0.00    +0.000 A 
ATOM     26  C   UNL     1      -3.119  11.128  17.001  0.00  0.00    +0.000 A 
ATOM     27  I   UNL     1      -3.211  10.273  15.112  0.00  0.00    +0.000 I 
ATOM     28  C   UNL     1      -1.879  11.446  17.556  0.00  0.00    +0.000 A 
ENDBRANCH  21  22
ENDBRANCH  20  21
ENDBRANCH  10  20
TORSDOF 7
ENDMDL
MODEL 7
REMARK VINA RESULT:      -7.6      6.525      8.122
REMARK  Name = 
REMARK  9 active torsions:
REMARK  status: ('A' for Active; 'I' for Inactive)
REMARK    1  A    between atoms: C_1  and  C_2
REMARK    2  A    between atoms: C_3  and  C_4
REMARK    3  A    between atoms: C_4  and  C_5
REMARK    4  A    between atoms: C_5  and  C_6
REMARK    5  A    between atoms: C_6  and  O_8
REMARK    6  A    between atoms: C_13  and  C_14
REMARK    7  A    between atoms: C_15  and  O_16
REMARK    8  A    between atoms: O_16  and  C_17
REMARK    9  A    between atoms: C_17  and  C_18
REMARK                            x       y       z     vdW  Elec       q    Type
REMARK                         _______ _______ _______ _____ _____    ______ ____
ROOT
ATOM      1  C   UNL     1       3.349   3.846  16.086  0.00  0.00    +0.000 C 
ATOM      2  C   UNL     1       4.123   3.844  17.385  0.00  0.00    +0.000 A 
ATOM      3  C   UNL     1       3.937   2.943  18.380  0.00  0.00    +0.000 A 
ATOM      4  C   UNL     1       4.839   2.945  19.570  0.00  0.00    +0.000 A 
ATOM      5  O   UNL     1       4.706   2.159  20.501  0.00  0.00    +0.000 OA
ATOM      6  O   UNL     1       5.873   3.859  19.593  0.00  0.00    +0.000 OA
ATOM      7  C   UNL     1       6.016   4.861  18.622  0.00  0.00    +0.000 A 
ATOM      8  C   UNL     1       7.031   5.812  18.829  0.00  0.00    +0.000 A 
ATOM      9  C   UNL     1       7.976   5.725  19.998  0.00  0.00    +0.000 C 
ATOM     10  C   UNL     1       7.163   6.857  17.903  0.00  0.00    +0.000 A 
ATOM     11  C   UNL     1       6.309   6.923  16.803  0.00  0.00    +0.000 A 
ATOM     12  C   UNL     1       5.330   5.940  16.610  0.00  0.00    +0.000 A 
ATOM     13  C   UNL     1       5.160   4.892  17.524  0.00  0.00    +0.000 A 
ENDROOT
BRANCH   3  14
ATOM     14  C   UNL     1       2.865   1.857  18.328  0.00  0.00    +0.000 C 
BRANCH  14  15
ATOM     15  C   UNL     1       1.419   2.225  18.685  0.00  0.00    +0.000 C 
BRANCH  15  16
ATOM     16  C   UNL     1       1.356   3.006  19.976  0.00  0.00    +0.000 C 
ATOM     17  O   UNL     1       1.357   2.519  21.097  0.00  0.00    +0.000 OA
BRANCH  16  18
ATOM     18  O   UNL     1       1.305   4.341  19.766  0.00  0.00    +0.000 OA
ATOM     19  H   UNL     1       1.497   4.869  20.564  0.00  0.00    +0.000 HD
ENDBRANCH  16  18
ENDBRANCH  15  16
ENDBRANCH  14  15
ENDBRANCH   3  14
BRANCH  10  20
ATOM     20  O   UNL     1       8.120   7.790  18.186  0.00  0.00    +0.000 OA
BRANCH  20  21
ATOM     21  C   UNL     1       7.989   9.065  17.561  0.00  0.00    +0.000 C 
BRANCH  21  22
ATOM     22  C   UNL     1       8.895  10.018  18.303  0.00  0.00    +0.000 A 
ATOM     23  C   UNL     1       9.146   9.867  19.673  0.00  0.00    +0.000 A 
ATOM     24  C   UNL     1       9.993  10.756  20.335  0.00  0.00    +0.000 A 
ATOM     25  C   UNL     1      10.594  11.805  19.637  0.00  0.00    +0.000 A 
ATOM     26  C   UNL     1      10.347  11.965  18.276  0.00  0.00    +0.000 A 
ATOM     27  I   UNL     1      11.241  13.519  17.229  0.00  0.00    +0.000 I 
ATOM     28  C   UNL     1       9.499  11.080  17.610  0.00  0.00    +0.000 A 
ENDBRANCH  21  22
ENDBRANCH  20  21
ENDBRANCH  10  20
TORSDOF 7
ENDMDL
MODEL 8
REMARK VINA RESULT:      -7.6      3.078      4.503
REMARK  Name = 
REMARK  9 active torsions:
REMARK  status: ('A' for Active; 'I' for Inactive)
REMARK    1  A    between atoms: C_1  and  C_2
REMARK    2  A    between atoms: C_3  and  C_4
REMARK    3  A    between atoms: C_4  and  C_5
REMARK    4  A    between atoms: C_5  and  C_6
REMARK    5  A    between atoms: C_6  and  O_8
REMARK    6  A    between atoms: C_13  and  C_14
REMARK    7  A    between atoms: C_15  and  O_16
REMARK    8  A    between atoms: O_16  and  C_17
REMARK    9  A    between atoms: C_17  and  C_18
REMARK                            x       y       z     vdW  Elec       q    Type
REMARK                         _______ _______ _______ _____ _____    ______ ____
ROOT
ATOM      1  C   UNL     1       4.386   3.571  19.157  0.00  0.00    +0.000 C 
ATOM      2  C   UNL     1       4.296   4.915  18.471  0.00  0.00    +0.000 A 
ATOM      3  C   UNL     1       5.021   5.260  17.378  0.00  0.00    +0.000 A 
ATOM      4  C   UNL     1       4.768   6.564  16.694  0.00  0.00    +0.000 A 
ATOM      5  O   UNL     1       5.402   6.927  15.711  0.00  0.00    +0.000 OA
ATOM      6  O   UNL     1       3.759   7.365  17.190  0.00  0.00    +0.000 OA
ATOM      7  C   UNL     1       3.072   7.069  18.376  0.00  0.00    +0.000 A 
ATOM      8  C   UNL     1       2.160   8.031  18.845  0.00  0.00    +0.000 A 
ATOM      9  C   UNL     1       1.870   9.294  18.077  0.00  0.00    +0.000 C 
ATOM     10  C   UNL     1       1.498   7.786  20.057  0.00  0.00    +0.000 A 
ATOM     11  C   UNL     1       1.742   6.604  20.755  0.00  0.00    +0.000 A 
ATOM     12  C   UNL     1       2.632   5.652  20.242  0.00  0.00    +0.000 A 
ATOM     13  C   UNL     1       3.322   5.872  19.042  0.00  0.00    +0.000 A 
ENDROOT
BRANCH   3  14
ATOM     14  C   UNL     1       6.069   4.344  16.752  0.00  0.00    +0.000 C 
BRANCH  14  15
ATOM     15  C   UNL     1       7.537   4.506  17.167  0.00  0.00    +0.000 C 
BRANCH  15  16
ATOM     16  C   UNL     1       7.677   5.479  18.314  0.00  0.00    +0.000 C 
ATOM     17  O   UNL     1       7.696   5.178  19.497  0.00  0.00    +0.000 OA
BRANCH  16  18
ATOM     18  O   UNL     1       7.790   6.758  17.889  0.00  0.00    +0.000 OA
ATOM     19  H   UNL     1       7.696   6.857  16.922  0.00  0.00    +0.000 HD
ENDBRANCH  16  18
ENDBRANCH  15  16
ENDBRANCH  14  15
ENDBRANCH   3  14
BRANCH  10  20
ATOM     20  O   UNL     1       0.674   8.781  20.500  0.00  0.00    +0.000 OA
BRANCH  20  21
ATOM     21  C   UNL     1       0.909   9.281  21.815  0.00  0.00    +0.000 C 
BRANCH  21  22
ATOM     22  C   UNL     1      -0.012  10.460  22.012  0.00  0.00    +0.000 A 
ATOM     23  C   UNL     1      -0.968  10.475  23.036  0.00  0.00    +0.000 A 
ATOM     24  C   UNL     1      -1.803  11.581  23.203  0.00  0.00    +0.000 A 
ATOM     25  C   UNL     1      -1.693  12.679  22.349  0.00  0.00    +0.000 A 
ATOM     26  C   UNL     1      -0.748  12.672  21.326  0.00  0.00    +0.000 A 
ATOM     27  I   UNL     1      -0.575  14.303  20.054  0.00  0.00    +0.000 I 
ATOM     28  C   UNL     1       0.087  11.568  21.153  0.00  0.00    +0.000 A 
ENDBRANCH  21  22
ENDBRANCH  20  21
ENDBRANCH  10  20
TORSDOF 7
ENDMDL
MODEL 9
REMARK VINA RESULT:      -7.6      3.582      8.581
REMARK  Name = 
REMARK  9 active torsions:
REMARK  status: ('A' for Active; 'I' for Inactive)
REMARK    1  A    between atoms: C_1  and  C_2
REMARK    2  A    between atoms: C_3  and  C_4
REMARK    3  A    between atoms: C_4  and  C_5
REMARK    4  A    between atoms: C_5  and  C_6
REMARK    5  A    between atoms: C_6  and  O_8
REMARK    6  A    between atoms: C_13  and  C_14
REMARK    7  A    between atoms: C_15  and  O_16
REMARK    8  A    between atoms: O_16  and  C_17
REMARK    9  A    between atoms: C_17  and  C_18
REMARK                            x       y       z     vdW  Elec       q    Type
REMARK                         _______ _______ _______ _____ _____    ______ ____
ROOT
ATOM      1  C   UNL     1      -0.068   9.514  22.710  0.00  0.00    +0.000 C 
ATOM      2  C   UNL     1       0.454   9.661  21.299  0.00  0.00    +0.000 A 
ATOM      3  C   UNL     1       0.394  10.810  20.582  0.00  0.00    +0.000 A 
ATOM      4  C   UNL     1       1.053  10.893  19.244  0.00  0.00    +0.000 A 
ATOM      5  O   UNL     1       1.018  11.903  18.552  0.00  0.00    +0.000 OA
ATOM      6  O   UNL     1       1.746   9.785  18.798  0.00  0.00    +0.000 OA
ATOM      7  C   UNL     1       1.731   8.560  19.481  0.00  0.00    +0.000 A 
ATOM      8  C   UNL     1       2.366   7.471  18.857  0.00  0.00    +0.000 A 
ATOM      9  C   UNL     1       3.096   7.620  17.548  0.00  0.00    +0.000 C 
ATOM     10  C   UNL     1       2.321   6.222  19.491  0.00  0.00    +0.000 A 
ATOM     11  C   UNL     1       1.672   6.087  20.717  0.00  0.00    +0.000 A 
ATOM     12  C   UNL     1       1.079   7.200  21.328  0.00  0.00    +0.000 A 
ATOM     13  C   UNL     1       1.091   8.460  20.714  0.00  0.00    +0.000 A 
ENDROOT
BRANCH   3  14
ATOM     14  C   UNL     1      -0.277  12.079  21.100  0.00  0.00    +0.000 C 
BRANCH  14  15
ATOM     15  C   UNL     1      -1.800  12.218  20.971  0.00  0.00    +0.000 C 
BRANCH  15  16
ATOM     16  C   UNL     1      -2.208  12.451  19.535  0.00  0.00    +0.000 C 
ATOM     17  O   UNL     1      -3.084  11.842  18.942  0.00  0.00    +0.000 OA
BRANCH  16  18
ATOM     18  O   UNL     1      -1.489  13.438  18.952  0.00  0.00    +0.000 OA
ATOM     19  H   UNL     1      -1.710  13.577  18.011  0.00  0.00    +0.000 HD
ENDBRANCH  16  18
ENDBRANCH  15  16
ENDBRANCH  14  15
ENDBRANCH   3  14
BRANCH  10  20
ATOM     20  O   UNL     1       2.895   5.185  18.810  0.00  0.00    +0.000 OA
BRANCH  20  21
ATOM     21  C   UNL     1       3.980   4.512  19.446  0.00  0.00    +0.000 C 
BRANCH  21  22
ATOM     22  C   UNL     1       5.206   4.749  18.598  0.00  0.00    +0.000 A 
ATOM     23  C   UNL     1       6.392   5.243  19.154  0.00  0.00    +0.000 A 
ATOM     24  C   UNL     1       7.515   5.446  18.350  0.00  0.00    +0.000 A 
ATOM     25  C   UNL     1       7.462   5.160  16.985  0.00  0.00    +0.000 A 
ATOM     26  C   UNL     1       6.286   4.671  16.423  0.00  0.00    +0.000 A 
ATOM     27  I   UNL     1       6.200   4.239  14.395  0.00  0.00    +0.000 I 
ATOM     28  C   UNL     1       5.160   4.469  17.221  0.00  0.00    +0.000 A 
ENDBRANCH  21  22
ENDBRANCH  20  21
ENDBRANCH  10  20
TORSDOF 7
ENDMDL
