MODEL 1
REMARK VINA RESULT:      -7.8      0.000      0.000
REMARK  Name = 
REMARK  3 active torsions:
REMARK  status: ('A' for Active; 'I' for Inactive)
REMARK    1  A    between atoms: C_2  and  C_3
REMARK    2  A    between atoms: C_11  and  C_12
REMARK    3  A    between atoms: C_18  and  C_19
REMARK                            x       y       z     vdW  Elec       q    Type
REMARK                         _______ _______ _______ _____ _____    ______ ____
ROOT
ATOM      1  O   UNL     1       3.447   8.254  16.850  0.00  0.00    +0.000 OA
ATOM      2  C   UNL     1       2.906   7.721  17.816  0.00  0.00    +0.000 C 
ATOM      3  N   UNL     1       3.206   6.432  18.253  0.00  0.00    +0.000 N 
ATOM      4  N   UNL     1       2.567   5.832  19.305  0.00  0.00    +0.000 NA
ATOM      5  C   UNL     1       2.985   4.607  19.360  0.00  0.00    +0.000 C 
ATOM      6  C   UNL     1       4.020   4.224  18.347  0.00  0.00    +0.000 C 
ATOM      7  C   UNL     1       4.188   5.554  17.614  0.00  0.00    +0.000 C 
ENDROOT
BRANCH   2   8
ATOM      8  C   UNL     1       1.902   8.505  18.593  0.00  0.00    +0.000 A 
ATOM      9  C   UNL     1       1.780   8.378  19.983  0.00  0.00    +0.000 A 
ATOM     10  C   UNL     1       0.898   9.194  20.691  0.00  0.00    +0.000 A 
ATOM     11  C   UNL     1       0.095  10.104  20.008  0.00  0.00    +0.000 A 
ATOM     12  C   UNL     1       0.165  10.192  18.616  0.00  0.00    +0.000 A 
ATOM     13  C   UNL     1       1.066   9.393  17.906  0.00  0.00    +0.000 A 
ENDBRANCH   2   8
BRANCH   5  14
ATOM     14  C   UNL     1       2.447   3.685  20.314  0.00  0.00    +0.000 A 
ATOM     15  C   UNL     1       1.166   3.543  20.811  0.00  0.00    +0.000 A 
ATOM     16  C   UNL     1       1.203   2.456  21.720  0.00  0.00    +0.000 A 
ATOM     17  C   UNL     1       2.500   2.004  21.717  0.00  0.00    +0.000 A 
ATOM     18  O   UNL     1       3.262   2.739  20.864  0.00  0.00    +0.000 OA
ENDBRANCH   5  14
BRANCH   7  19
ATOM     19  C   UNL     1       5.571   6.125  17.787  0.00  0.00    +0.000 A 
ATOM     20  C   UNL     1       6.230   7.065  17.016  0.00  0.00    +0.000 A 
ATOM     21  C   UNL     1       7.564   7.295  17.459  0.00  0.00    +0.000 A 
ATOM     22  C   UNL     1       7.879   6.533  18.560  0.00  0.00    +0.000 A 
ATOM     23  S   UNL     1       6.561   5.575  19.077  0.00  0.00    +0.000 S 
ENDBRANCH   7  19
TORSDOF 3
ENDMDL
MODEL 2
REMARK VINA RESULT:      -7.8      1.905      6.171
REMARK  Name = 
REMARK  3 active torsions:
REMARK  status: ('A' for Active; 'I' for Inactive)
REMARK    1  A    between atoms: C_2  and  C_3
REMARK    2  A    between atoms: C_11  and  C_12
REMARK    3  A    between atoms: C_18  and  C_19
REMARK                            x       y       z     vdW  Elec       q    Type
REMARK                         _______ _______ _______ _____ _____    ______ ____
ROOT
ATOM      1  O   UNL     1       4.769   3.833  17.386  0.00  0.00    +0.000 OA
ATOM      2  C   UNL     1       4.713   5.006  17.746  0.00  0.00    +0.000 C 
ATOM      3  N   UNL     1       3.518   5.685  17.980  0.00  0.00    +0.000 N 
ATOM      4  N   UNL     1       3.466   7.004  18.340  0.00  0.00    +0.000 NA
ATOM      5  C   UNL     1       2.218   7.352  18.347  0.00  0.00    +0.000 C 
ATOM      6  C   UNL     1       1.236   6.269  18.022  0.00  0.00    +0.000 C 
ATOM      7  C   UNL     1       2.189   5.092  17.817  0.00  0.00    +0.000 C 
ENDROOT
BRANCH   2   8
ATOM      8  C   UNL     1       5.990   5.739  17.987  0.00  0.00    +0.000 A 
ATOM      9  C   UNL     1       6.427   6.763  17.136  0.00  0.00    +0.000 A 
ATOM     10  C   UNL     1       7.576   7.491  17.442  0.00  0.00    +0.000 A 
ATOM     11  C   UNL     1       8.323   7.166  18.571  0.00  0.00    +0.000 A 
ATOM     12  C   UNL     1       7.930   6.105  19.389  0.00  0.00    +0.000 A 
ATOM     13  C   UNL     1       6.765   5.389  19.099  0.00  0.00    +0.000 A 
ENDBRANCH   2   8
BRANCH   5  14
ATOM     14  C   UNL     1       1.830   8.704  18.614  0.00  0.00    +0.000 A 
ATOM     15  C   UNL     1       1.999   9.857  17.872  0.00  0.00    +0.000 A 
ATOM     16  C   UNL     1       1.405  10.908  18.615  0.00  0.00    +0.000 A 
ATOM     17  C   UNL     1       0.911  10.330  19.759  0.00  0.00    +0.000 A 
ATOM     18  O   UNL     1       1.159   8.993  19.767  0.00  0.00    +0.000 OA
ENDBRANCH   5  14
BRANCH   7  19
ATOM     19  C   UNL     1       1.984   4.012  18.848  0.00  0.00    +0.000 A 
ATOM     20  C   UNL     1       1.712   2.668  18.661  0.00  0.00    +0.000 A 
ATOM     21  C   UNL     1       1.508   1.978  19.891  0.00  0.00    +0.000 A 
ATOM     22  C   UNL     1       1.641   2.812  20.976  0.00  0.00    +0.000 A 
ATOM     23  S   UNL     1       2.046   4.407  20.516  0.00  0.00    +0.000 S 
ENDBRANCH   7  19
TORSDOF 3
ENDMDL
MODEL 3
REMARK VINA RESULT:      -7.7      1.861      5.298
REMARK  Name = 
REMARK  3 active torsions:
REMARK  status: ('A' for Active; 'I' for Inactive)
REMARK    1  A    between atoms: C_2  and  C_3
REMARK    2  A    between atoms: C_11  and  C_12
REMARK    3  A    between atoms: C_18  and  C_19
REMARK                            x       y       z     vdW  Elec       q    Type
REMARK                         _______ _______ _______ _____ _____    ______ ____
ROOT
ATOM      1  O   UNL     1       5.372   3.329  18.990  0.00  0.00    +0.000 OA
ATOM      2  C   UNL     1       4.341   3.991  19.082  0.00  0.00    +0.000 C 
ATOM      3  N   UNL     1       4.218   5.297  18.611  0.00  0.00    +0.000 N 
ATOM      4  N   UNL     1       3.078   6.040  18.756  0.00  0.00    +0.000 NA
ATOM      5  C   UNL     1       3.342   7.236  18.333  0.00  0.00    +0.000 C 
ATOM      6  C   UNL     1       4.723   7.448  17.795  0.00  0.00    +0.000 C 
ATOM      7  C   UNL     1       5.298   6.042  17.961  0.00  0.00    +0.000 C 
ENDROOT
BRANCH   2   8
ATOM      8  C   UNL     1       3.138   3.354  19.695  0.00  0.00    +0.000 A 
ATOM      9  C   UNL     1       2.976   3.264  21.083  0.00  0.00    +0.000 A 
ATOM     10  C   UNL     1       1.797   2.750  21.623  0.00  0.00    +0.000 A 
ATOM     11  C   UNL     1       0.797   2.274  20.778  0.00  0.00    +0.000 A 
ATOM     12  C   UNL     1       0.978   2.301  19.394  0.00  0.00    +0.000 A 
ATOM     13  C   UNL     1       2.148   2.839  18.849  0.00  0.00    +0.000 A 
ENDBRANCH   2   8
BRANCH   5  14
ATOM     14  C   UNL     1       2.369   8.282  18.422  0.00  0.00    +0.000 A 
ATOM     15  C   UNL     1       1.911   9.175  17.474  0.00  0.00    +0.000 A 
ATOM     16  C   UNL     1       0.935   9.980  18.112  0.00  0.00    +0.000 A 
ATOM     17  C   UNL     1       0.857   9.525  19.406  0.00  0.00    +0.000 A 
ATOM     18  O   UNL     1       1.719   8.493  19.604  0.00  0.00    +0.000 OA
ENDBRANCH   5  14
BRANCH   7  19
ATOM     19  C   UNL     1       5.630   5.406  16.635  0.00  0.00    +0.000 A 
ATOM     20  C   UNL     1       4.802   5.153  15.557  0.00  0.00    +0.000 A 
ATOM     21  C   UNL     1       5.471   4.464  14.505  0.00  0.00    +0.000 A 
ATOM     22  C   UNL     1       6.791   4.221  14.808  0.00  0.00    +0.000 A 
ATOM     23  S   UNL     1       7.227   4.854  16.335  0.00  0.00    +0.000 S 
ENDBRANCH   7  19
TORSDOF 3
ENDMDL
MODEL 4
REMARK VINA RESULT:      -7.7      3.309      5.938
REMARK  Name = 
REMARK  3 active torsions:
REMARK  status: ('A' for Active; 'I' for Inactive)
REMARK    1  A    between atoms: C_2  and  C_3
REMARK    2  A    between atoms: C_11  and  C_12
REMARK    3  A    between atoms: C_18  and  C_19
REMARK                            x       y       z     vdW  Elec       q    Type
REMARK                         _______ _______ _______ _____ _____    ______ ____
ROOT
ATOM      1  O   UNL     1       3.719   6.243  18.667  0.00  0.00    +0.000 OA
ATOM      2  C   UNL     1       3.820   5.330  17.851  0.00  0.00    +0.000 C 
ATOM      3  N   UNL     1       4.610   5.403  16.705  0.00  0.00    +0.000 N 
ATOM      4  N   UNL     1       4.682   4.397  15.781  0.00  0.00    +0.000 NA
ATOM      5  C   UNL     1       5.388   4.836  14.788  0.00  0.00    +0.000 C 
ATOM      6  C   UNL     1       5.934   6.223  14.937  0.00  0.00    +0.000 C 
ATOM      7  C   UNL     1       5.404   6.574  16.327  0.00  0.00    +0.000 C 
ENDROOT
BRANCH   2   8
ATOM      8  C   UNL     1       3.092   4.055  18.116  0.00  0.00    +0.000 A 
ATOM      9  C   UNL     1       3.770   2.853  18.355  0.00  0.00    +0.000 A 
ATOM     10  C   UNL     1       3.063   1.699  18.693  0.00  0.00    +0.000 A 
ATOM     11  C   UNL     1       1.671   1.728  18.740  0.00  0.00    +0.000 A 
ATOM     12  C   UNL     1       0.985   2.906  18.440  0.00  0.00    +0.000 A 
ATOM     13  C   UNL     1       1.692   4.071  18.126  0.00  0.00    +0.000 A 
ENDBRANCH   2   8
BRANCH   5  14
ATOM     14  C   UNL     1       5.588   4.040  13.615  0.00  0.00    +0.000 A 
ATOM     15  C   UNL     1       4.687   3.369  12.812  0.00  0.00    +0.000 A 
ATOM     16  C   UNL     1       5.440   2.756  11.780  0.00  0.00    +0.000 A 
ATOM     17  C   UNL     1       6.751   3.094  12.017  0.00  0.00    +0.000 A 
ATOM     18  O   UNL     1       6.852   3.876  13.124  0.00  0.00    +0.000 OA
ENDBRANCH   5  14
BRANCH   7  19
ATOM     19  C   UNL     1       6.518   6.777  17.322  0.00  0.00    +0.000 A 
ATOM     20  C   UNL     1       7.272   7.910  17.569  0.00  0.00    +0.000 A 
ATOM     21  C   UNL     1       8.289   7.686  18.541  0.00  0.00    +0.000 A 
ATOM     22  C   UNL     1       8.273   6.394  19.013  0.00  0.00    +0.000 A 
ATOM     23  S   UNL     1       7.016   5.470  18.316  0.00  0.00    +0.000 S 
ENDBRANCH   7  19
TORSDOF 3
ENDMDL
MODEL 5
REMARK VINA RESULT:      -7.7      0.099      1.012
REMARK  Name = 
REMARK  3 active torsions:
REMARK  status: ('A' for Active; 'I' for Inactive)
REMARK    1  A    between atoms: C_2  and  C_3
REMARK    2  A    between atoms: C_11  and  C_12
REMARK    3  A    between atoms: C_18  and  C_19
REMARK                            x       y       z     vdW  Elec       q    Type
REMARK                         _______ _______ _______ _____ _____    ______ ____
ROOT
ATOM      1  O   UNL     1       3.421   8.311  16.852  0.00  0.00    +0.000 OA
ATOM      2  C   UNL     1       2.884   7.774  17.818  0.00  0.00    +0.000 C 
ATOM      3  N   UNL     1       3.180   6.481  18.246  0.00  0.00    +0.000 N 
ATOM      4  N   UNL     1       2.545   5.878  19.297  0.00  0.00    +0.000 NA
ATOM      5  C   UNL     1       2.958   4.650  19.342  0.00  0.00    +0.000 C 
ATOM      6  C   UNL     1       3.985   4.269  18.321  0.00  0.00    +0.000 C 
ATOM      7  C   UNL     1       4.155   5.602  17.595  0.00  0.00    +0.000 C 
ENDROOT
BRANCH   2   8
ATOM      8  C   UNL     1       1.888   8.558  18.606  0.00  0.00    +0.000 A 
ATOM      9  C   UNL     1       1.037   9.492  18.001  0.00  0.00    +0.000 A 
ATOM     10  C   UNL     1       0.054  10.138  18.750  0.00  0.00    +0.000 A 
ATOM     11  C   UNL     1      -0.049   9.894  20.117  0.00  0.00    +0.000 A 
ATOM     12  C   UNL     1       0.837   9.014  20.739  0.00  0.00    +0.000 A 
ATOM     13  C   UNL     1       1.808   8.345  19.987  0.00  0.00    +0.000 A 
ENDBRANCH   2   8
BRANCH   5  14
ATOM     14  C   UNL     1       2.421   3.726  20.294  0.00  0.00    +0.000 A 
ATOM     15  C   UNL     1       1.135   3.561  20.770  0.00  0.00    +0.000 A 
ATOM     16  C   UNL     1       1.177   2.483  21.688  0.00  0.00    +0.000 A 
ATOM     17  C   UNL     1       2.483   2.057  21.712  0.00  0.00    +0.000 A 
ATOM     18  O   UNL     1       3.245   2.800  20.867  0.00  0.00    +0.000 OA
ENDBRANCH   5  14
BRANCH   7  19
ATOM     19  C   UNL     1       5.542   6.167  17.764  0.00  0.00    +0.000 A 
ATOM     20  C   UNL     1       6.199   7.110  16.996  0.00  0.00    +0.000 A 
ATOM     21  C   UNL     1       7.538   7.331  17.432  0.00  0.00    +0.000 A 
ATOM     22  C   UNL     1       7.856   6.558  18.524  0.00  0.00    +0.000 A 
ATOM     23  S   UNL     1       6.538   5.602  19.042  0.00  0.00    +0.000 S 
ENDBRANCH   7  19
TORSDOF 3
ENDMDL
MODEL 6
REMARK VINA RESULT:      -7.7      1.856      6.292
REMARK  Name = 
REMARK  3 active torsions:
REMARK  status: ('A' for Active; 'I' for Inactive)
REMARK    1  A    between atoms: C_2  and  C_3
REMARK    2  A    between atoms: C_11  and  C_12
REMARK    3  A    between atoms: C_18  and  C_19
REMARK                            x       y       z     vdW  Elec       q    Type
REMARK                         _______ _______ _______ _____ _____    ______ ____
ROOT
ATOM      1  O   UNL     1       4.617   3.844  17.610  0.00  0.00    +0.000 OA
ATOM      2  C   UNL     1       4.611   5.045  17.867  0.00  0.00    +0.000 C 
ATOM      3  N   UNL     1       3.446   5.793  18.033  0.00  0.00    +0.000 N 
ATOM      4  N   UNL     1       3.451   7.139  18.278  0.00  0.00    +0.000 NA
ATOM      5  C   UNL     1       2.220   7.541  18.245  0.00  0.00    +0.000 C 
ATOM      6  C   UNL     1       1.192   6.477  18.007  0.00  0.00    +0.000 C 
ATOM      7  C   UNL     1       2.093   5.246  17.911  0.00  0.00    +0.000 C 
ENDROOT
BRANCH   2   8
ATOM      8  C   UNL     1       5.918   5.740  18.054  0.00  0.00    +0.000 A 
ATOM      9  C   UNL     1       6.364   6.727  17.166  0.00  0.00    +0.000 A 
ATOM     10  C   UNL     1       7.545   7.424  17.422  0.00  0.00    +0.000 A 
ATOM     11  C   UNL     1       8.313   7.100  18.537  0.00  0.00    +0.000 A 
ATOM     12  C   UNL     1       7.909   6.074  19.392  0.00  0.00    +0.000 A 
ATOM     13  C   UNL     1       6.712   5.391  19.153  0.00  0.00    +0.000 A 
ENDBRANCH   2   8
BRANCH   5  14
ATOM     14  C   UNL     1       1.891   8.926  18.391  0.00  0.00    +0.000 A 
ATOM     15  C   UNL     1       1.069   9.570  19.295  0.00  0.00    +0.000 A 
ATOM     16  C   UNL     1       1.126  10.952  18.982  0.00  0.00    +0.000 A 
ATOM     17  C   UNL     1       1.979  11.062  17.911  0.00  0.00    +0.000 A 
ATOM     18  O   UNL     1       2.452   9.840  17.547  0.00  0.00    +0.000 OA
ENDBRANCH   5  14
BRANCH   7  19
ATOM     19  C   UNL     1       1.837   4.269  19.029  0.00  0.00    +0.000 A 
ATOM     20  C   UNL     1       1.847   4.484  20.396  0.00  0.00    +0.000 A 
ATOM     21  C   UNL     1       1.630   3.287  21.137  0.00  0.00    +0.000 A 
ATOM     22  C   UNL     1       1.451   2.198  20.315  0.00  0.00    +0.000 A 
ATOM     23  S   UNL     1       1.506   2.626  18.661  0.00  0.00    +0.000 S 
ENDBRANCH   7  19
TORSDOF 3
ENDMDL
MODEL 7
REMARK VINA RESULT:      -7.5      3.306      5.976
REMARK  Name = 
REMARK  3 active torsions:
REMARK  status: ('A' for Active; 'I' for Inactive)
REMARK    1  A    between atoms: C_2  and  C_3
REMARK    2  A    between atoms: C_11  and  C_12
REMARK    3  A    between atoms: C_18  and  C_19
REMARK                            x       y       z     vdW  Elec       q    Type
REMARK                         _______ _______ _______ _____ _____    ______ ____
ROOT
ATOM      1  O   UNL     1       3.725   6.265  18.711  0.00  0.00    +0.000 OA
ATOM      2  C   UNL     1       3.816   5.348  17.898  0.00  0.00    +0.000 C 
ATOM      3  N   UNL     1       4.587   5.418  16.739  0.00  0.00    +0.000 N 
ATOM      4  N   UNL     1       4.648   4.406  15.820  0.00  0.00    +0.000 NA
ATOM      5  C   UNL     1       5.337   4.843  14.813  0.00  0.00    +0.000 C 
ATOM      6  C   UNL     1       5.879   6.233  14.946  0.00  0.00    +0.000 C 
ATOM      7  C   UNL     1       5.371   6.590  16.342  0.00  0.00    +0.000 C 
ENDROOT
BRANCH   2   8
ATOM      8  C   UNL     1       3.098   4.071  18.182  0.00  0.00    +0.000 A 
ATOM      9  C   UNL     1       1.700   4.006  18.238  0.00  0.00    +0.000 A 
ATOM     10  C   UNL     1       1.057   2.781  18.411  0.00  0.00    +0.000 A 
ATOM     11  C   UNL     1       1.810   1.621  18.581  0.00  0.00    +0.000 A 
ATOM     12  C   UNL     1       3.204   1.687  18.590  0.00  0.00    +0.000 A 
ATOM     13  C   UNL     1       3.851   2.910  18.393  0.00  0.00    +0.000 A 
ENDBRANCH   2   8
BRANCH   5  14
ATOM     14  C   UNL     1       5.521   4.041  13.641  0.00  0.00    +0.000 A 
ATOM     15  C   UNL     1       4.603   3.465  12.786  0.00  0.00    +0.000 A 
ATOM     16  C   UNL     1       5.348   2.792  11.785  0.00  0.00    +0.000 A 
ATOM     17  C   UNL     1       6.670   3.002  12.093  0.00  0.00    +0.000 A 
ATOM     18  O   UNL     1       6.788   3.762  13.214  0.00  0.00    +0.000 OA
ENDBRANCH   5  14
BRANCH   7  19
ATOM     19  C   UNL     1       6.499   6.803  17.318  0.00  0.00    +0.000 A 
ATOM     20  C   UNL     1       7.236   7.947  17.564  0.00  0.00    +0.000 A 
ATOM     21  C   UNL     1       8.276   7.731  18.513  0.00  0.00    +0.000 A 
ATOM     22  C   UNL     1       8.294   6.434  18.970  0.00  0.00    +0.000 A 
ATOM     23  S   UNL     1       7.042   5.494  18.286  0.00  0.00    +0.000 S 
ENDBRANCH   7  19
TORSDOF 3
ENDMDL
MODEL 8
REMARK VINA RESULT:      -7.5      1.913      6.098
REMARK  Name = 
REMARK  3 active torsions:
REMARK  status: ('A' for Active; 'I' for Inactive)
REMARK    1  A    between atoms: C_2  and  C_3
REMARK    2  A    between atoms: C_11  and  C_12
REMARK    3  A    between atoms: C_18  and  C_19
REMARK                            x       y       z     vdW  Elec       q    Type
REMARK                         _______ _______ _______ _____ _____    ______ ____
ROOT
ATOM      1  O   UNL     1       4.773   3.884  17.451  0.00  0.00    +0.000 OA
ATOM      2  C   UNL     1       4.700   5.051  17.827  0.00  0.00    +0.000 C 
ATOM      3  N   UNL     1       3.496   5.722  18.032  0.00  0.00    +0.000 N 
ATOM      4  N   UNL     1       3.427   7.035  18.411  0.00  0.00    +0.000 NA
ATOM      5  C   UNL     1       2.178   7.379  18.382  0.00  0.00    +0.000 C 
ATOM      6  C   UNL     1       1.212   6.297  18.008  0.00  0.00    +0.000 C 
ATOM      7  C   UNL     1       2.175   5.127  17.817  0.00  0.00    +0.000 C 
ENDROOT
BRANCH   2   8
ATOM      8  C   UNL     1       5.966   5.785  18.121  0.00  0.00    +0.000 A 
ATOM      9  C   UNL     1       6.758   5.475  19.234  0.00  0.00    +0.000 A 
ATOM     10  C   UNL     1       7.982   6.115  19.428  0.00  0.00    +0.000 A 
ATOM     11  C   UNL     1       8.396   7.104  18.540  0.00  0.00    +0.000 A 
ATOM     12  C   UNL     1       7.583   7.464  17.464  0.00  0.00    +0.000 A 
ATOM     13  C   UNL     1       6.366   6.808  17.253  0.00  0.00    +0.000 A 
ENDBRANCH   2   8
BRANCH   5  14
ATOM     14  C   UNL     1       1.776   8.725  18.657  0.00  0.00    +0.000 A 
ATOM     15  C   UNL     1       1.917   9.881  17.914  0.00  0.00    +0.000 A 
ATOM     16  C   UNL     1       1.321  10.923  18.667  0.00  0.00    +0.000 A 
ATOM     17  C   UNL     1       0.853  10.337  19.818  0.00  0.00    +0.000 A 
ATOM     18  O   UNL     1       1.119   9.003  19.821  0.00  0.00    +0.000 OA
ENDBRANCH   5  14
BRANCH   7  19
ATOM     19  C   UNL     1       1.941   4.030  18.823  0.00  0.00    +0.000 A 
ATOM     20  C   UNL     1       1.656   2.694  18.607  0.00  0.00    +0.000 A 
ATOM     21  C   UNL     1       1.424   1.983  19.820  0.00  0.00    +0.000 A 
ATOM     22  C   UNL     1       1.550   2.795  20.923  0.00  0.00    +0.000 A 
ATOM     23  S   UNL     1       1.981   4.394  20.500  0.00  0.00    +0.000 S 
ENDBRANCH   7  19
TORSDOF 3
ENDMDL
MODEL 9
REMARK VINA RESULT:      -7.5      1.847      5.393
REMARK  Name = 
REMARK  3 active torsions:
REMARK  status: ('A' for Active; 'I' for Inactive)
REMARK    1  A    between atoms: C_2  and  C_3
REMARK    2  A    between atoms: C_11  and  C_12
REMARK    3  A    between atoms: C_18  and  C_19
REMARK                            x       y       z     vdW  Elec       q    Type
REMARK                         _______ _______ _______ _____ _____    ______ ____
ROOT
ATOM      1  O   UNL     1       5.443   3.438  19.076  0.00  0.00    +0.000 OA
ATOM      2  C   UNL     1       4.402   4.087  19.159  0.00  0.00    +0.000 C 
ATOM      3  N   UNL     1       4.253   5.375  18.649  0.00  0.00    +0.000 N 
ATOM      4  N   UNL     1       3.104   6.104  18.784  0.00  0.00    +0.000 NA
ATOM      5  C   UNL     1       3.344   7.291  18.321  0.00  0.00    +0.000 C 
ATOM      6  C   UNL     1       4.716   7.507  17.761  0.00  0.00    +0.000 C 
ATOM      7  C   UNL     1       5.315   6.117  17.964  0.00  0.00    +0.000 C 
ENDROOT
BRANCH   2   8
ATOM      8  C   UNL     1       3.217   3.451  19.804  0.00  0.00    +0.000 A 
ATOM      9  C   UNL     1       2.285   2.708  19.069  0.00  0.00    +0.000 A 
ATOM     10  C   UNL     1       1.241   2.048  19.716  0.00  0.00    +0.000 A 
ATOM     11  C   UNL     1       1.092   2.171  21.095  0.00  0.00    +0.000 A 
ATOM     12  C   UNL     1       1.978   2.962  21.827  0.00  0.00    +0.000 A 
ATOM     13  C   UNL     1       3.041   3.605  21.185  0.00  0.00    +0.000 A 
ENDBRANCH   2   8
BRANCH   5  14
ATOM     14  C   UNL     1       2.355   8.324  18.389  0.00  0.00    +0.000 A 
ATOM     15  C   UNL     1       1.880   9.186  17.421  0.00  0.00    +0.000 A 
ATOM     16  C   UNL     1       0.894   9.991  18.043  0.00  0.00    +0.000 A 
ATOM     17  C   UNL     1       0.829   9.568  19.349  0.00  0.00    +0.000 A 
ATOM     18  O   UNL     1       1.708   8.554  19.569  0.00  0.00    +0.000 OA
ENDBRANCH   5  14
BRANCH   7  19
ATOM     19  C   UNL     1       5.642   5.445  16.655  0.00  0.00    +0.000 A 
ATOM     20  C   UNL     1       4.830   5.233  15.556  0.00  0.00    +0.000 A 
ATOM     21  C   UNL     1       5.483   4.490  14.531  0.00  0.00    +0.000 A 
ATOM     22  C   UNL     1       6.775   4.167  14.874  0.00  0.00    +0.000 A 
ATOM     23  S   UNL     1       7.208   4.789  16.406  0.00  0.00    +0.000 S 
ENDBRANCH   7  19
TORSDOF 3
ENDMDL
