MODEL 1
REMARK VINA RESULT:      -6.4      0.000      0.000
REMARK  Name = 
REMARK  10 active torsions:
REMARK  status: ('A' for Active; 'I' for Inactive)
REMARK    1  A    between atoms: C_1  and  O_2
REMARK    2  A    between atoms: O_2  and  C_3
REMARK    3  A    between atoms: C_6  and  C_7
REMARK    4  A    between atoms: C_7  and  CA_8
REMARK    5  A    between atoms: CA_8  and  N_9
REMARK    6  A    between atoms: CA_8  and  C_10
REMARK    7  A    between atoms: C_10  and  OXT_12
REMARK    8  A    between atoms: C_14  and  C_15
REMARK    9  A    between atoms: C_15  and  C_16
REMARK   10  A    between atoms: C_16  and  C_17
REMARK                            x       y       z     vdW  Elec       q    Type
REMARK                         _______ _______ _______ _____ _____    ______ ____
ROOT
ATOM      1  C   UNL     1       2.183   6.896  19.756  0.00  0.00    +0.000 A 
ATOM      2  C   UNL     1       2.596   7.786  18.762  0.00  0.00    +0.000 A 
ATOM      3  C   UNL     1       3.438   7.357  17.733  0.00  0.00    +0.000 A 
ATOM      4  C   UNL     1       3.927   6.047  17.713  0.00  0.00    +0.000 A 
ATOM      5  C   UNL     1       3.594   5.191  18.770  0.00  0.00    +0.000 A 
ATOM      6  C   UNL     1       2.724   5.601  19.797  0.00  0.00    +0.000 A 
ENDROOT
BRANCH   1   8
ATOM      7  C   UNL     1       1.187   8.607  21.058  0.00  0.00    +0.000 C 
ATOM      8  O   UNL     1       1.264   7.223  20.717  0.00  0.00    +0.000 OA
ENDBRANCH   1   8
BRANCH   4   9
ATOM      9  C   UNL     1       4.735   5.532  16.546  0.00  0.00    +0.000 C 
BRANCH   9  10
ATOM     10  CA  UNL     1       5.777   4.473  16.924  0.00  0.00    +0.000 C 
BRANCH  10  11
ATOM     11  N   UNL     1       5.717   3.260  16.047  0.00  0.00    +0.000 NA
ATOM     12  H1  UNL     1       6.608   2.760  16.139  0.00  0.00    +0.000 HD
ATOM     13  H2  UNL     1       5.739   3.593  15.075  0.00  0.00    +0.000 HD
ENDBRANCH  10  11
BRANCH  10  14
ATOM     14  C   UNL     1       7.194   5.059  16.834  0.00  0.00    +0.000 C 
ATOM     15  O   UNL     1       7.479   6.183  16.450  0.00  0.00    +0.000 OA
BRANCH  14  16
ATOM     16  OXT UNL     1       8.114   4.166  17.285  0.00  0.00    +0.000 OA
ATOM     17  HXT UNL     1       8.384   3.633  16.494  0.00  0.00    +0.000 HD
ENDBRANCH  14  16
ENDBRANCH  10  14
ENDBRANCH   9  10
ENDBRANCH   4   9
BRANCH   6  18
ATOM     18  C   UNL     1       2.359   4.601  20.872  0.00  0.00    +0.000 C 
BRANCH  18  19
ATOM     19  C   UNL     1       1.094   3.791  20.568  0.00  0.00    +0.000 C 
BRANCH  19  20
ATOM     20  C   UNL     1       1.352   2.525  19.765  0.00  0.00    +0.000 C 
ATOM     21  F   UNL     1       0.333   2.336  18.884  0.00  0.00    +0.000 F 
ENDBRANCH  19  20
ENDBRANCH  18  19
ENDBRANCH   6  18
TORSDOF 9
ENDMDL
MODEL 2
REMARK VINA RESULT:      -6.4      3.068      6.052
REMARK  Name = 
REMARK  10 active torsions:
REMARK  status: ('A' for Active; 'I' for Inactive)
REMARK    1  A    between atoms: C_1  and  O_2
REMARK    2  A    between atoms: O_2  and  C_3
REMARK    3  A    between atoms: C_6  and  C_7
REMARK    4  A    between atoms: C_7  and  CA_8
REMARK    5  A    between atoms: CA_8  and  N_9
REMARK    6  A    between atoms: CA_8  and  C_10
REMARK    7  A    between atoms: C_10  and  OXT_12
REMARK    8  A    between atoms: C_14  and  C_15
REMARK    9  A    between atoms: C_15  and  C_16
REMARK   10  A    between atoms: C_16  and  C_17
REMARK                            x       y       z     vdW  Elec       q    Type
REMARK                         _______ _______ _______ _____ _____    ______ ____
ROOT
ATOM      1  C   UNL     1       5.949   4.754  18.122  0.00  0.00    +0.000 A 
ATOM      2  C   UNL     1       5.118   5.162  19.168  0.00  0.00    +0.000 A 
ATOM      3  C   UNL     1       3.738   4.965  19.094  0.00  0.00    +0.000 A 
ATOM      4  C   UNL     1       3.159   4.409  17.948  0.00  0.00    +0.000 A 
ATOM      5  C   UNL     1       3.985   4.101  16.862  0.00  0.00    +0.000 A 
ATOM      6  C   UNL     1       5.380   4.267  16.933  0.00  0.00    +0.000 A 
ENDROOT
BRANCH   1   8
ATOM      7  C   UNL     1       7.857   5.761  19.102  0.00  0.00    +0.000 C 
ATOM      8  O   UNL     1       7.316   4.807  18.188  0.00  0.00    +0.000 OA
ENDBRANCH   1   8
BRANCH   4   9
ATOM      9  C   UNL     1       1.686   4.076  17.901  0.00  0.00    +0.000 C 
BRANCH   9  10
ATOM     10  CA  UNL     1       1.309   2.798  18.661  0.00  0.00    +0.000 C 
BRANCH  10  11
ATOM     11  N   UNL     1       2.303   1.695  18.471  0.00  0.00    +0.000 NA
ATOM     12  H1  UNL     1       2.040   1.176  17.625  0.00  0.00    +0.000 HD
ATOM     13  H2  UNL     1       2.138   1.012  19.220  0.00  0.00    +0.000 HD
ENDBRANCH  10  11
BRANCH  10  14
ATOM     14  C   UNL     1       1.192   3.085  20.165  0.00  0.00    +0.000 C 
ATOM     15  O   UNL     1       1.601   2.366  21.063  0.00  0.00    +0.000 OA
BRANCH  14  16
ATOM     16  OXT UNL     1       0.598   4.289  20.381  0.00  0.00    +0.000 OA
ATOM     17  HXT UNL     1      -0.190   4.103  20.952  0.00  0.00    +0.000 HD
ENDBRANCH  14  16
ENDBRANCH  10  14
ENDBRANCH   9  10
ENDBRANCH   4   9
BRANCH   6  18
ATOM     18  C   UNL     1       6.216   3.853  15.743  0.00  0.00    +0.000 C 
BRANCH  18  19
ATOM     19  C   UNL     1       5.733   4.431  14.409  0.00  0.00    +0.000 C 
BRANCH  19  20
ATOM     20  C   UNL     1       6.252   3.683  13.190  0.00  0.00    +0.000 C 
ATOM     21  F   UNL     1       5.253   3.568  12.274  0.00  0.00    +0.000 F 
ENDBRANCH  19  20
ENDBRANCH  18  19
ENDBRANCH   6  18
TORSDOF 9
ENDMDL
MODEL 3
REMARK VINA RESULT:      -6.4      3.603      5.951
REMARK  Name = 
REMARK  10 active torsions:
REMARK  status: ('A' for Active; 'I' for Inactive)
REMARK    1  A    between atoms: C_1  and  O_2
REMARK    2  A    between atoms: O_2  and  C_3
REMARK    3  A    between atoms: C_6  and  C_7
REMARK    4  A    between atoms: C_7  and  CA_8
REMARK    5  A    between atoms: CA_8  and  N_9
REMARK    6  A    between atoms: CA_8  and  C_10
REMARK    7  A    between atoms: C_10  and  OXT_12
REMARK    8  A    between atoms: C_14  and  C_15
REMARK    9  A    between atoms: C_15  and  C_16
REMARK   10  A    between atoms: C_16  and  C_17
REMARK                            x       y       z     vdW  Elec       q    Type
REMARK                         _______ _______ _______ _____ _____    ______ ____
ROOT
ATOM      1  C   UNL     1       5.185   6.120  16.782  0.00  0.00    +0.000 A 
ATOM      2  C   UNL     1       4.123   6.676  17.499  0.00  0.00    +0.000 A 
ATOM      3  C   UNL     1       3.110   5.862  18.010  0.00  0.00    +0.000 A 
ATOM      4  C   UNL     1       3.112   4.485  17.763  0.00  0.00    +0.000 A 
ATOM      5  C   UNL     1       4.121   3.951  16.955  0.00  0.00    +0.000 A 
ATOM      6  C   UNL     1       5.163   4.754  16.457  0.00  0.00    +0.000 A 
ENDROOT
BRANCH   1   8
ATOM      7  C   UNL     1       7.189   7.234  17.383  0.00  0.00    +0.000 C 
ATOM      8  O   UNL     1       6.267   6.848  16.364  0.00  0.00    +0.000 OA
ENDBRANCH   1   8
BRANCH   4   9
ATOM      9  C   UNL     1       2.095   3.575  18.410  0.00  0.00    +0.000 C 
BRANCH   9  10
ATOM     10  CA  UNL     1       1.980   3.744  19.930  0.00  0.00    +0.000 C 
BRANCH  10  11
ATOM     11  N   UNL     1       0.605   3.449  20.445  0.00  0.00    +0.000 NA
ATOM     12  H1  UNL     1       0.296   4.257  20.997  0.00  0.00    +0.000 HD
ATOM     13  H2  UNL     1       0.703   2.711  21.153  0.00  0.00    +0.000 HD
ENDBRANCH  10  11
BRANCH  10  14
ATOM     14  C   UNL     1       2.970   2.815  20.648  0.00  0.00    +0.000 C 
ATOM     15  O   UNL     1       3.950   2.289  20.144  0.00  0.00    +0.000 OA
BRANCH  14  16
ATOM     16  OXT UNL     1       2.638   2.678  21.959  0.00  0.00    +0.000 OA
ATOM     17  HXT UNL     1       1.801   3.195  22.082  0.00  0.00    +0.000 HD
ENDBRANCH  14  16
ENDBRANCH  10  14
ENDBRANCH   9  10
ENDBRANCH   4   9
BRANCH   6  18
ATOM     18  C   UNL     1       6.254   4.095  15.643  0.00  0.00    +0.000 C 
BRANCH  18  19
ATOM     19  C   UNL     1       5.889   3.875  14.171  0.00  0.00    +0.000 C 
BRANCH  19  20
ATOM     20  C   UNL     1       6.911   4.437  13.194  0.00  0.00    +0.000 C 
ATOM     21  F   UNL     1       7.757   5.271  13.857  0.00  0.00    +0.000 F 
ENDBRANCH  19  20
ENDBRANCH  18  19
ENDBRANCH   6  18
TORSDOF 9
ENDMDL
MODEL 4
REMARK VINA RESULT:      -6.4      3.688      5.846
REMARK  Name = 
REMARK  10 active torsions:
REMARK  status: ('A' for Active; 'I' for Inactive)
REMARK    1  A    between atoms: C_1  and  O_2
REMARK    2  A    between atoms: O_2  and  C_3
REMARK    3  A    between atoms: C_6  and  C_7
REMARK    4  A    between atoms: C_7  and  CA_8
REMARK    5  A    between atoms: CA_8  and  N_9
REMARK    6  A    between atoms: CA_8  and  C_10
REMARK    7  A    between atoms: C_10  and  OXT_12
REMARK    8  A    between atoms: C_14  and  C_15
REMARK    9  A    between atoms: C_15  and  C_16
REMARK   10  A    between atoms: C_16  and  C_17
REMARK                            x       y       z     vdW  Elec       q    Type
REMARK                         _______ _______ _______ _____ _____    ______ ____
ROOT
ATOM      1  C   UNL     1       5.623   6.188  16.683  0.00  0.00    +0.000 A 
ATOM      2  C   UNL     1       4.701   6.666  17.616  0.00  0.00    +0.000 A 
ATOM      3  C   UNL     1       3.633   5.867  18.030  0.00  0.00    +0.000 A 
ATOM      4  C   UNL     1       3.437   4.598  17.475  0.00  0.00    +0.000 A 
ATOM      5  C   UNL     1       4.304   4.168  16.464  0.00  0.00    +0.000 A 
ATOM      6  C   UNL     1       5.400   4.950  16.058  0.00  0.00    +0.000 A 
ENDROOT
BRANCH   1   8
ATOM      7  C   UNL     1       7.499   7.441  17.410  0.00  0.00    +0.000 C 
ATOM      8  O   UNL     1       6.755   6.874  16.332  0.00  0.00    +0.000 OA
ENDBRANCH   1   8
BRANCH   4   9
ATOM      9  C   UNL     1       2.363   3.674  17.999  0.00  0.00    +0.000 C 
BRANCH   9  10
ATOM     10  CA  UNL     1       2.710   3.005  19.335  0.00  0.00    +0.000 C 
BRANCH  10  11
ATOM     11  N   UNL     1       1.542   2.296  19.949  0.00  0.00    +0.000 NA
ATOM     12  H1  UNL     1       1.909   1.592  20.600  0.00  0.00    +0.000 HD
ATOM     13  H2  UNL     1       1.117   1.726  19.209  0.00  0.00    +0.000 HD
ENDBRANCH  10  11
BRANCH  10  14
ATOM     14  C   UNL     1       3.844   1.987  19.146  0.00  0.00    +0.000 C 
ATOM     15  O   UNL     1       3.789   0.976  18.463  0.00  0.00    +0.000 OA
BRANCH  14  16
ATOM     16  OXT UNL     1       4.960   2.379  19.815  0.00  0.00    +0.000 OA
ATOM     17  HXT UNL     1       5.022   1.788  20.608  0.00  0.00    +0.000 HD
ENDBRANCH  14  16
ENDBRANCH  10  14
ENDBRANCH   9  10
ENDBRANCH   4   9
BRANCH   6  18
ATOM     18  C   UNL     1       6.331   4.392  15.004  0.00  0.00    +0.000 C 
BRANCH  18  19
ATOM     19  C   UNL     1       5.631   3.983  13.705  0.00  0.00    +0.000 C 
BRANCH  19  20
ATOM     20  C   UNL     1       6.586   3.658  12.567  0.00  0.00    +0.000 C 
ATOM     21  F   UNL     1       7.446   4.697  12.389  0.00  0.00    +0.000 F 
ENDBRANCH  19  20
ENDBRANCH  18  19
ENDBRANCH   6  18
TORSDOF 9
ENDMDL
MODEL 5
REMARK VINA RESULT:      -6.4      3.205      5.656
REMARK  Name = 
REMARK  10 active torsions:
REMARK  status: ('A' for Active; 'I' for Inactive)
REMARK    1  A    between atoms: C_1  and  O_2
REMARK    2  A    between atoms: O_2  and  C_3
REMARK    3  A    between atoms: C_6  and  C_7
REMARK    4  A    between atoms: C_7  and  CA_8
REMARK    5  A    between atoms: CA_8  and  N_9
REMARK    6  A    between atoms: CA_8  and  C_10
REMARK    7  A    between atoms: C_10  and  OXT_12
REMARK    8  A    between atoms: C_14  and  C_15
REMARK    9  A    between atoms: C_15  and  C_16
REMARK   10  A    between atoms: C_16  and  C_17
REMARK                            x       y       z     vdW  Elec       q    Type
REMARK                         _______ _______ _______ _____ _____    ______ ____
ROOT
ATOM      1  C   UNL     1       5.612   5.752  16.715  0.00  0.00    +0.000 A 
ATOM      2  C   UNL     1       4.579   6.109  17.585  0.00  0.00    +0.000 A 
ATOM      3  C   UNL     1       3.561   5.201  17.885  0.00  0.00    +0.000 A 
ATOM      4  C   UNL     1       3.528   3.943  17.276  0.00  0.00    +0.000 A 
ATOM      5  C   UNL     1       4.508   3.632  16.326  0.00  0.00    +0.000 A 
ATOM      6  C   UNL     1       5.555   4.525  16.035  0.00  0.00    +0.000 A 
ENDROOT
BRANCH   1   8
ATOM      7  C   UNL     1       7.323   7.110  17.635  0.00  0.00    +0.000 C 
ATOM      8  O   UNL     1       6.700   6.550  16.480  0.00  0.00    +0.000 OA
ENDBRANCH   1   8
BRANCH   4   9
ATOM      9  C   UNL     1       2.507   2.906  17.681  0.00  0.00    +0.000 C 
BRANCH   9  10
ATOM     10  CA  UNL     1       3.034   1.863  18.675  0.00  0.00    +0.000 C 
BRANCH  10  11
ATOM     11  N   UNL     1       4.022   0.921  18.058  0.00  0.00    +0.000 NA
ATOM     12  H1  UNL     1       4.956   1.333  18.163  0.00  0.00    +0.000 HD
ATOM     13  H2  UNL     1       3.870   0.952  17.043  0.00  0.00    +0.000 HD
ENDBRANCH  10  11
BRANCH  10  14
ATOM     14  C   UNL     1       3.710   2.555  19.867  0.00  0.00    +0.000 C 
ATOM     15  O   UNL     1       3.139   3.178  20.750  0.00  0.00    +0.000 OA
BRANCH  14  16
ATOM     16  OXT UNL     1       5.054   2.349  19.845  0.00  0.00    +0.000 OA
ATOM     17  HXT UNL     1       5.368   2.517  20.770  0.00  0.00    +0.000 HD
ENDBRANCH  14  16
ENDBRANCH  10  14
ENDBRANCH   9  10
ENDBRANCH   4   9
BRANCH   6  18
ATOM     18  C   UNL     1       6.613   4.095  15.044  0.00  0.00    +0.000 C 
BRANCH  18  19
ATOM     19  C   UNL     1       6.319   4.507  13.598  0.00  0.00    +0.000 C 
BRANCH  19  20
ATOM     20  C   UNL     1       6.020   3.337  12.673  0.00  0.00    +0.000 C 
ATOM     21  F   UNL     1       4.770   3.479  12.157  0.00  0.00    +0.000 F 
ENDBRANCH  19  20
ENDBRANCH  18  19
ENDBRANCH   6  18
TORSDOF 9
ENDMDL
MODEL 6
REMARK VINA RESULT:      -6.3      3.150      6.016
REMARK  Name = 
REMARK  10 active torsions:
REMARK  status: ('A' for Active; 'I' for Inactive)
REMARK    1  A    between atoms: C_1  and  O_2
REMARK    2  A    between atoms: O_2  and  C_3
REMARK    3  A    between atoms: C_6  and  C_7
REMARK    4  A    between atoms: C_7  and  CA_8
REMARK    5  A    between atoms: CA_8  and  N_9
REMARK    6  A    between atoms: CA_8  and  C_10
REMARK    7  A    between atoms: C_10  and  OXT_12
REMARK    8  A    between atoms: C_14  and  C_15
REMARK    9  A    between atoms: C_15  and  C_16
REMARK   10  A    between atoms: C_16  and  C_17
REMARK                            x       y       z     vdW  Elec       q    Type
REMARK                         _______ _______ _______ _____ _____    ______ ____
ROOT
ATOM      1  C   UNL     1       5.079   5.858  16.851  0.00  0.00    +0.000 A 
ATOM      2  C   UNL     1       4.131   6.339  17.757  0.00  0.00    +0.000 A 
ATOM      3  C   UNL     1       3.135   5.497  18.254  0.00  0.00    +0.000 A 
ATOM      4  C   UNL     1       3.035   4.174  17.810  0.00  0.00    +0.000 A 
ATOM      5  C   UNL     1       3.922   3.730  16.824  0.00  0.00    +0.000 A 
ATOM      6  C   UNL     1       4.948   4.558  16.334  0.00  0.00    +0.000 A 
ENDROOT
BRANCH   1   8
ATOM      7  C   UNL     1       7.098   6.956  17.428  0.00  0.00    +0.000 C 
ATOM      8  O   UNL     1       6.149   6.598  16.424  0.00  0.00    +0.000 OA
ENDBRANCH   1   8
BRANCH   4   9
ATOM      9  C   UNL     1       2.044   3.216  18.428  0.00  0.00    +0.000 C 
BRANCH   9  10
ATOM     10  CA  UNL     1       2.570   2.484  19.669  0.00  0.00    +0.000 C 
BRANCH  10  11
ATOM     11  N   UNL     1       4.008   2.791  19.957  0.00  0.00    +0.000 NA
ATOM     12  H1  UNL     1       4.581   2.079  19.492  0.00  0.00    +0.000 HD
ATOM     13  H2  UNL     1       4.160   2.594  20.954  0.00  0.00    +0.000 HD
ENDBRANCH  10  11
BRANCH  10  14
ATOM     14  C   UNL     1       1.742   2.862  20.905  0.00  0.00    +0.000 C 
ATOM     15  O   UNL     1       2.099   2.748  22.067  0.00  0.00    +0.000 OA
BRANCH  14  16
ATOM     16  OXT UNL     1       0.545   3.394  20.538  0.00  0.00    +0.000 OA
ATOM     17  HXT UNL     1       0.011   3.456  21.371  0.00  0.00    +0.000 HD
ENDBRANCH  14  16
ENDBRANCH  10  14
ENDBRANCH   9  10
ENDBRANCH   4   9
BRANCH   6  18
ATOM     18  C   UNL     1       5.909   3.988  15.315  0.00  0.00    +0.000 C 
BRANCH  18  19
ATOM     19  C   UNL     1       5.552   4.325  13.863  0.00  0.00    +0.000 C 
BRANCH  19  20
ATOM     20  C   UNL     1       6.245   3.441  12.838  0.00  0.00    +0.000 C 
ATOM     21  F   UNL     1       5.314   2.897  12.009  0.00  0.00    +0.000 F 
ENDBRANCH  19  20
ENDBRANCH  18  19
ENDBRANCH   6  18
TORSDOF 9
ENDMDL
MODEL 7
REMARK VINA RESULT:      -6.3      2.282      2.947
REMARK  Name = 
REMARK  10 active torsions:
REMARK  status: ('A' for Active; 'I' for Inactive)
REMARK    1  A    between atoms: C_1  and  O_2
REMARK    2  A    between atoms: O_2  and  C_3
REMARK    3  A    between atoms: C_6  and  C_7
REMARK    4  A    between atoms: C_7  and  CA_8
REMARK    5  A    between atoms: CA_8  and  N_9
REMARK    6  A    between atoms: CA_8  and  C_10
REMARK    7  A    between atoms: C_10  and  OXT_12
REMARK    8  A    between atoms: C_14  and  C_15
REMARK    9  A    between atoms: C_15  and  C_16
REMARK   10  A    between atoms: C_16  and  C_17
REMARK                            x       y       z     vdW  Elec       q    Type
REMARK                         _______ _______ _______ _____ _____    ______ ____
ROOT
ATOM      1  C   UNL     1       2.103   4.684  18.536  0.00  0.00    +0.000 A 
ATOM      2  C   UNL     1       2.433   6.040  18.601  0.00  0.00    +0.000 A 
ATOM      3  C   UNL     1       3.492   6.548  17.845  0.00  0.00    +0.000 A 
ATOM      4  C   UNL     1       4.275   5.698  17.057  0.00  0.00    +0.000 A 
ATOM      5  C   UNL     1       4.004   4.325  17.080  0.00  0.00    +0.000 A 
ATOM      6  C   UNL     1       2.923   3.803  17.813  0.00  0.00    +0.000 A 
ENDROOT
BRANCH   1   8
ATOM      7  C   UNL     1       1.080   4.047  20.577  0.00  0.00    +0.000 C 
ATOM      8  O   UNL     1       1.003   4.153  19.156  0.00  0.00    +0.000 OA
ENDBRANCH   1   8
BRANCH   4   9
ATOM      9  C   UNL     1       5.342   6.247  16.140  0.00  0.00    +0.000 C 
BRANCH   9  10
ATOM     10  CA  UNL     1       6.754   5.729  16.441  0.00  0.00    +0.000 C 
BRANCH  10  11
ATOM     11  N   UNL     1       7.617   5.651  15.219  0.00  0.00    +0.000 NA
ATOM     12  H1  UNL     1       8.316   6.400  15.281  0.00  0.00    +0.000 HD
ATOM     13  H2  UNL     1       7.036   5.944  14.425  0.00  0.00    +0.000 HD
ENDBRANCH  10  11
BRANCH  10  14
ATOM     14  C   UNL     1       7.450   6.638  17.464  0.00  0.00    +0.000 C 
ATOM     15  O   UNL     1       7.877   6.292  18.554  0.00  0.00    +0.000 OA
BRANCH  14  16
ATOM     16  OXT UNL     1       7.575   7.902  16.978  0.00  0.00    +0.000 OA
ATOM     17  HXT UNL     1       6.941   7.964  16.219  0.00  0.00    +0.000 HD
ENDBRANCH  14  16
ENDBRANCH  10  14
ENDBRANCH   9  10
ENDBRANCH   4   9
BRANCH   6  18
ATOM     18  C   UNL     1       2.654   2.317  17.740  0.00  0.00    +0.000 C 
BRANCH  18  19
ATOM     19  C   UNL     1       3.672   1.459  18.498  0.00  0.00    +0.000 C 
BRANCH  19  20
ATOM     20  C   UNL     1       4.202   2.110  19.766  0.00  0.00    +0.000 C 
ATOM     21  F   UNL     1       5.103   1.278  20.356  0.00  0.00    +0.000 F 
ENDBRANCH  19  20
ENDBRANCH  18  19
ENDBRANCH   6  18
TORSDOF 9
ENDMDL
MODEL 8
REMARK VINA RESULT:      -6.3      3.699      6.578
REMARK  Name = 
REMARK  10 active torsions:
REMARK  status: ('A' for Active; 'I' for Inactive)
REMARK    1  A    between atoms: C_1  and  O_2
REMARK    2  A    between atoms: O_2  and  C_3
REMARK    3  A    between atoms: C_6  and  C_7
REMARK    4  A    between atoms: C_7  and  CA_8
REMARK    5  A    between atoms: CA_8  and  N_9
REMARK    6  A    between atoms: CA_8  and  C_10
REMARK    7  A    between atoms: C_10  and  OXT_12
REMARK    8  A    between atoms: C_14  and  C_15
REMARK    9  A    between atoms: C_15  and  C_16
REMARK   10  A    between atoms: C_16  and  C_17
REMARK                            x       y       z     vdW  Elec       q    Type
REMARK                         _______ _______ _______ _____ _____    ______ ____
ROOT
ATOM      1  C   UNL     1       5.782   4.654  16.647  0.00  0.00    +0.000 A 
ATOM      2  C   UNL     1       4.448   4.278  16.475  0.00  0.00    +0.000 A 
ATOM      3  C   UNL     1       3.598   4.158  17.577  0.00  0.00    +0.000 A 
ATOM      4  C   UNL     1       4.083   4.356  18.874  0.00  0.00    +0.000 A 
ATOM      5  C   UNL     1       5.444   4.629  19.046  0.00  0.00    +0.000 A 
ATOM      6  C   UNL     1       6.306   4.780  17.944  0.00  0.00    +0.000 A 
ENDROOT
BRANCH   1   8
ATOM      7  C   UNL     1       6.422   4.118  14.429  0.00  0.00    +0.000 C 
ATOM      8  O   UNL     1       6.628   4.907  15.601  0.00  0.00    +0.000 OA
ENDBRANCH   1   8
BRANCH   4   9
ATOM      9  C   UNL     1       3.152   4.353  20.064  0.00  0.00    +0.000 C 
BRANCH   9  10
ATOM     10  CA  UNL     1       2.675   2.957  20.482  0.00  0.00    +0.000 C 
BRANCH  10  11
ATOM     11  N   UNL     1       2.494   2.824  21.963  0.00  0.00    +0.000 NA
ATOM     12  H1  UNL     1       2.283   3.756  22.339  0.00  0.00    +0.000 HD
ATOM     13  H2  UNL     1       3.420   2.621  22.359  0.00  0.00    +0.000 HD
ENDBRANCH  10  11
BRANCH  10  14
ATOM     14  C   UNL     1       1.338   2.624  19.804  0.00  0.00    +0.000 C 
ATOM     15  O   UNL     1       1.192   1.914  18.820  0.00  0.00    +0.000 OA
BRANCH  14  16
ATOM     16  OXT UNL     1       0.302   3.197  20.473  0.00  0.00    +0.000 OA
ATOM     17  HXT UNL     1      -0.495   3.070  19.898  0.00  0.00    +0.000 HD
ENDBRANCH  14  16
ENDBRANCH  10  14
ENDBRANCH   9  10
ENDBRANCH   4   9
BRANCH   6  18
ATOM     18  C   UNL     1       7.752   5.137  18.205  0.00  0.00    +0.000 C 
BRANCH  18  19
ATOM     19  C   UNL     1       7.964   6.577  18.683  0.00  0.00    +0.000 C 
BRANCH  19  20
ATOM     20  C   UNL     1       7.666   7.627  17.624  0.00  0.00    +0.000 C 
ATOM     21  F   UNL     1       8.356   8.764  17.910  0.00  0.00    +0.000 F 
ENDBRANCH  19  20
ENDBRANCH  18  19
ENDBRANCH   6  18
TORSDOF 9
ENDMDL
MODEL 9
REMARK VINA RESULT:      -6.3      3.471      6.210
REMARK  Name = 
REMARK  10 active torsions:
REMARK  status: ('A' for Active; 'I' for Inactive)
REMARK    1  A    between atoms: C_1  and  O_2
REMARK    2  A    between atoms: O_2  and  C_3
REMARK    3  A    between atoms: C_6  and  C_7
REMARK    4  A    between atoms: C_7  and  CA_8
REMARK    5  A    between atoms: CA_8  and  N_9
REMARK    6  A    between atoms: CA_8  and  C_10
REMARK    7  A    between atoms: C_10  and  OXT_12
REMARK    8  A    between atoms: C_14  and  C_15
REMARK    9  A    between atoms: C_15  and  C_16
REMARK   10  A    between atoms: C_16  and  C_17
REMARK                            x       y       z     vdW  Elec       q    Type
REMARK                         _______ _______ _______ _____ _____    ______ ____
ROOT
ATOM      1  C   UNL     1       6.394   5.669  17.278  0.00  0.00    +0.000 A 
ATOM      2  C   UNL     1       6.233   5.548  18.660  0.00  0.00    +0.000 A 
ATOM      3  C   UNL     1       5.320   4.634  19.189  0.00  0.00    +0.000 A 
ATOM      4  C   UNL     1       4.511   3.866  18.345  0.00  0.00    +0.000 A 
ATOM      5  C   UNL     1       4.603   4.070  16.963  0.00  0.00    +0.000 A 
ATOM      6  C   UNL     1       5.538   4.967  16.415  0.00  0.00    +0.000 A 
ENDROOT
BRANCH   1   8
ATOM      7  C   UNL     1       7.676   7.659  17.403  0.00  0.00    +0.000 C 
ATOM      8  O   UNL     1       7.357   6.456  16.704  0.00  0.00    +0.000 OA
ENDBRANCH   1   8
BRANCH   4   9
ATOM      9  C   UNL     1       3.609   2.787  18.896  0.00  0.00    +0.000 C 
BRANCH   9  10
ATOM     10  CA  UNL     1       2.117   3.023  18.632  0.00  0.00    +0.000 C 
BRANCH  10  11
ATOM     11  N   UNL     1       1.341   1.748  18.507  0.00  0.00    +0.000 NA
ATOM     12  H1  UNL     1       1.617   1.134  19.283  0.00  0.00    +0.000 HD
ATOM     13  H2  UNL     1       1.706   1.256  17.683  0.00  0.00    +0.000 HD
ENDBRANCH  10  11
BRANCH  10  14
ATOM     14  C   UNL     1       1.498   3.852  19.766  0.00  0.00    +0.000 C 
ATOM     15  O   UNL     1       1.767   5.014  20.031  0.00  0.00    +0.000 OA
BRANCH  14  16
ATOM     16  OXT UNL     1       0.559   3.130  20.434  0.00  0.00    +0.000 OA
ATOM     17  HXT UNL     1       0.197   2.483  19.776  0.00  0.00    +0.000 HD
ENDBRANCH  14  16
ENDBRANCH  10  14
ENDBRANCH   9  10
ENDBRANCH   4   9
BRANCH   6  18
ATOM     18  C   UNL     1       5.623   5.087  14.910  0.00  0.00    +0.000 C 
BRANCH  18  19
ATOM     19  C   UNL     1       6.408   3.957  14.236  0.00  0.00    +0.000 C 
BRANCH  19  20
ATOM     20  C   UNL     1       5.928   3.628  12.831  0.00  0.00    +0.000 C 
ATOM     21  F   UNL     1       6.973   3.721  11.965  0.00  0.00    +0.000 F 
ENDBRANCH  19  20
ENDBRANCH  18  19
ENDBRANCH   6  18
TORSDOF 9
ENDMDL
