MODEL 1
REMARK VINA RESULT:      -7.5      0.000      0.000
REMARK  Name = 
REMARK  3 active torsions:
REMARK  status: ('A' for Active; 'I' for Inactive)
REMARK    1  A    between atoms: C_2  and  C_10
REMARK    2  A    between atoms: N_3  and  C_4
REMARK    3  A    between atoms: C_17  and  C_18
REMARK                            x       y       z     vdW  Elec       q    Type
REMARK                         _______ _______ _______ _____ _____    ______ ____
ROOT
ATOM      1  C   UNL     1      -1.689  11.565  18.457  0.00  0.00    +0.000 C 
ATOM      2  C   UNL     1      -2.048  11.806  19.949  0.00  0.00    +0.000 C 
ATOM      3  C   UNL     1      -0.788  11.969  20.803  0.00  0.00    +0.000 C 
ATOM      4  C   UNL     1       0.008  13.169  20.279  0.00  0.00    +0.000 C 
ATOM      5  C   UNL     1       0.409  12.928  18.821  0.00  0.00    +0.000 C 
ATOM      6  C   UNL     1      -0.843  12.755  17.951  0.00  0.00    +0.000 C 
ATOM      7  C   UNL     1       1.258  11.652  18.740  0.00  0.00    +0.000 C 
ATOM      8  C   UNL     1       0.472  10.399  19.238  0.00  0.00    +0.000 C 
ATOM      9  C   UNL     1       0.051  10.686  20.708  0.00  0.00    +0.000 C 
ATOM     10  C   UNL     1      -0.826  10.279  18.366  0.00  0.00    +0.000 C 
ENDROOT
BRANCH   8  11
ATOM     11  C   UNL     1       1.312   9.107  19.177  0.00  0.00    +0.000 A 
ATOM     12  C   UNL     1       2.067   8.748  18.044  0.00  0.00    +0.000 A 
ATOM     13  C   UNL     1       2.848   7.586  18.017  0.00  0.00    +0.000 A 
ATOM     14  C   UNL     1       2.885   6.755  19.131  0.00  0.00    +0.000 A 
ATOM     15 CL   UNL     1       3.846   5.329  19.102  0.00  0.00    +0.000 Cl
ATOM     16  C   UNL     1       2.156   7.082  20.268  0.00  0.00    +0.000 A 
ATOM     17  C   UNL     1       1.376   8.245  20.290  0.00  0.00    +0.000 A 
ENDBRANCH   8  11
BRANCH   1  19
ATOM     18  O   UNL     1      -3.035  11.329  16.446  0.00  0.00    +0.000 OA
ATOM     19  C   UNL     1      -3.010  11.467  17.668  0.00  0.00    +0.000 C 
ATOM     20  N   UNL     1      -4.169  11.513  18.410  0.00  0.00    +0.000 N 
ATOM     21  H   UNL     1      -4.119  11.861  19.357  0.00  0.00    +0.000 HD
BRANCH  20  22
ATOM     22  C   UNL     1      -5.481  11.463  17.758  0.00  0.00    +0.000 C 
ATOM     23  C   UNL     1      -6.025  12.868  17.480  0.00  0.00    +0.000 C 
ATOM     24  C   UNL     1      -6.448  13.560  18.774  0.00  0.00    +0.000 C 
ATOM     25  N   UNL     1      -7.413  12.769  19.542  0.00  0.00    +0.000 NA
ATOM     26  C   UNL     1      -6.911  11.429  19.842  0.00  0.00    +0.000 C 
ATOM     27  C   UNL     1      -6.497  10.670  18.584  0.00  0.00    +0.000 C 
ATOM     28  H   UNL     1      -8.278  12.690  19.005  0.00  0.00    +0.000 HD
ENDBRANCH  20  22
ENDBRANCH   1  19
TORSDOF 3
ENDMDL
MODEL 2
REMARK VINA RESULT:      -7.4      7.908      9.753
REMARK  Name = 
REMARK  3 active torsions:
REMARK  status: ('A' for Active; 'I' for Inactive)
REMARK    1  A    between atoms: C_2  and  C_10
REMARK    2  A    between atoms: N_3  and  C_4
REMARK    3  A    between atoms: C_17  and  C_18
REMARK                            x       y       z     vdW  Elec       q    Type
REMARK                         _______ _______ _______ _____ _____    ______ ____
ROOT
ATOM      1  C   UNL     1       4.899   5.979  17.928  0.00  0.00    +0.000 C 
ATOM      2  C   UNL     1       5.771   5.133  18.895  0.00  0.00    +0.000 C 
ATOM      3  C   UNL     1       7.241   5.139  18.466  0.00  0.00    +0.000 C 
ATOM      4  C   UNL     1       7.747   6.585  18.471  0.00  0.00    +0.000 C 
ATOM      5  C   UNL     1       6.926   7.425  17.488  0.00  0.00    +0.000 C 
ATOM      6  C   UNL     1       5.448   7.423  17.899  0.00  0.00    +0.000 C 
ATOM      7  C   UNL     1       7.058   6.821  16.082  0.00  0.00    +0.000 C 
ATOM      8  C   UNL     1       6.524   5.355  16.029  0.00  0.00    +0.000 C 
ATOM      9  C   UNL     1       7.354   4.536  17.059  0.00  0.00    +0.000 C 
ATOM     10  C   UNL     1       5.030   5.379  16.504  0.00  0.00    +0.000 C 
ENDROOT
BRANCH   8  11
ATOM     11  C   UNL     1       6.660   4.724  14.628  0.00  0.00    +0.000 A 
ATOM     12  C   UNL     1       7.612   5.164  13.689  0.00  0.00    +0.000 A 
ATOM     13  C   UNL     1       7.742   4.561  12.432  0.00  0.00    +0.000 A 
ATOM     14  C   UNL     1       6.913   3.499  12.089  0.00  0.00    +0.000 A 
ATOM     15 CL   UNL     1       7.071   2.753  10.548  0.00  0.00    +0.000 Cl
ATOM     16  C   UNL     1       5.965   3.036  12.993  0.00  0.00    +0.000 A 
ATOM     17  C   UNL     1       5.838   3.643  14.250  0.00  0.00    +0.000 A 
ENDBRANCH   8  11
BRANCH   1  19
ATOM     18  O   UNL     1       2.799   6.991  18.619  0.00  0.00    +0.000 OA
ATOM     19  C   UNL     1       3.453   5.961  18.464  0.00  0.00    +0.000 C 
ATOM     20  N   UNL     1       2.918   4.722  18.734  0.00  0.00    +0.000 N 
ATOM     21  H   UNL     1       3.548   3.936  18.823  0.00  0.00    +0.000 HD
BRANCH  20  22
ATOM     22  C   UNL     1       1.564   4.590  19.280  0.00  0.00    +0.000 C 
ATOM     23  C   UNL     1       1.536   4.864  20.787  0.00  0.00    +0.000 C 
ATOM     24  C   UNL     1       2.198   3.729  21.564  0.00  0.00    +0.000 C 
ATOM     25  N   UNL     1       1.607   2.424  21.261  0.00  0.00    +0.000 NA
ATOM     26  C   UNL     1       1.641   2.125  19.830  0.00  0.00    +0.000 C 
ATOM     27  C   UNL     1       0.967   3.211  18.994  0.00  0.00    +0.000 C 
ATOM     28  H   UNL     1       0.638   2.416  21.581  0.00  0.00    +0.000 HD
ENDBRANCH  20  22
ENDBRANCH   1  19
TORSDOF 3
ENDMDL
MODEL 3
REMARK VINA RESULT:      -7.4      8.256     10.150
REMARK  Name = 
REMARK  3 active torsions:
REMARK  status: ('A' for Active; 'I' for Inactive)
REMARK    1  A    between atoms: C_2  and  C_10
REMARK    2  A    between atoms: N_3  and  C_4
REMARK    3  A    between atoms: C_17  and  C_18
REMARK                            x       y       z     vdW  Elec       q    Type
REMARK                         _______ _______ _______ _____ _____    ______ ____
ROOT
ATOM      1  C   UNL     1       5.357   4.997  18.028  0.00  0.00    +0.000 C 
ATOM      2  C   UNL     1       6.732   5.541  18.500  0.00  0.00    +0.000 C 
ATOM      3  C   UNL     1       7.311   6.539  17.494  0.00  0.00    +0.000 C 
ATOM      4  C   UNL     1       6.333   7.709  17.345  0.00  0.00    +0.000 C 
ATOM      5  C   UNL     1       4.983   7.195  16.835  0.00  0.00    +0.000 C 
ATOM      6  C   UNL     1       4.392   6.187  17.830  0.00  0.00    +0.000 C 
ATOM      7  C   UNL     1       5.191   6.502  15.481  0.00  0.00    +0.000 C 
ATOM      8  C   UNL     1       6.159   5.283  15.596  0.00  0.00    +0.000 C 
ATOM      9  C   UNL     1       7.509   5.831  16.145  0.00  0.00    +0.000 C 
ATOM     10  C   UNL     1       5.557   4.298  16.656  0.00  0.00    +0.000 C 
ENDROOT
BRANCH   8  11
ATOM     11  C   UNL     1       6.393   4.580  14.243  0.00  0.00    +0.000 A 
ATOM     12  C   UNL     1       7.473   4.901  13.400  0.00  0.00    +0.000 A 
ATOM     13  C   UNL     1       7.688   4.232  12.189  0.00  0.00    +0.000 A 
ATOM     14  C   UNL     1       6.816   3.223  11.796  0.00  0.00    +0.000 A 
ATOM     15 CL   UNL     1       7.079   2.397  10.311  0.00  0.00    +0.000 Cl
ATOM     16  C   UNL     1       5.742   2.877  12.606  0.00  0.00    +0.000 A 
ATOM     17  C   UNL     1       5.531   3.549  13.817  0.00  0.00    +0.000 A 
ENDBRANCH   8  11
BRANCH   1  19
ATOM     18  O   UNL     1       5.550   3.608  20.014  0.00  0.00    +0.000 OA
ATOM     19  C   UNL     1       4.827   4.048  19.121  0.00  0.00    +0.000 C 
ATOM     20  N   UNL     1       3.487   3.739  19.064  0.00  0.00    +0.000 N 
ATOM     21  H   UNL     1       2.990   3.918  18.202  0.00  0.00    +0.000 HD
BRANCH  20  22
ATOM     22  C   UNL     1       2.885   2.819  20.033  0.00  0.00    +0.000 C 
ATOM     23  C   UNL     1       2.060   1.731  19.339  0.00  0.00    +0.000 C 
ATOM     24  C   UNL     1       0.773   2.307  18.753  0.00  0.00    +0.000 C 
ATOM     25  N   UNL     1      -0.031   3.011  19.755  0.00  0.00    +0.000 NA
ATOM     26  C   UNL     1       0.725   4.072  20.419  0.00  0.00    +0.000 C 
ATOM     27  C   UNL     1       2.014   3.556  21.053  0.00  0.00    +0.000 C 
ATOM     28  H   UNL     1      -0.351   2.340  20.455  0.00  0.00    +0.000 HD
ENDBRANCH  20  22
ENDBRANCH   1  19
TORSDOF 3
ENDMDL
MODEL 4
REMARK VINA RESULT:      -7.4      6.329     10.103
REMARK  Name = 
REMARK  3 active torsions:
REMARK  status: ('A' for Active; 'I' for Inactive)
REMARK    1  A    between atoms: C_2  and  C_10
REMARK    2  A    between atoms: N_3  and  C_4
REMARK    3  A    between atoms: C_17  and  C_18
REMARK                            x       y       z     vdW  Elec       q    Type
REMARK                         _______ _______ _______ _____ _____    ______ ____
ROOT
ATOM      1  C   UNL     1       3.070   3.351  19.020  0.00  0.00    +0.000 C 
ATOM      2  C   UNL     1       3.634   2.909  20.397  0.00  0.00    +0.000 C 
ATOM      3  C   UNL     1       2.649   3.220  21.526  0.00  0.00    +0.000 C 
ATOM      4  C   UNL     1       1.340   2.470  21.256  0.00  0.00    +0.000 C 
ATOM      5  C   UNL     1       0.746   2.928  19.921  0.00  0.00    +0.000 C 
ATOM      6  C   UNL     1       1.726   2.630  18.778  0.00  0.00    +0.000 C 
ATOM      7  C   UNL     1       0.488   4.440  19.981  0.00  0.00    +0.000 C 
ATOM      8  C   UNL     1       1.803   5.244  20.225  0.00  0.00    +0.000 C 
ATOM      9  C   UNL     1       2.399   4.735  21.570  0.00  0.00    +0.000 C 
ATOM     10  C   UNL     1       2.801   4.879  19.072  0.00  0.00    +0.000 C 
ENDROOT
BRANCH   8  11
ATOM     11  C   UNL     1       1.564   6.765  20.302  0.00  0.00    +0.000 A 
ATOM     12  C   UNL     1       1.928   7.642  19.261  0.00  0.00    +0.000 A 
ATOM     13  C   UNL     1       1.677   9.018  19.334  0.00  0.00    +0.000 A 
ATOM     14  C   UNL     1       1.054   9.545  20.460  0.00  0.00    +0.000 A 
ATOM     15 CL   UNL     1       0.742  11.233  20.551  0.00  0.00    +0.000 Cl
ATOM     16  C   UNL     1       0.678   8.708  21.503  0.00  0.00    +0.000 A 
ATOM     17  C   UNL     1       0.931   7.333  21.426  0.00  0.00    +0.000 A 
ENDBRANCH   8  11
BRANCH   1  19
ATOM     18  O   UNL     1       4.097   1.843  17.413  0.00  0.00    +0.000 OA
ATOM     19  C   UNL     1       4.099   2.953  17.942  0.00  0.00    +0.000 C 
ATOM     20  N   UNL     1       5.007   3.921  17.578  0.00  0.00    +0.000 N 
ATOM     21  H   UNL     1       5.129   4.718  18.188  0.00  0.00    +0.000 HD
BRANCH  20  22
ATOM     22  C   UNL     1       6.051   3.639  16.588  0.00  0.00    +0.000 C 
ATOM     23  C   UNL     1       7.355   4.369  16.923  0.00  0.00    +0.000 C 
ATOM     24  C   UNL     1       7.223   5.870  16.681  0.00  0.00    +0.000 C 
ATOM     25  N   UNL     1       6.787   6.182  15.318  0.00  0.00    +0.000 NA
ATOM     26  C   UNL     1       5.529   5.517  14.978  0.00  0.00    +0.000 C 
ATOM     27  C   UNL     1       5.604   4.004  15.171  0.00  0.00    +0.000 C 
ATOM     28  H   UNL     1       7.510   5.884  14.662  0.00  0.00    +0.000 HD
ENDBRANCH  20  22
ENDBRANCH   1  19
TORSDOF 3
ENDMDL
MODEL 5
REMARK VINA RESULT:      -7.4      2.947      4.095
REMARK  Name = 
REMARK  3 active torsions:
REMARK  status: ('A' for Active; 'I' for Inactive)
REMARK    1  A    between atoms: C_2  and  C_10
REMARK    2  A    between atoms: N_3  and  C_4
REMARK    3  A    between atoms: C_17  and  C_18
REMARK                            x       y       z     vdW  Elec       q    Type
REMARK                         _______ _______ _______ _____ _____    ______ ____
ROOT
ATOM      1  C   UNL     1      -0.780  11.946  21.055  0.00  0.00    +0.000 C 
ATOM      2  C   UNL     1       0.130  13.155  20.710  0.00  0.00    +0.000 C 
ATOM      3  C   UNL     1       0.587  13.107  19.250  0.00  0.00    +0.000 C 
ATOM      4  C   UNL     1      -0.651  13.139  18.348  0.00  0.00    +0.000 C 
ATOM      5  C   UNL     1      -1.540  11.926  18.644  0.00  0.00    +0.000 C 
ATOM      6  C   UNL     1      -2.000  11.955  20.107  0.00  0.00    +0.000 C 
ATOM      7  C   UNL     1      -0.734  10.643  18.395  0.00  0.00    +0.000 C 
ATOM      8  C   UNL     1       0.522  10.559  19.318  0.00  0.00    +0.000 C 
ATOM      9  C   UNL     1       1.387  11.817  19.017  0.00  0.00    +0.000 C 
ATOM     10  C   UNL     1       0.024  10.644  20.802  0.00  0.00    +0.000 C 
ENDROOT
BRANCH   8  11
ATOM     11  C   UNL     1       1.354   9.283  19.075  0.00  0.00    +0.000 A 
ATOM     12  C   UNL     1       1.497   8.277  20.050  0.00  0.00    +0.000 A 
ATOM     13  C   UNL     1       2.231   7.110  19.802  0.00  0.00    +0.000 A 
ATOM     14  C   UNL     1       2.841   6.930  18.566  0.00  0.00    +0.000 A 
ATOM     15 CL   UNL     1       3.741   5.497  18.258  0.00  0.00    +0.000 Cl
ATOM     16  C   UNL     1       2.717   7.901  17.580  0.00  0.00    +0.000 A 
ATOM     17  C   UNL     1       1.981   9.066  17.832  0.00  0.00    +0.000 A 
ENDBRANCH   8  11
BRANCH   1  19
ATOM     18  O   UNL     1      -0.721  11.467  23.438  0.00  0.00    +0.000 OA
ATOM     19  C   UNL     1      -1.234  12.104  22.521  0.00  0.00    +0.000 C 
ATOM     20  N   UNL     1      -2.231  13.025  22.755  0.00  0.00    +0.000 N 
ATOM     21  H   UNL     1      -2.781  13.345  21.970  0.00  0.00    +0.000 HD
BRANCH  20  22
ATOM     22  C   UNL     1      -2.762  13.231  24.105  0.00  0.00    +0.000 C 
ATOM     23  C   UNL     1      -4.068  12.460  24.319  0.00  0.00    +0.000 C 
ATOM     24  C   UNL     1      -5.215  13.092  23.533  0.00  0.00    +0.000 C 
ATOM     25  N   UNL     1      -5.391  14.513  23.844  0.00  0.00    +0.000 NA
ATOM     26  C   UNL     1      -4.164  15.279  23.626  0.00  0.00    +0.000 C 
ATOM     27  C   UNL     1      -2.981  14.714  24.410  0.00  0.00    +0.000 C 
ATOM     28  H   UNL     1      -5.674  14.605  24.820  0.00  0.00    +0.000 HD
ENDBRANCH  20  22
ENDBRANCH   1  19
TORSDOF 3
ENDMDL
MODEL 6
REMARK VINA RESULT:      -7.1      7.967      9.701
REMARK  Name = 
REMARK  3 active torsions:
REMARK  status: ('A' for Active; 'I' for Inactive)
REMARK    1  A    between atoms: C_2  and  C_10
REMARK    2  A    between atoms: N_3  and  C_4
REMARK    3  A    between atoms: C_17  and  C_18
REMARK                            x       y       z     vdW  Elec       q    Type
REMARK                         _______ _______ _______ _____ _____    ______ ____
ROOT
ATOM      1  C   UNL     1       5.163   5.899  17.870  0.00  0.00    +0.000 C 
ATOM      2  C   UNL     1       5.377   5.559  16.370  0.00  0.00    +0.000 C 
ATOM      3  C   UNL     1       6.865   5.518  16.017  0.00  0.00    +0.000 C 
ATOM      4  C   UNL     1       7.544   4.446  16.876  0.00  0.00    +0.000 C 
ATOM      5  C   UNL     1       7.382   4.791  18.359  0.00  0.00    +0.000 C 
ATOM      6  C   UNL     1       5.893   4.843  18.728  0.00  0.00    +0.000 C 
ATOM      7  C   UNL     1       8.015   6.164  18.626  0.00  0.00    +0.000 C 
ATOM      8  C   UNL     1       7.330   7.290  17.791  0.00  0.00    +0.000 C 
ATOM      9  C   UNL     1       7.484   6.897  16.293  0.00  0.00    +0.000 C 
ATOM     10  C   UNL     1       5.804   7.284  18.150  0.00  0.00    +0.000 C 
ENDROOT
BRANCH   8  11
ATOM     11  C   UNL     1       7.960   8.677  18.034  0.00  0.00    +0.000 A 
ATOM     12  C   UNL     1       7.589   9.817  17.294  0.00  0.00    +0.000 A 
ATOM     13  C   UNL     1       8.149  11.075  17.548  0.00  0.00    +0.000 A 
ATOM     14  C   UNL     1       9.100  11.215  18.552  0.00  0.00    +0.000 A 
ATOM     15 CL   UNL     1       9.788  12.759  18.869  0.00  0.00    +0.000 Cl
ATOM     16  C   UNL     1       9.486  10.113  19.304  0.00  0.00    +0.000 A 
ATOM     17  C   UNL     1       8.923   8.856  19.047  0.00  0.00    +0.000 A 
ENDBRANCH   8  11
BRANCH   1  19
ATOM     18  O   UNL     1       2.910   6.815  17.883  0.00  0.00    +0.000 OA
ATOM     19  C   UNL     1       3.646   5.866  18.146  0.00  0.00    +0.000 C 
ATOM     20  N   UNL     1       3.149   4.698  18.680  0.00  0.00    +0.000 N 
ATOM     21  H   UNL     1       3.800   4.046  19.097  0.00  0.00    +0.000 HD
BRANCH  20  22
ATOM     22  C   UNL     1       1.728   4.569  19.014  0.00  0.00    +0.000 C 
ATOM     23  C   UNL     1       1.467   4.885  20.490  0.00  0.00    +0.000 C 
ATOM     24  C   UNL     1       2.007   3.779  21.394  0.00  0.00    +0.000 C 
ATOM     25  N   UNL     1       1.477   2.460  21.042  0.00  0.00    +0.000 NA
ATOM     26  C   UNL     1       1.732   2.120  19.643  0.00  0.00    +0.000 C 
ATOM     27  C   UNL     1       1.189   3.176  18.682  0.00  0.00    +0.000 C 
ATOM     28  H   UNL     1       0.470   2.452  21.209  0.00  0.00    +0.000 HD
ENDBRANCH  20  22
ENDBRANCH   1  19
TORSDOF 3
ENDMDL
MODEL 7
REMARK VINA RESULT:      -7.0      1.000      1.474
REMARK  Name = 
REMARK  3 active torsions:
REMARK  status: ('A' for Active; 'I' for Inactive)
REMARK    1  A    between atoms: C_2  and  C_10
REMARK    2  A    between atoms: N_3  and  C_4
REMARK    3  A    between atoms: C_17  and  C_18
REMARK                            x       y       z     vdW  Elec       q    Type
REMARK                         _______ _______ _______ _____ _____    ______ ____
ROOT
ATOM      1  C   UNL     1      -1.671  11.888  19.236  0.00  0.00    +0.000 C 
ATOM      2  C   UNL     1      -1.684  12.146  20.767  0.00  0.00    +0.000 C 
ATOM      3  C   UNL     1      -0.262  12.258  21.323  0.00  0.00    +0.000 C 
ATOM      4  C   UNL     1       0.448  13.421  20.624  0.00  0.00    +0.000 C 
ATOM      5  C   UNL     1       0.511  13.161  19.116  0.00  0.00    +0.000 C 
ATOM      6  C   UNL     1      -0.908  13.039  18.543  0.00  0.00    +0.000 C 
ATOM      7  C   UNL     1       1.268  11.849  18.866  0.00  0.00    +0.000 C 
ATOM      8  C   UNL     1       0.559  10.632  19.538  0.00  0.00    +0.000 C 
ATOM      9  C   UNL     1       0.482  10.940  21.062  0.00  0.00    +0.000 C 
ATOM     10  C   UNL     1      -0.902  10.566  18.973  0.00  0.00    +0.000 C 
ENDROOT
BRANCH   8  11
ATOM     11  C   UNL     1       1.311   9.305  19.311  0.00  0.00    +0.000 A 
ATOM     12  C   UNL     1       1.464   8.338  20.323  0.00  0.00    +0.000 A 
ATOM     13  C   UNL     1       2.124   7.125  20.091  0.00  0.00    +0.000 A 
ATOM     14  C   UNL     1       2.649   6.857  18.833  0.00  0.00    +0.000 A 
ATOM     15 CL   UNL     1       3.458   5.367  18.544  0.00  0.00    +0.000 Cl
ATOM     16  C   UNL     1       2.513   7.787  17.809  0.00  0.00    +0.000 A 
ATOM     17  C   UNL     1       1.852   8.999  18.045  0.00  0.00    +0.000 A 
ENDBRANCH   8  11
BRANCH   1  19
ATOM     18  O   UNL     1      -3.487  11.176  17.785  0.00  0.00    +0.000 OA
ATOM     19  C   UNL     1      -3.135  11.844  18.755  0.00  0.00    +0.000 C 
ATOM     20  N   UNL     1      -4.041  12.574  19.492  0.00  0.00    +0.000 N 
ATOM     21  H   UNL     1      -3.688  13.284  20.119  0.00  0.00    +0.000 HD
BRANCH  20  22
ATOM     22  C   UNL     1      -5.453  12.632  19.104  0.00  0.00    +0.000 C 
ATOM     23  C   UNL     1      -5.993  14.064  19.157  0.00  0.00    +0.000 C 
ATOM     24  C   UNL     1      -6.142  14.542  20.599  0.00  0.00    +0.000 C 
ATOM     25  N   UNL     1      -6.971  13.642  21.405  0.00  0.00    +0.000 NA
ATOM     26  C   UNL     1      -6.465  12.270  21.391  0.00  0.00    +0.000 C 
ATOM     27  C   UNL     1      -6.320  11.720  19.975  0.00  0.00    +0.000 C 
ATOM     28  H   UNL     1      -7.923  13.651  21.038  0.00  0.00    +0.000 HD
ENDBRANCH  20  22
ENDBRANCH   1  19
TORSDOF 3
ENDMDL
MODEL 8
REMARK VINA RESULT:      -6.9      2.259      3.401
REMARK  Name = 
REMARK  3 active torsions:
REMARK  status: ('A' for Active; 'I' for Inactive)
REMARK    1  A    between atoms: C_2  and  C_10
REMARK    2  A    between atoms: N_3  and  C_4
REMARK    3  A    between atoms: C_17  and  C_18
REMARK                            x       y       z     vdW  Elec       q    Type
REMARK                         _______ _______ _______ _____ _____    ______ ____
ROOT
ATOM      1  C   UNL     1      -3.285  13.178  21.331  0.00  0.00    +0.000 C 
ATOM      2  C   UNL     1      -3.448  12.639  22.779  0.00  0.00    +0.000 C 
ATOM      3  C   UNL     1      -2.092  12.489  23.471  0.00  0.00    +0.000 C 
ATOM      4  C   UNL     1      -1.411  13.861  23.521  0.00  0.00    +0.000 C 
ATOM      5  C   UNL     1      -1.201  14.387  22.097  0.00  0.00    +0.000 C 
ATOM      6  C   UNL     1      -2.552  14.537  21.386  0.00  0.00    +0.000 C 
ATOM      7  C   UNL     1      -0.330  13.391  21.319  0.00  0.00    +0.000 C 
ATOM      8  C   UNL     1      -1.003  11.986  21.221  0.00  0.00    +0.000 C 
ATOM      9  C   UNL     1      -1.232  11.493  22.679  0.00  0.00    +0.000 C 
ATOM     10  C   UNL     1      -2.401  12.179  20.538  0.00  0.00    +0.000 C 
ENDROOT
BRANCH   8  11
ATOM     11  C   UNL     1      -0.138  10.965  20.454  0.00  0.00    +0.000 A 
ATOM     12  C   UNL     1       0.361   9.794  21.055  0.00  0.00    +0.000 A 
ATOM     13  C   UNL     1       1.120   8.862  20.336  0.00  0.00    +0.000 A 
ATOM     14  C   UNL     1       1.396   9.089  18.992  0.00  0.00    +0.000 A 
ATOM     15 CL   UNL     1       2.326   7.945  18.106  0.00  0.00    +0.000 Cl
ATOM     16  C   UNL     1       0.916  10.232  18.366  0.00  0.00    +0.000 A 
ATOM     17  C   UNL     1       0.157  11.162  19.089  0.00  0.00    +0.000 A 
ENDBRANCH   8  11
BRANCH   1  19
ATOM     18  O   UNL     1      -5.176  14.454  20.490  0.00  0.00    +0.000 OA
ATOM     19  C   UNL     1      -4.696  13.348  20.733  0.00  0.00    +0.000 C 
ATOM     20  N   UNL     1      -5.384  12.189  20.453  0.00  0.00    +0.000 N 
ATOM     21  H   UNL     1      -5.066  11.328  20.878  0.00  0.00    +0.000 HD
BRANCH  20  22
ATOM     22  C   UNL     1      -6.747  12.235  19.915  0.00  0.00    +0.000 C 
ATOM     23  C   UNL     1      -7.732  11.479  20.812  0.00  0.00    +0.000 C 
ATOM     24  C   UNL     1      -7.511   9.971  20.724  0.00  0.00    +0.000 C 
ATOM     25  N   UNL     1      -7.575   9.476  19.347  0.00  0.00    +0.000 NA
ATOM     26  C   UNL     1      -6.627  10.164  18.471  0.00  0.00    +0.000 C 
ATOM     27  C   UNL     1      -6.814  11.679  18.490  0.00  0.00    +0.000 C 
ATOM     28  H   UNL     1      -8.521   9.613  18.989  0.00  0.00    +0.000 HD
ENDBRANCH  20  22
ENDBRANCH   1  19
TORSDOF 3
ENDMDL
MODEL 9
REMARK VINA RESULT:      -6.9      2.107      2.979
REMARK  Name = 
REMARK  3 active torsions:
REMARK  status: ('A' for Active; 'I' for Inactive)
REMARK    1  A    between atoms: C_2  and  C_10
REMARK    2  A    between atoms: N_3  and  C_4
REMARK    3  A    between atoms: C_17  and  C_18
REMARK                            x       y       z     vdW  Elec       q    Type
REMARK                         _______ _______ _______ _____ _____    ______ ____
ROOT
ATOM      1  C   UNL     1      -3.045  13.174  21.102  0.00  0.00    +0.000 C 
ATOM      2  C   UNL     1      -3.259  12.624  22.539  0.00  0.00    +0.000 C 
ATOM      3  C   UNL     1      -1.924  12.415  23.257  0.00  0.00    +0.000 C 
ATOM      4  C   UNL     1      -1.194  13.760  23.339  0.00  0.00    +0.000 C 
ATOM      5  C   UNL     1      -0.935  14.295  21.928  0.00  0.00    +0.000 C 
ATOM      6  C   UNL     1      -2.264  14.504  21.190  0.00  0.00    +0.000 C 
ATOM      7  C   UNL     1      -0.085  13.277  21.155  0.00  0.00    +0.000 C 
ATOM      8  C   UNL     1      -0.807  11.900  21.023  0.00  0.00    +0.000 C 
ATOM      9  C   UNL     1      -1.085  11.397  22.470  0.00  0.00    +0.000 C 
ATOM     10  C   UNL     1      -2.182  12.153  20.315  0.00  0.00    +0.000 C 
ENDROOT
BRANCH   8  11
ATOM     11  C   UNL     1       0.035  10.857  20.261  0.00  0.00    +0.000 A 
ATOM     12  C   UNL     1       0.372  11.003  18.901  0.00  0.00    +0.000 A 
ATOM     13  C   UNL     1       1.163  10.062  18.232  0.00  0.00    +0.000 A 
ATOM     14  C   UNL     1       1.633   8.947  18.916  0.00  0.00    +0.000 A 
ATOM     15 CL   UNL     1       2.608   7.790  18.097  0.00  0.00    +0.000 Cl
ATOM     16  C   UNL     1       1.324   8.772  20.259  0.00  0.00    +0.000 A 
ATOM     17  C   UNL     1       0.532   9.717  20.925  0.00  0.00    +0.000 A 
ENDBRANCH   8  11
BRANCH   1  19
ATOM     18  O   UNL     1      -4.967  14.513  20.450  0.00  0.00    +0.000 OA
ATOM     19  C   UNL     1      -4.436  13.404  20.477  0.00  0.00    +0.000 C 
ATOM     20  N   UNL     1      -5.043  12.302  19.919  0.00  0.00    +0.000 N 
ATOM     21  H   UNL     1      -4.696  11.386  20.167  0.00  0.00    +0.000 HD
BRANCH  20  22
ATOM     22  C   UNL     1      -6.381  12.401  19.327  0.00  0.00    +0.000 C 
ATOM     23  C   UNL     1      -7.466  12.493  20.405  0.00  0.00    +0.000 C 
ATOM     24  C   UNL     1      -7.641  11.158  21.125  0.00  0.00    +0.000 C 
ATOM     25  N   UNL     1      -7.917  10.055  20.200  0.00  0.00    +0.000 NA
ATOM     26  C   UNL     1      -6.883   9.928  19.174  0.00  0.00    +0.000 C 
ATOM     27  C   UNL     1      -6.678  11.225  18.394  0.00  0.00    +0.000 C 
ATOM     28  H   UNL     1      -8.818  10.218  19.750  0.00  0.00    +0.000 HD
ENDBRANCH  20  22
ENDBRANCH   1  19
TORSDOF 3
ENDMDL
