MODEL 1
REMARK VINA RESULT:      -6.4      0.000      0.000
REMARK  Name = 
REMARK  8 active torsions:
REMARK  status: ('A' for Active; 'I' for Inactive)
REMARK    1  A    between atoms: C_1  and  C_2
REMARK    2  A    between atoms: C_2  and  C_3
REMARK    3  A    between atoms: C_2  and  C_4
REMARK    4  A    between atoms: C_4  and  S_5
REMARK    5  A    between atoms: S_5  and  C_6
REMARK    6  A    between atoms: C_8  and  O_9
REMARK    7  A    between atoms: O_9  and  S_10
REMARK    8  A    between atoms: S_10  and  C_11
REMARK                            x       y       z     vdW  Elec       q    Type
REMARK                         _______ _______ _______ _____ _____    ______ ____
ROOT
ATOM      1  C   UNL     1       5.394   5.070  18.935  0.00  0.00    +0.000 A 
ATOM      2  C   UNL     1       5.474   4.647  17.626  0.00  0.00    +0.000 A 
ATOM      3  C   UNL     1       6.741   4.499  17.120  0.00  0.00    +0.000 A 
ATOM      4  N   UNL     1       7.854   4.710  17.834  0.00  0.00    +0.000 NA
ATOM      5  C   UNL     1       7.661   5.158  19.083  0.00  0.00    +0.000 A 
ATOM      6  N   UNL     1       6.477   5.347  19.680  0.00  0.00    +0.000 NA
ENDROOT
BRANCH   1   7
ATOM      7  S   UNL     1       3.789   5.103  19.707  0.00  0.00    +0.000 S 
BRANCH   7   8
ATOM      8  C   UNL     1       2.702   4.577  18.334  0.00  0.00    +0.000 C 
BRANCH   8  10
ATOM      9  C   UNL     1       1.392   2.432  18.536  0.00  0.00    +0.000 C 
ATOM     10  C   UNL     1       1.404   3.929  18.861  0.00  0.00    +0.000 C 
ATOM     11  C   UNL     1       1.195   4.114  20.368  0.00  0.00    +0.000 C 
ENDBRANCH   8  10
ENDBRANCH   7   8
ENDBRANCH   1   7
BRANCH   3  12
ATOM     12  O   UNL     1       6.836   3.987  15.847  0.00  0.00    +0.000 OA
BRANCH  12  13
ATOM     13  S   UNL     1       6.725   4.949  14.539  0.00  0.00    +0.000 S 
ATOM     14  C   UNL     1       6.177   3.745  13.343  0.00  0.00    +0.000 C 
ATOM     15  O   UNL     1       5.614   5.857  14.766  0.00  0.00    +0.000 OA
ATOM     16  O   UNL     1       8.023   5.468  14.159  0.00  0.00    +0.000 OA
ENDBRANCH  12  13
ENDBRANCH   3  12
TORSDOF 5
ENDMDL
MODEL 2
REMARK VINA RESULT:      -6.4      2.796      5.874
REMARK  Name = 
REMARK  8 active torsions:
REMARK  status: ('A' for Active; 'I' for Inactive)
REMARK    1  A    between atoms: C_1  and  C_2
REMARK    2  A    between atoms: C_2  and  C_3
REMARK    3  A    between atoms: C_2  and  C_4
REMARK    4  A    between atoms: C_4  and  S_5
REMARK    5  A    between atoms: S_5  and  C_6
REMARK    6  A    between atoms: C_8  and  O_9
REMARK    7  A    between atoms: O_9  and  S_10
REMARK    8  A    between atoms: S_10  and  C_11
REMARK                            x       y       z     vdW  Elec       q    Type
REMARK                         _______ _______ _______ _____ _____    ______ ____
ROOT
ATOM      1  C   UNL     1       6.148   4.598  16.157  0.00  0.00    +0.000 A 
ATOM      2  C   UNL     1       5.112   4.285  17.010  0.00  0.00    +0.000 A 
ATOM      3  C   UNL     1       5.440   4.187  18.340  0.00  0.00    +0.000 A 
ATOM      4  N   UNL     1       6.671   4.408  18.818  0.00  0.00    +0.000 NA
ATOM      5  C   UNL     1       7.610   4.666  17.896  0.00  0.00    +0.000 A 
ATOM      6  N   UNL     1       7.411   4.779  16.577  0.00  0.00    +0.000 NA
ENDROOT
BRANCH   1   7
ATOM      7  S   UNL     1       5.756   4.923  14.450  0.00  0.00    +0.000 S 
BRANCH   7   8
ATOM      8  C   UNL     1       6.322   3.386  13.637  0.00  0.00    +0.000 C 
BRANCH   8  10
ATOM      9  C   UNL     1       6.757   2.254  11.427  0.00  0.00    +0.000 C 
ATOM     10  C   UNL     1       6.034   3.413  12.120  0.00  0.00    +0.000 C 
ATOM     11  C   UNL     1       4.541   3.344  11.780  0.00  0.00    +0.000 C 
ENDBRANCH   8  10
ENDBRANCH   7   8
ENDBRANCH   1   7
BRANCH   3  12
ATOM     12  O   UNL     1       4.399   3.970  19.212  0.00  0.00    +0.000 OA
BRANCH  12  13
ATOM     13  S   UNL     1       4.049   2.475  19.753  0.00  0.00    +0.000 S 
ATOM     14  C   UNL     1       2.706   2.875  20.855  0.00  0.00    +0.000 C 
ATOM     15  O   UNL     1       3.479   1.736  18.639  0.00  0.00    +0.000 OA
ATOM     16  O   UNL     1       5.156   1.918  20.504  0.00  0.00    +0.000 OA
ENDBRANCH  12  13
ENDBRANCH   3  12
TORSDOF 5
ENDMDL
MODEL 3
REMARK VINA RESULT:      -6.3      0.978      1.406
REMARK  Name = 
REMARK  8 active torsions:
REMARK  status: ('A' for Active; 'I' for Inactive)
REMARK    1  A    between atoms: C_1  and  C_2
REMARK    2  A    between atoms: C_2  and  C_3
REMARK    3  A    between atoms: C_2  and  C_4
REMARK    4  A    between atoms: C_4  and  S_5
REMARK    5  A    between atoms: S_5  and  C_6
REMARK    6  A    between atoms: C_8  and  O_9
REMARK    7  A    between atoms: O_9  and  S_10
REMARK    8  A    between atoms: S_10  and  C_11
REMARK                            x       y       z     vdW  Elec       q    Type
REMARK                         _______ _______ _______ _____ _____    ______ ____
ROOT
ATOM      1  C   UNL     1       5.503   4.316  18.804  0.00  0.00    +0.000 A 
ATOM      2  C   UNL     1       5.907   4.073  17.510  0.00  0.00    +0.000 A 
ATOM      3  C   UNL     1       7.058   4.707  17.112  0.00  0.00    +0.000 A 
ATOM      4  N   UNL     1       7.787   5.493  17.915  0.00  0.00    +0.000 NA
ATOM      5  C   UNL     1       7.281   5.693  19.140  0.00  0.00    +0.000 A 
ATOM      6  N   UNL     1       6.168   5.136  19.635  0.00  0.00    +0.000 NA
ENDROOT
BRANCH   1   7
ATOM      7  S   UNL     1       4.127   3.381  19.441  0.00  0.00    +0.000 S 
BRANCH   7   8
ATOM      8  C   UNL     1       2.735   4.050  18.460  0.00  0.00    +0.000 C 
BRANCH   8  10
ATOM      9  C   UNL     1       2.089   4.991  20.708  0.00  0.00    +0.000 C 
ATOM     10  C   UNL     1       2.040   5.217  19.194  0.00  0.00    +0.000 C 
ATOM     11  C   UNL     1       2.645   6.589  18.874  0.00  0.00    +0.000 C 
ENDBRANCH   8  10
ENDBRANCH   7   8
ENDBRANCH   1   7
BRANCH   3  12
ATOM     12  O   UNL     1       7.524   4.399  15.855  0.00  0.00    +0.000 OA
BRANCH  12  13
ATOM     13  S   UNL     1       6.968   5.172  14.536  0.00  0.00    +0.000 S 
ATOM     14  C   UNL     1       6.154   3.808  13.725  0.00  0.00    +0.000 C 
ATOM     15  O   UNL     1       5.927   6.085  14.977  0.00  0.00    +0.000 OA
ATOM     16  O   UNL     1       8.059   5.656  13.714  0.00  0.00    +0.000 OA
ENDBRANCH  12  13
ENDBRANCH   3  12
TORSDOF 5
ENDMDL
MODEL 4
REMARK VINA RESULT:      -6.3      0.957      1.165
REMARK  Name = 
REMARK  8 active torsions:
REMARK  status: ('A' for Active; 'I' for Inactive)
REMARK    1  A    between atoms: C_1  and  C_2
REMARK    2  A    between atoms: C_2  and  C_3
REMARK    3  A    between atoms: C_2  and  C_4
REMARK    4  A    between atoms: C_4  and  S_5
REMARK    5  A    between atoms: S_5  and  C_6
REMARK    6  A    between atoms: C_8  and  O_9
REMARK    7  A    between atoms: O_9  and  S_10
REMARK    8  A    between atoms: S_10  and  C_11
REMARK                            x       y       z     vdW  Elec       q    Type
REMARK                         _______ _______ _______ _____ _____    ______ ____
ROOT
ATOM      1  C   UNL     1       5.761   4.258  18.878  0.00  0.00    +0.000 A 
ATOM      2  C   UNL     1       6.151   4.025  17.577  0.00  0.00    +0.000 A 
ATOM      3  C   UNL     1       7.204   4.778  17.122  0.00  0.00    +0.000 A 
ATOM      4  N   UNL     1       7.858   5.670  17.877  0.00  0.00    +0.000 NA
ATOM      5  C   UNL     1       7.370   5.846  19.113  0.00  0.00    +0.000 A 
ATOM      6  N   UNL     1       6.348   5.177  19.662  0.00  0.00    +0.000 NA
ENDROOT
BRANCH   1   7
ATOM      7  S   UNL     1       4.527   3.186  19.587  0.00  0.00    +0.000 S 
BRANCH   7   8
ATOM      8  C   UNL     1       3.037   4.245  19.534  0.00  0.00    +0.000 C 
BRANCH   8  10
ATOM      9  C   UNL     1       0.750   3.212  19.769  0.00  0.00    +0.000 C 
ATOM     10  C   UNL     1       1.878   3.549  18.789  0.00  0.00    +0.000 C 
ATOM     11  C   UNL     1       1.305   4.379  17.635  0.00  0.00    +0.000 C 
ENDBRANCH   8  10
ENDBRANCH   7   8
ENDBRANCH   1   7
BRANCH   3  12
ATOM     12  O   UNL     1       7.664   4.489  15.858  0.00  0.00    +0.000 OA
BRANCH  12  13
ATOM     13  S   UNL     1       7.012   5.188  14.542  0.00  0.00    +0.000 S 
ATOM     14  C   UNL     1       6.174   3.774  13.850  0.00  0.00    +0.000 C 
ATOM     15  O   UNL     1       5.984   6.106  15.005  0.00  0.00    +0.000 OA
ATOM     16  O   UNL     1       8.039   5.649  13.630  0.00  0.00    +0.000 OA
ENDBRANCH  12  13
ENDBRANCH   3  12
TORSDOF 5
ENDMDL
MODEL 5
REMARK VINA RESULT:      -6.2      2.600      5.763
REMARK  Name = 
REMARK  8 active torsions:
REMARK  status: ('A' for Active; 'I' for Inactive)
REMARK    1  A    between atoms: C_1  and  C_2
REMARK    2  A    between atoms: C_2  and  C_3
REMARK    3  A    between atoms: C_2  and  C_4
REMARK    4  A    between atoms: C_4  and  S_5
REMARK    5  A    between atoms: S_5  and  C_6
REMARK    6  A    between atoms: C_8  and  O_9
REMARK    7  A    between atoms: O_9  and  S_10
REMARK    8  A    between atoms: S_10  and  C_11
REMARK                            x       y       z     vdW  Elec       q    Type
REMARK                         _______ _______ _______ _____ _____    ______ ____
ROOT
ATOM      1  C   UNL     1       6.472   4.554  16.546  0.00  0.00    +0.000 A 
ATOM      2  C   UNL     1       5.176   4.191  16.838  0.00  0.00    +0.000 A 
ATOM      3  C   UNL     1       4.837   4.196  18.168  0.00  0.00    +0.000 A 
ATOM      4  N   UNL     1       5.678   4.557  19.146  0.00  0.00    +0.000 NA
ATOM      5  C   UNL     1       6.925   4.853  18.753  0.00  0.00    +0.000 A 
ATOM      6  N   UNL     1       7.372   4.876  17.491  0.00  0.00    +0.000 NA
ENDROOT
BRANCH   1   7
ATOM      7  S   UNL     1       6.921   4.748  14.833  0.00  0.00    +0.000 S 
BRANCH   7   8
ATOM      8  C   UNL     1       5.445   4.083  13.982  0.00  0.00    +0.000 C 
BRANCH   8  10
ATOM      9  C   UNL     1       4.645   3.341  11.709  0.00  0.00    +0.000 C 
ATOM     10  C   UNL     1       5.830   3.349  12.679  0.00  0.00    +0.000 C 
ATOM     11  C   UNL     1       7.049   3.953  11.973  0.00  0.00    +0.000 C 
ENDBRANCH   8  10
ENDBRANCH   7   8
ENDBRANCH   1   7
BRANCH   3  12
ATOM     12  O   UNL     1       3.521   3.928  18.466  0.00  0.00    +0.000 OA
BRANCH  12  13
ATOM     13  S   UNL     1       3.099   2.594  19.297  0.00  0.00    +0.000 S 
ATOM     14  C   UNL     1       1.479   2.323  18.600  0.00  0.00    +0.000 C 
ATOM     15  O   UNL     1       3.947   1.509  18.832  0.00  0.00    +0.000 OA
ATOM     16  O   UNL     1       2.987   2.873  20.714  0.00  0.00    +0.000 OA
ENDBRANCH  12  13
ENDBRANCH   3  12
TORSDOF 5
ENDMDL
MODEL 6
REMARK VINA RESULT:      -6.1      0.903      1.204
REMARK  Name = 
REMARK  8 active torsions:
REMARK  status: ('A' for Active; 'I' for Inactive)
REMARK    1  A    between atoms: C_1  and  C_2
REMARK    2  A    between atoms: C_2  and  C_3
REMARK    3  A    between atoms: C_2  and  C_4
REMARK    4  A    between atoms: C_4  and  S_5
REMARK    5  A    between atoms: S_5  and  C_6
REMARK    6  A    between atoms: C_8  and  O_9
REMARK    7  A    between atoms: O_9  and  S_10
REMARK    8  A    between atoms: S_10  and  C_11
REMARK                            x       y       z     vdW  Elec       q    Type
REMARK                         _______ _______ _______ _____ _____    ______ ____
ROOT
ATOM      1  C   UNL     1       4.974   4.023  19.129  0.00  0.00    +0.000 A 
ATOM      2  C   UNL     1       5.167   3.678  17.809  0.00  0.00    +0.000 A 
ATOM      3  C   UNL     1       6.221   4.290  17.178  0.00  0.00    +0.000 A 
ATOM      4  N   UNL     1       7.051   5.149  17.784  0.00  0.00    +0.000 NA
ATOM      5  C   UNL     1       6.747   5.444  19.056  0.00  0.00    +0.000 A 
ATOM      6  N   UNL     1       5.744   4.917  19.771  0.00  0.00    +0.000 NA
ENDROOT
BRANCH   1   7
ATOM      7  S   UNL     1       3.743   3.128  20.056  0.00  0.00    +0.000 S 
BRANCH   7   8
ATOM      8  C   UNL     1       2.325   4.281  20.005  0.00  0.00    +0.000 C 
BRANCH   8  10
ATOM      9  C   UNL     1       1.541   4.442  17.614  0.00  0.00    +0.000 C 
ATOM     10  C   UNL     1       1.261   3.819  18.985  0.00  0.00    +0.000 C 
ATOM     11  C   UNL     1       1.179   2.296  18.834  0.00  0.00    +0.000 C 
ENDBRANCH   8  10
ENDBRANCH   7   8
ENDBRANCH   1   7
BRANCH   3  12
ATOM     12  O   UNL     1       6.483   3.884  15.890  0.00  0.00    +0.000 OA
BRANCH  12  13
ATOM     13  S   UNL     1       6.557   4.954  14.666  0.00  0.00    +0.000 S 
ATOM     14  C   UNL     1       6.111   3.878  13.316  0.00  0.00    +0.000 C 
ATOM     15  O   UNL     1       5.459   5.889  14.843  0.00  0.00    +0.000 OA
ATOM     16  O   UNL     1       7.907   5.446  14.481  0.00  0.00    +0.000 OA
ENDBRANCH  12  13
ENDBRANCH   3  12
TORSDOF 5
ENDMDL
MODEL 7
REMARK VINA RESULT:      -6.1      2.661      3.357
REMARK  Name = 
REMARK  8 active torsions:
REMARK  status: ('A' for Active; 'I' for Inactive)
REMARK    1  A    between atoms: C_1  and  C_2
REMARK    2  A    between atoms: C_2  and  C_3
REMARK    3  A    between atoms: C_2  and  C_4
REMARK    4  A    between atoms: C_4  and  S_5
REMARK    5  A    between atoms: S_5  and  C_6
REMARK    6  A    between atoms: C_8  and  O_9
REMARK    7  A    between atoms: O_9  and  S_10
REMARK    8  A    between atoms: S_10  and  C_11
REMARK                            x       y       z     vdW  Elec       q    Type
REMARK                         _______ _______ _______ _____ _____    ______ ____
ROOT
ATOM      1  C   UNL     1       2.879   5.973  19.247  0.00  0.00    +0.000 A 
ATOM      2  C   UNL     1       3.883   5.177  18.740  0.00  0.00    +0.000 A 
ATOM      3  C   UNL     1       4.584   5.698  17.680  0.00  0.00    +0.000 A 
ATOM      4  N   UNL     1       4.356   6.913  17.166  0.00  0.00    +0.000 NA
ATOM      5  C   UNL     1       3.331   7.585  17.709  0.00  0.00    +0.000 A 
ATOM      6  N   UNL     1       2.574   7.178  18.736  0.00  0.00    +0.000 NA
ENDROOT
BRANCH   1   7
ATOM      7  S   UNL     1       2.058   5.439  20.735  0.00  0.00    +0.000 S 
BRANCH   7   8
ATOM      8  C   UNL     1       0.887   4.192  20.089  0.00  0.00    +0.000 C 
BRANCH   8  10
ATOM      9  C   UNL     1       1.838   2.008  19.264  0.00  0.00    +0.000 C 
ATOM     10  C   UNL     1       1.311   2.762  20.488  0.00  0.00    +0.000 C 
ATOM     11  C   UNL     1       2.374   2.724  21.593  0.00  0.00    +0.000 C 
ENDBRANCH   8  10
ENDBRANCH   7   8
ENDBRANCH   1   7
BRANCH   3  12
ATOM     12  O   UNL     1       5.649   4.955  17.227  0.00  0.00    +0.000 OA
BRANCH  12  13
ATOM     13  S   UNL     1       7.123   5.093  17.903  0.00  0.00    +0.000 S 
ATOM     14  C   UNL     1       7.456   6.803  17.521  0.00  0.00    +0.000 C 
ATOM     15  O   UNL     1       6.947   5.006  19.342  0.00  0.00    +0.000 OA
ATOM     16  O   UNL     1       8.086   4.241  17.236  0.00  0.00    +0.000 OA
ENDBRANCH  12  13
ENDBRANCH   3  12
TORSDOF 5
ENDMDL
MODEL 8
REMARK VINA RESULT:      -6.0      2.385      5.649
REMARK  Name = 
REMARK  8 active torsions:
REMARK  status: ('A' for Active; 'I' for Inactive)
REMARK    1  A    between atoms: C_1  and  C_2
REMARK    2  A    between atoms: C_2  and  C_3
REMARK    3  A    between atoms: C_2  and  C_4
REMARK    4  A    between atoms: C_4  and  S_5
REMARK    5  A    between atoms: S_5  and  C_6
REMARK    6  A    between atoms: C_8  and  O_9
REMARK    7  A    between atoms: O_9  and  S_10
REMARK    8  A    between atoms: S_10  and  C_11
REMARK                            x       y       z     vdW  Elec       q    Type
REMARK                         _______ _______ _______ _____ _____    ______ ____
ROOT
ATOM      1  C   UNL     1       6.644   4.614  16.246  0.00  0.00    +0.000 A 
ATOM      2  C   UNL     1       5.441   4.070  16.641  0.00  0.00    +0.000 A 
ATOM      3  C   UNL     1       5.201   4.064  17.993  0.00  0.00    +0.000 A 
ATOM      4  N   UNL     1       6.045   4.576  18.898  0.00  0.00    +0.000 NA
ATOM      5  C   UNL     1       7.202   5.042  18.408  0.00  0.00    +0.000 A 
ATOM      6  N   UNL     1       7.549   5.094  17.115  0.00  0.00    +0.000 NA
ENDROOT
BRANCH   1   7
ATOM      7  S   UNL     1       6.935   4.822  14.501  0.00  0.00    +0.000 S 
BRANCH   7   8
ATOM      8  C   UNL     1       5.680   3.707  13.776  0.00  0.00    +0.000 C 
BRANCH   8  10
ATOM      9  C   UNL     1       7.211   4.097  11.812  0.00  0.00    +0.000 C 
ATOM     10  C   UNL     1       5.817   3.628  12.241  0.00  0.00    +0.000 C 
ATOM     11  C   UNL     1       5.566   2.226  11.675  0.00  0.00    +0.000 C 
ENDBRANCH   8  10
ENDBRANCH   7   8
ENDBRANCH   1   7
BRANCH   3  12
ATOM     12  O   UNL     1       3.965   3.611  18.393  0.00  0.00    +0.000 OA
BRANCH  12  13
ATOM     13  S   UNL     1       2.622   4.495  18.146  0.00  0.00    +0.000 S 
ATOM     14  C   UNL     1       1.940   4.449  19.793  0.00  0.00    +0.000 C 
ATOM     15  O   UNL     1       3.044   5.863  17.900  0.00  0.00    +0.000 OA
ATOM     16  O   UNL     1       1.723   3.834  17.221  0.00  0.00    +0.000 OA
ENDBRANCH  12  13
ENDBRANCH   3  12
TORSDOF 5
ENDMDL
MODEL 9
REMARK VINA RESULT:      -6.0      2.622      3.491
REMARK  Name = 
REMARK  8 active torsions:
REMARK  status: ('A' for Active; 'I' for Inactive)
REMARK    1  A    between atoms: C_1  and  C_2
REMARK    2  A    between atoms: C_2  and  C_3
REMARK    3  A    between atoms: C_2  and  C_4
REMARK    4  A    between atoms: C_4  and  S_5
REMARK    5  A    between atoms: S_5  and  C_6
REMARK    6  A    between atoms: C_8  and  O_9
REMARK    7  A    between atoms: O_9  and  S_10
REMARK    8  A    between atoms: S_10  and  C_11
REMARK                            x       y       z     vdW  Elec       q    Type
REMARK                         _______ _______ _______ _____ _____    ______ ____
ROOT
ATOM      1  C   UNL     1       2.639   3.900  17.902  0.00  0.00    +0.000 A 
ATOM      2  C   UNL     1       3.923   3.739  17.430  0.00  0.00    +0.000 A 
ATOM      3  C   UNL     1       4.602   4.894  17.132  0.00  0.00    +0.000 A 
ATOM      4  N   UNL     1       4.091   6.120  17.307  0.00  0.00    +0.000 NA
ATOM      5  C   UNL     1       2.820   6.159  17.733  0.00  0.00    +0.000 A 
ATOM      6  N   UNL     1       2.059   5.103  18.048  0.00  0.00    +0.000 NA
ENDROOT
BRANCH   1   7
ATOM      7  S   UNL     1       1.773   2.455  18.482  0.00  0.00    +0.000 S 
BRANCH   7   8
ATOM      8  C   UNL     1       0.739   3.150  19.820  0.00  0.00    +0.000 C 
BRANCH   8  10
ATOM      9  C   UNL     1       2.723   2.344  21.150  0.00  0.00    +0.000 C 
ATOM     10  C   UNL     1       1.548   3.326  21.123  0.00  0.00    +0.000 C 
ATOM     11  C   UNL     1       2.082   4.749  21.325  0.00  0.00    +0.000 C 
ENDBRANCH   8  10
ENDBRANCH   7   8
ENDBRANCH   1   7
BRANCH   3  12
ATOM     12  O   UNL     1       5.915   4.752  16.751  0.00  0.00    +0.000 OA
BRANCH  12  13
ATOM     13  S   UNL     1       7.129   4.935  17.819  0.00  0.00    +0.000 S 
ATOM     14  C   UNL     1       7.449   6.675  17.596  0.00  0.00    +0.000 C 
ATOM     15  O   UNL     1       6.563   4.774  19.147  0.00  0.00    +0.000 OA
ATOM     16  O   UNL     1       8.292   4.164  17.427  0.00  0.00    +0.000 OA
ENDBRANCH  12  13
ENDBRANCH   3  12
TORSDOF 5
ENDMDL
