MODEL 1
REMARK VINA RESULT:      -8.5      0.000      0.000
REMARK  Name = 
REMARK  9 active torsions:
REMARK  status: ('A' for Active; 'I' for Inactive)
REMARK    1  A    between atoms: C_1  and  C_2
REMARK    2  A    between atoms: C_2  and  C_3
REMARK    3  A    between atoms: C_3  and  C_4
REMARK    4  A    between atoms: C_4  and  C_5
REMARK    5  A    between atoms: C_5  and  N_6
REMARK    6  A    between atoms: C_8  and  C_9
REMARK    7  A    between atoms: N_11  and  C_12
REMARK    8  A    between atoms: C_16  and  C_17
REMARK    9  A    between atoms: C_25  and  C_26
REMARK                            x       y       z     vdW  Elec       q    Type
REMARK                         _______ _______ _______ _____ _____    ______ ____
ROOT
ATOM      1  N   UNL     1       2.530   6.574  19.685  0.00  0.00    +0.000 N 
ATOM      2  C   UNL     1       1.653   7.422  20.365  0.00  0.00    +0.000 A 
ATOM      3  C   UNL     1       1.193   8.613  19.947  0.00  0.00    +0.000 A 
ATOM      4  C   UNL     1       1.682   9.081  18.634  0.00  0.00    +0.000 A 
ATOM      5  O   UNL     1       1.322  10.153  18.158  0.00  0.00    +0.000 OA
ATOM      6  C   UNL     1       2.609   8.195  17.890  0.00  0.00    +0.000 A 
ATOM      7  C   UNL     1       2.968   7.011  18.423  0.00  0.00    +0.000 A 
ENDROOT
BRANCH   7   8
ATOM      8  C   UNL     1       3.837   6.164  17.583  0.00  0.00    +0.000 A 
ATOM      9  C   UNL     1       4.903   6.729  16.869  0.00  0.00    +0.000 A 
ATOM     10  C   UNL     1       5.642   5.952  15.972  0.00  0.00    +0.000 A 
ATOM     11  C   UNL     1       5.321   4.606  15.791  0.00  0.00    +0.000 A 
ATOM     12 CL   UNL     1       6.200   3.665  14.650  0.00  0.00    +0.000 Cl
ATOM     13  C   UNL     1       4.281   4.026  16.513  0.00  0.00    +0.000 A 
ATOM     14  C   UNL     1       3.539   4.804  17.408  0.00  0.00    +0.000 A 
ENDBRANCH   7   8
BRANCH   3  15
ATOM     15  C   UNL     1       0.216   9.312  20.826  0.00  0.00    +0.000 C 
ATOM     16  O   UNL     1      -0.421   8.656  21.647  0.00  0.00    +0.000 OA
ATOM     17  N   UNL     1       0.046  10.666  20.594  0.00  0.00    +0.000 N 
ATOM     18  H   UNL     1       0.538  11.064  19.792  0.00  0.00    +0.000 HD
BRANCH  17  19
ATOM     19  C   UNL     1      -0.900  11.483  21.257  0.00  0.00    +0.000 A 
ATOM     20  C   UNL     1      -0.798  11.803  22.615  0.00  0.00    +0.000 A 
ATOM     21  C   UNL     1      -1.803  12.511  23.267  0.00  0.00    +0.000 A 
ATOM     22  C   UNL     1      -2.937  12.906  22.571  0.00  0.00    +0.000 A 
ATOM     23  C   UNL     1      -3.056  12.627  21.201  0.00  0.00    +0.000 A 
ATOM     24  C   UNL     1      -2.009  11.950  20.541  0.00  0.00    +0.000 A 
BRANCH  23  25
ATOM     25  C   UNL     1      -4.318  12.997  20.463  0.00  0.00    +0.000 C 
ATOM     26  F   UNL     1      -4.478  14.342  20.301  0.00  0.00    +0.000 F 
ATOM     27  F   UNL     1      -4.377  12.461  19.213  0.00  0.00    +0.000 F 
ATOM     28  F   UNL     1      -5.440  12.571  21.108  0.00  0.00    +0.000 F 
ENDBRANCH  23  25
ENDBRANCH  17  19
ENDBRANCH   3  15
BRANCH   1  29
ATOM     29  C   UNL     1       2.944   5.248  20.240  0.00  0.00    +0.000 C 
BRANCH  29  30
ATOM     30  C   UNL     1       1.814   4.471  20.929  0.00  0.00    +0.000 C 
BRANCH  30  31
ATOM     31  C   UNL     1       2.077   2.974  21.062  0.00  0.00    +0.000 C 
BRANCH  31  33
ATOM     32  C   UNL     1       0.879   2.514  18.886  0.00  0.00    +0.000 C 
ATOM     33  C   UNL     1       2.167   2.344  19.668  0.00  0.00    +0.000 C 
ENDBRANCH  31  33
ENDBRANCH  30  31
ENDBRANCH  29  30
ENDBRANCH   1  29
TORSDOF 8
ENDMDL
MODEL 2
REMARK VINA RESULT:      -8.2      5.336      9.859
REMARK  Name = 
REMARK  9 active torsions:
REMARK  status: ('A' for Active; 'I' for Inactive)
REMARK    1  A    between atoms: C_1  and  C_2
REMARK    2  A    between atoms: C_2  and  C_3
REMARK    3  A    between atoms: C_3  and  C_4
REMARK    4  A    between atoms: C_4  and  C_5
REMARK    5  A    between atoms: C_5  and  N_6
REMARK    6  A    between atoms: C_8  and  C_9
REMARK    7  A    between atoms: N_11  and  C_12
REMARK    8  A    between atoms: C_16  and  C_17
REMARK    9  A    between atoms: C_25  and  C_26
REMARK                            x       y       z     vdW  Elec       q    Type
REMARK                         _______ _______ _______ _____ _____    ______ ____
ROOT
ATOM      1  N   UNL     1      -1.212  11.220  20.196  0.00  0.00    +0.000 N 
ATOM      2  C   UNL     1      -0.343  10.219  19.755  0.00  0.00    +0.000 A 
ATOM      3  C   UNL     1       0.596   9.587  20.479  0.00  0.00    +0.000 A 
ATOM      4  C   UNL     1       0.734  10.009  21.887  0.00  0.00    +0.000 A 
ATOM      5  O   UNL     1       1.558   9.495  22.636  0.00  0.00    +0.000 OA
ATOM      6  C   UNL     1      -0.182  11.065  22.381  0.00  0.00    +0.000 A 
ATOM      7  C   UNL     1      -1.097  11.595  21.545  0.00  0.00    +0.000 A 
ENDROOT
BRANCH   7   8
ATOM      8  C   UNL     1      -2.012  12.589  22.140  0.00  0.00    +0.000 A 
ATOM      9  C   UNL     1      -1.802  13.960  21.936  0.00  0.00    +0.000 A 
ATOM     10  C   UNL     1      -2.588  14.902  22.606  0.00  0.00    +0.000 A 
ATOM     11  C   UNL     1      -3.590  14.475  23.478  0.00  0.00    +0.000 A 
ATOM     12 CL   UNL     1      -4.524  15.636  24.339  0.00  0.00    +0.000 Cl
ATOM     13  C   UNL     1      -3.828  13.117  23.669  0.00  0.00    +0.000 A 
ATOM     14  C   UNL     1      -3.039  12.174  23.001  0.00  0.00    +0.000 A 
ENDBRANCH   7   8
BRANCH   3  15
ATOM     15  C   UNL     1       1.367   8.509  19.801  0.00  0.00    +0.000 C 
ATOM     16  O   UNL     1       1.623   8.623  18.604  0.00  0.00    +0.000 OA
ATOM     17  N   UNL     1       1.680   7.403  20.574  0.00  0.00    +0.000 N 
ATOM     18  H   UNL     1       1.292   7.374  21.518  0.00  0.00    +0.000 HD
BRANCH  17  19
ATOM     19  C   UNL     1       2.321   6.239  20.089  0.00  0.00    +0.000 A 
ATOM     20  C   UNL     1       3.499   6.287  19.335  0.00  0.00    +0.000 A 
ATOM     21  C   UNL     1       4.043   5.136  18.773  0.00  0.00    +0.000 A 
ATOM     22  C   UNL     1       3.413   3.913  18.951  0.00  0.00    +0.000 A 
ATOM     23  C   UNL     1       2.247   3.827  19.727  0.00  0.00    +0.000 A 
ATOM     24  C   UNL     1       1.731   4.992  20.329  0.00  0.00    +0.000 A 
BRANCH  23  25
ATOM     25  C   UNL     1       1.527   2.508  19.861  0.00  0.00    +0.000 C 
ATOM     26  F   UNL     1       0.238   2.544  19.416  0.00  0.00    +0.000 F 
ATOM     27  F   UNL     1       2.131   1.502  19.171  0.00  0.00    +0.000 F 
ATOM     28  F   UNL     1       1.456   2.086  21.155  0.00  0.00    +0.000 F 
ENDBRANCH  23  25
ENDBRANCH  17  19
ENDBRANCH   3  15
BRANCH   1  29
ATOM     29  C   UNL     1      -2.246  11.825  19.301  0.00  0.00    +0.000 C 
BRANCH  29  30
ATOM     30  C   UNL     1      -1.946  11.684  17.803  0.00  0.00    +0.000 C 
BRANCH  30  31
ATOM     31  C   UNL     1      -3.130  11.198  16.973  0.00  0.00    +0.000 C 
BRANCH  31  33
ATOM     32  C   UNL     1      -3.299  10.167  14.672  0.00  0.00    +0.000 C 
ATOM     33  C   UNL     1      -2.678  10.060  16.051  0.00  0.00    +0.000 C 
ENDBRANCH  31  33
ENDBRANCH  30  31
ENDBRANCH  29  30
ENDBRANCH   1  29
TORSDOF 8
ENDMDL
MODEL 3
REMARK VINA RESULT:      -8.1      5.557     10.049
REMARK  Name = 
REMARK  9 active torsions:
REMARK  status: ('A' for Active; 'I' for Inactive)
REMARK    1  A    between atoms: C_1  and  C_2
REMARK    2  A    between atoms: C_2  and  C_3
REMARK    3  A    between atoms: C_3  and  C_4
REMARK    4  A    between atoms: C_4  and  C_5
REMARK    5  A    between atoms: C_5  and  N_6
REMARK    6  A    between atoms: C_8  and  C_9
REMARK    7  A    between atoms: N_11  and  C_12
REMARK    8  A    between atoms: C_16  and  C_17
REMARK    9  A    between atoms: C_25  and  C_26
REMARK                            x       y       z     vdW  Elec       q    Type
REMARK                         _______ _______ _______ _____ _____    ______ ____
ROOT
ATOM      1  N   UNL     1      -0.151  11.327  20.048  0.00  0.00    +0.000 N 
ATOM      2  C   UNL     1       0.538  10.364  19.306  0.00  0.00    +0.000 A 
ATOM      3  C   UNL     1       1.161   9.273  19.780  0.00  0.00    +0.000 A 
ATOM      4  C   UNL     1       1.127   9.080  21.243  0.00  0.00    +0.000 A 
ATOM      5  O   UNL     1       1.661   8.115  21.779  0.00  0.00    +0.000 OA
ATOM      6  C   UNL     1       0.395  10.085  22.051  0.00  0.00    +0.000 A 
ATOM      7  C   UNL     1      -0.207  11.122  21.436  0.00  0.00    +0.000 A 
ENDROOT
BRANCH   7   8
ATOM      8  C   UNL     1      -0.970  12.033  22.311  0.00  0.00    +0.000 A 
ATOM      9  C   UNL     1      -2.220  11.651  22.819  0.00  0.00    +0.000 A 
ATOM     10  C   UNL     1      -2.999  12.563  23.536  0.00  0.00    +0.000 A 
ATOM     11  C   UNL     1      -2.529  13.859  23.752  0.00  0.00    +0.000 A 
ATOM     12 CL   UNL     1      -3.512  14.994  24.592  0.00  0.00    +0.000 Cl
ATOM     13  C   UNL     1      -1.279  14.244  23.276  0.00  0.00    +0.000 A 
ATOM     14  C   UNL     1      -0.500  13.333  22.556  0.00  0.00    +0.000 A 
ENDBRANCH   7   8
BRANCH   3  15
ATOM     15  C   UNL     1       1.783   8.358  18.784  0.00  0.00    +0.000 C 
ATOM     16  O   UNL     1       1.794   8.687  17.599  0.00  0.00    +0.000 OA
ATOM     17  N   UNL     1       2.247   7.148  19.272  0.00  0.00    +0.000 N 
ATOM     18  H   UNL     1       2.056   6.941  20.253  0.00  0.00    +0.000 HD
BRANCH  17  19
ATOM     19  C   UNL     1       2.781   6.110  18.472  0.00  0.00    +0.000 A 
ATOM     20  C   UNL     1       2.017   5.016  18.049  0.00  0.00    +0.000 A 
ATOM     21  C   UNL     1       2.597   3.953  17.363  0.00  0.00    +0.000 A 
ATOM     22  C   UNL     1       3.958   3.963  17.092  0.00  0.00    +0.000 A 
ATOM     23  C   UNL     1       4.745   5.059  17.475  0.00  0.00    +0.000 A 
ATOM     24  C   UNL     1       4.138   6.151  18.129  0.00  0.00    +0.000 A 
BRANCH  23  25
ATOM     25  C   UNL     1       6.235   5.036  17.239  0.00  0.00    +0.000 C 
ATOM     26  F   UNL     1       6.622   4.137  16.290  0.00  0.00    +0.000 F 
ATOM     27  F   UNL     1       6.726   6.239  16.834  0.00  0.00    +0.000 F 
ATOM     28  F   UNL     1       6.932   4.705  18.362  0.00  0.00    +0.000 F 
ENDBRANCH  23  25
ENDBRANCH  17  19
ENDBRANCH   3  15
BRANCH   1  29
ATOM     29  C   UNL     1      -0.839  12.486  19.400  0.00  0.00    +0.000 C 
BRANCH  29  30
ATOM     30  C   UNL     1      -1.317  12.217  17.966  0.00  0.00    +0.000 C 
BRANCH  30  31
ATOM     31  C   UNL     1      -2.587  11.376  17.880  0.00  0.00    +0.000 C 
BRANCH  31  33
ATOM     32  C   UNL     1      -2.776  10.386  15.563  0.00  0.00    +0.000 C 
ATOM     33  C   UNL     1      -2.331  10.152  16.994  0.00  0.00    +0.000 C 
ENDBRANCH  31  33
ENDBRANCH  30  31
ENDBRANCH  29  30
ENDBRANCH   1  29
TORSDOF 8
ENDMDL
MODEL 4
REMARK VINA RESULT:      -8.1      5.277      9.941
REMARK  Name = 
REMARK  9 active torsions:
REMARK  status: ('A' for Active; 'I' for Inactive)
REMARK    1  A    between atoms: C_1  and  C_2
REMARK    2  A    between atoms: C_2  and  C_3
REMARK    3  A    between atoms: C_3  and  C_4
REMARK    4  A    between atoms: C_4  and  C_5
REMARK    5  A    between atoms: C_5  and  N_6
REMARK    6  A    between atoms: C_8  and  C_9
REMARK    7  A    between atoms: N_11  and  C_12
REMARK    8  A    between atoms: C_16  and  C_17
REMARK    9  A    between atoms: C_25  and  C_26
REMARK                            x       y       z     vdW  Elec       q    Type
REMARK                         _______ _______ _______ _____ _____    ______ ____
ROOT
ATOM      1  N   UNL     1      -1.279  11.551  20.485  0.00  0.00    +0.000 N 
ATOM      2  C   UNL     1      -0.436  10.549  19.998  0.00  0.00    +0.000 A 
ATOM      3  C   UNL     1       0.403   9.781  20.712  0.00  0.00    +0.000 A 
ATOM      4  C   UNL     1       0.449  10.035  22.166  0.00  0.00    +0.000 A 
ATOM      5  O   UNL     1       1.178   9.388  22.910  0.00  0.00    +0.000 OA
ATOM      6  C   UNL     1      -0.443  11.088  22.708  0.00  0.00    +0.000 A 
ATOM      7  C   UNL     1      -1.254  11.767  21.873  0.00  0.00    +0.000 A 
ENDROOT
BRANCH   7   8
ATOM      8  C   UNL     1      -2.156  12.747  22.508  0.00  0.00    +0.000 A 
ATOM      9  C   UNL     1      -3.392  12.342  23.031  0.00  0.00    +0.000 A 
ATOM     10  C   UNL     1      -4.301  13.289  23.511  0.00  0.00    +0.000 A 
ATOM     11  C   UNL     1      -3.973  14.645  23.476  0.00  0.00    +0.000 A 
ATOM     12 CL   UNL     1      -5.113  15.813  24.022  0.00  0.00    +0.000 Cl
ATOM     13  C   UNL     1      -2.738  15.059  22.984  0.00  0.00    +0.000 A 
ATOM     14  C   UNL     1      -1.831  14.112  22.500  0.00  0.00    +0.000 A 
ENDBRANCH   7   8
BRANCH   3  15
ATOM     15  C   UNL     1       1.163   8.735  19.974  0.00  0.00    +0.000 C 
ATOM     16  O   UNL     1       1.405   8.906  18.781  0.00  0.00    +0.000 OA
ATOM     17  N   UNL     1       1.483   7.593  20.690  0.00  0.00    +0.000 N 
ATOM     18  H   UNL     1       1.106   7.519  21.636  0.00  0.00    +0.000 HD
BRANCH  17  19
ATOM     19  C   UNL     1       2.116   6.453  20.142  0.00  0.00    +0.000 A 
ATOM     20  C   UNL     1       3.222   6.542  19.290  0.00  0.00    +0.000 A 
ATOM     21  C   UNL     1       3.752   5.412  18.674  0.00  0.00    +0.000 A 
ATOM     22  C   UNL     1       3.178   4.168  18.895  0.00  0.00    +0.000 A 
ATOM     23  C   UNL     1       2.087   4.041  19.768  0.00  0.00    +0.000 A 
ATOM     24  C   UNL     1       1.588   5.186  20.422  0.00  0.00    +0.000 A 
BRANCH  23  25
ATOM     25  C   UNL     1       1.422   2.699  19.954  0.00  0.00    +0.000 C 
ATOM     26  F   UNL     1       1.063   2.444  21.244  0.00  0.00    +0.000 F 
ATOM     27  F   UNL     1       0.286   2.565  19.217  0.00  0.00    +0.000 F 
ATOM     28  F   UNL     1       2.232   1.665  19.589  0.00  0.00    +0.000 F 
ENDBRANCH  23  25
ENDBRANCH  17  19
ENDBRANCH   3  15
BRANCH   1  29
ATOM     29  C   UNL     1      -2.201  12.318  19.591  0.00  0.00    +0.000 C 
BRANCH  29  30
ATOM     30  C   UNL     1      -2.129  11.913  18.113  0.00  0.00    +0.000 C 
BRANCH  30  31
ATOM     31  C   UNL     1      -3.317  11.083  17.635  0.00  0.00    +0.000 C 
BRANCH  31  33
ATOM     32  C   UNL     1      -2.846  10.298  15.280  0.00  0.00    +0.000 C 
ATOM     33  C   UNL     1      -2.818   9.934  16.752  0.00  0.00    +0.000 C 
ENDBRANCH  31  33
ENDBRANCH  30  31
ENDBRANCH  29  30
ENDBRANCH   1  29
TORSDOF 8
ENDMDL
MODEL 5
REMARK VINA RESULT:      -8.1      5.177      9.811
REMARK  Name = 
REMARK  9 active torsions:
REMARK  status: ('A' for Active; 'I' for Inactive)
REMARK    1  A    between atoms: C_1  and  C_2
REMARK    2  A    between atoms: C_2  and  C_3
REMARK    3  A    between atoms: C_3  and  C_4
REMARK    4  A    between atoms: C_4  and  C_5
REMARK    5  A    between atoms: C_5  and  N_6
REMARK    6  A    between atoms: C_8  and  C_9
REMARK    7  A    between atoms: N_11  and  C_12
REMARK    8  A    between atoms: C_16  and  C_17
REMARK    9  A    between atoms: C_25  and  C_26
REMARK                            x       y       z     vdW  Elec       q    Type
REMARK                         _______ _______ _______ _____ _____    ______ ____
ROOT
ATOM      1  N   UNL     1      -0.733  11.488  20.032  0.00  0.00    +0.000 N 
ATOM      2  C   UNL     1       0.012  10.506  19.375  0.00  0.00    +0.000 A 
ATOM      3  C   UNL     1       0.837   9.607  19.935  0.00  0.00    +0.000 A 
ATOM      4  C   UNL     1       0.984   9.677  21.403  0.00  0.00    +0.000 A 
ATOM      5  O   UNL     1       1.710   8.901  22.015  0.00  0.00    +0.000 OA
ATOM      6  C   UNL     1       0.198  10.707  22.124  0.00  0.00    +0.000 A 
ATOM      7  C   UNL     1      -0.613  11.530  21.431  0.00  0.00    +0.000 A 
ENDROOT
BRANCH   7   8
ATOM      8  C   UNL     1      -1.409  12.476  22.236  0.00  0.00    +0.000 A 
ATOM      9  C   UNL     1      -0.884  13.729  22.586  0.00  0.00    +0.000 A 
ATOM     10  C   UNL     1      -1.583  14.569  23.457  0.00  0.00    +0.000 A 
ATOM     11  C   UNL     1      -2.812  14.162  23.977  0.00  0.00    +0.000 A 
ATOM     12 CL   UNL     1      -3.647  15.176  25.088  0.00  0.00    +0.000 Cl
ATOM     13  C   UNL     1      -3.357  12.932  23.617  0.00  0.00    +0.000 A 
ATOM     14  C   UNL     1      -2.657  12.090  22.749  0.00  0.00    +0.000 A 
ENDBRANCH   7   8
BRANCH   3  15
ATOM     15  C   UNL     1       1.482   8.617  19.029  0.00  0.00    +0.000 C 
ATOM     16  O   UNL     1       1.433   8.802  17.815  0.00  0.00    +0.000 OA
ATOM     17  N   UNL     1       2.035   7.503  19.637  0.00  0.00    +0.000 N 
ATOM     18  H   UNL     1       1.890   7.404  20.643  0.00  0.00    +0.000 HD
BRANCH  17  19
ATOM     19  C   UNL     1       2.606   6.410  18.944  0.00  0.00    +0.000 A 
ATOM     20  C   UNL     1       3.635   6.566  18.009  0.00  0.00    +0.000 A 
ATOM     21  C   UNL     1       4.097   5.489  17.258  0.00  0.00    +0.000 A 
ATOM     22  C   UNL     1       3.531   4.233  17.426  0.00  0.00    +0.000 A 
ATOM     23  C   UNL     1       2.519   4.037  18.377  0.00  0.00    +0.000 A 
ATOM     24  C   UNL     1       2.091   5.126  19.165  0.00  0.00    +0.000 A 
BRANCH  23  25
ATOM     25  C   UNL     1       1.859   2.687  18.509  0.00  0.00    +0.000 C 
ATOM     26  F   UNL     1       2.019   2.122  19.740  0.00  0.00    +0.000 F 
ATOM     27  F   UNL     1       0.516   2.730  18.291  0.00  0.00    +0.000 F 
ATOM     28  F   UNL     1       2.355   1.779  17.623  0.00  0.00    +0.000 F 
ENDBRANCH  23  25
ENDBRANCH  17  19
ENDBRANCH   3  15
BRANCH   1  29
ATOM     29  C   UNL     1      -1.651  12.414  19.298  0.00  0.00    +0.000 C 
BRANCH  29  30
ATOM     30  C   UNL     1      -3.069  11.864  19.091  0.00  0.00    +0.000 C 
BRANCH  30  31
ATOM     31  C   UNL     1      -3.439  11.630  17.629  0.00  0.00    +0.000 C 
BRANCH  31  33
ATOM     32  C   UNL     1      -2.161   9.651  16.718  0.00  0.00    +0.000 C 
ATOM     33  C   UNL     1      -3.459  10.125  17.341  0.00  0.00    +0.000 C 
ENDBRANCH  31  33
ENDBRANCH  30  31
ENDBRANCH  29  30
ENDBRANCH   1  29
TORSDOF 8
ENDMDL
MODEL 6
REMARK VINA RESULT:      -8.1      0.520      1.204
REMARK  Name = 
REMARK  9 active torsions:
REMARK  status: ('A' for Active; 'I' for Inactive)
REMARK    1  A    between atoms: C_1  and  C_2
REMARK    2  A    between atoms: C_2  and  C_3
REMARK    3  A    between atoms: C_3  and  C_4
REMARK    4  A    between atoms: C_4  and  C_5
REMARK    5  A    between atoms: C_5  and  N_6
REMARK    6  A    between atoms: C_8  and  C_9
REMARK    7  A    between atoms: N_11  and  C_12
REMARK    8  A    between atoms: C_16  and  C_17
REMARK    9  A    between atoms: C_25  and  C_26
REMARK                            x       y       z     vdW  Elec       q    Type
REMARK                         _______ _______ _______ _____ _____    ______ ____
ROOT
ATOM      1  N   UNL     1       2.400   6.971  19.763  0.00  0.00    +0.000 N 
ATOM      2  C   UNL     1       1.566   7.854  20.452  0.00  0.00    +0.000 A 
ATOM      3  C   UNL     1       1.039   8.998  19.987  0.00  0.00    +0.000 A 
ATOM      4  C   UNL     1       1.393   9.369  18.602  0.00  0.00    +0.000 A 
ATOM      5  O   UNL     1       0.963  10.391  18.079  0.00  0.00    +0.000 OA
ATOM      6  C   UNL     1       2.271   8.443  17.847  0.00  0.00    +0.000 A 
ATOM      7  C   UNL     1       2.708   7.312  18.435  0.00  0.00    +0.000 A 
ENDROOT
BRANCH   7   8
ATOM      8  C   UNL     1       3.519   6.418  17.587  0.00  0.00    +0.000 A 
ATOM      9  C   UNL     1       3.235   5.046  17.526  0.00  0.00    +0.000 A 
ATOM     10  C   UNL     1       4.082   4.180  16.829  0.00  0.00    +0.000 A 
ATOM     11  C   UNL     1       5.213   4.684  16.185  0.00  0.00    +0.000 A 
ATOM     12 CL   UNL     1       6.281   3.609  15.369  0.00  0.00    +0.000 Cl
ATOM     13  C   UNL     1       5.492   6.048  16.215  0.00  0.00    +0.000 A 
ATOM     14  C   UNL     1       4.647   6.913  16.916  0.00  0.00    +0.000 A 
ENDBRANCH   7   8
BRANCH   3  15
ATOM     15  C   UNL     1       0.129   9.748  20.896  0.00  0.00    +0.000 C 
ATOM     16  O   UNL     1      -0.422   9.146  21.815  0.00  0.00    +0.000 OA
ATOM     17  N   UNL     1      -0.087  11.079  20.582  0.00  0.00    +0.000 N 
ATOM     18  H   UNL     1       0.325  11.423  19.713  0.00  0.00    +0.000 HD
BRANCH  17  19
ATOM     19  C   UNL     1      -0.988  11.930  21.265  0.00  0.00    +0.000 A 
ATOM     20  C   UNL     1      -0.699  12.483  22.517  0.00  0.00    +0.000 A 
ATOM     21  C   UNL     1      -1.650  13.220  23.217  0.00  0.00    +0.000 A 
ATOM     22  C   UNL     1      -2.914  13.413  22.677  0.00  0.00    +0.000 A 
ATOM     23  C   UNL     1      -3.225  12.898  21.410  0.00  0.00    +0.000 A 
ATOM     24  C   UNL     1      -2.238  12.191  20.690  0.00  0.00    +0.000 A 
BRANCH  23  25
ATOM     25  C   UNL     1      -4.620  13.050  20.855  0.00  0.00    +0.000 C 
ATOM     26  F   UNL     1      -5.578  12.462  21.626  0.00  0.00    +0.000 F 
ATOM     27  F   UNL     1      -4.996  14.351  20.721  0.00  0.00    +0.000 F 
ATOM     28  F   UNL     1      -4.750  12.492  19.619  0.00  0.00    +0.000 F 
ENDBRANCH  23  25
ENDBRANCH  17  19
ENDBRANCH   3  15
BRANCH   1  29
ATOM     29  C   UNL     1       2.897   5.702  20.379  0.00  0.00    +0.000 C 
BRANCH  29  30
ATOM     30  C   UNL     1       1.789   4.772  20.892  0.00  0.00    +0.000 C 
BRANCH  30  31
ATOM     31  C   UNL     1       2.278   3.388  21.307  0.00  0.00    +0.000 C 
BRANCH  31  33
ATOM     32  C   UNL     1       0.909   2.774  19.274  0.00  0.00    +0.000 C 
ATOM     33  C   UNL     1       1.420   2.316  20.627  0.00  0.00    +0.000 C 
ENDBRANCH  31  33
ENDBRANCH  30  31
ENDBRANCH  29  30
ENDBRANCH   1  29
TORSDOF 8
ENDMDL
MODEL 7
REMARK VINA RESULT:      -8.1      5.291      9.685
REMARK  Name = 
REMARK  9 active torsions:
REMARK  status: ('A' for Active; 'I' for Inactive)
REMARK    1  A    between atoms: C_1  and  C_2
REMARK    2  A    between atoms: C_2  and  C_3
REMARK    3  A    between atoms: C_3  and  C_4
REMARK    4  A    between atoms: C_4  and  C_5
REMARK    5  A    between atoms: C_5  and  N_6
REMARK    6  A    between atoms: C_8  and  C_9
REMARK    7  A    between atoms: N_11  and  C_12
REMARK    8  A    between atoms: C_16  and  C_17
REMARK    9  A    between atoms: C_25  and  C_26
REMARK                            x       y       z     vdW  Elec       q    Type
REMARK                         _______ _______ _______ _____ _____    ______ ____
ROOT
ATOM      1  N   UNL     1      -0.831  11.356  19.333  0.00  0.00    +0.000 N 
ATOM      2  C   UNL     1       0.017  10.278  19.071  0.00  0.00    +0.000 A 
ATOM      3  C   UNL     1       0.815   9.646  19.948  0.00  0.00    +0.000 A 
ATOM      4  C   UNL     1       0.806  10.160  21.332  0.00  0.00    +0.000 A 
ATOM      5  O   UNL     1       1.495   9.653  22.211  0.00  0.00    +0.000 OA
ATOM      6  C   UNL     1      -0.092  11.300  21.636  0.00  0.00    +0.000 A 
ATOM      7  C   UNL     1      -0.859  11.820  20.658  0.00  0.00    +0.000 A 
ENDROOT
BRANCH   7   8
ATOM      8  C   UNL     1      -1.772  12.906  21.067  0.00  0.00    +0.000 A 
ATOM      9  C   UNL     1      -1.396  14.247  20.911  0.00  0.00    +0.000 A 
ATOM     10  C   UNL     1      -2.202  15.270  21.418  0.00  0.00    +0.000 A 
ATOM     11  C   UNL     1      -3.391  14.955  22.078  0.00  0.00    +0.000 A 
ATOM     12 CL   UNL     1      -4.357  16.212  22.745  0.00  0.00    +0.000 Cl
ATOM     13  C   UNL     1      -3.789  13.628  22.216  0.00  0.00    +0.000 A 
ATOM     14  C   UNL     1      -2.981  12.604  21.712  0.00  0.00    +0.000 A 
ENDBRANCH   7   8
BRANCH   3  15
ATOM     15  C   UNL     1       1.590   8.479  19.444  0.00  0.00    +0.000 C 
ATOM     16  O   UNL     1       1.903   8.440  18.255  0.00  0.00    +0.000 OA
ATOM     17  N   UNL     1       1.841   7.471  20.360  0.00  0.00    +0.000 N 
ATOM     18  H   UNL     1       1.411   7.565  21.281  0.00  0.00    +0.000 HD
BRANCH  17  19
ATOM     19  C   UNL     1       2.476   6.245  20.052  0.00  0.00    +0.000 A 
ATOM     20  C   UNL     1       3.742   6.181  19.459  0.00  0.00    +0.000 A 
ATOM     21  C   UNL     1       4.291   4.966  19.061  0.00  0.00    +0.000 A 
ATOM     22  C   UNL     1       3.579   3.789  19.244  0.00  0.00    +0.000 A 
ATOM     23  C   UNL     1       2.320   3.816  19.864  0.00  0.00    +0.000 A 
ATOM     24  C   UNL     1       1.794   5.049  20.305  0.00  0.00    +0.000 A 
BRANCH  23  25
ATOM     25  C   UNL     1       1.519   2.545  20.001  0.00  0.00    +0.000 C 
ATOM     26  F   UNL     1       1.406   2.110  21.288  0.00  0.00    +0.000 F 
ATOM     27  F   UNL     1       0.246   2.670  19.536  0.00  0.00    +0.000 F 
ATOM     28  F   UNL     1       2.071   1.508  19.311  0.00  0.00    +0.000 F 
ENDBRANCH  23  25
ENDBRANCH  17  19
ENDBRANCH   3  15
BRANCH   1  29
ATOM     29  C   UNL     1      -1.705  11.955  18.276  0.00  0.00    +0.000 C 
BRANCH  29  30
ATOM     30  C   UNL     1      -3.115  11.354  18.207  0.00  0.00    +0.000 C 
BRANCH  30  31
ATOM     31  C   UNL     1      -3.172   9.971  17.565  0.00  0.00    +0.000 C 
BRANCH  31  33
ATOM     32  C   UNL     1      -3.225  10.326  15.064  0.00  0.00    +0.000 C 
ATOM     33  C   UNL     1      -2.364   9.977  16.262  0.00  0.00    +0.000 C 
ENDBRANCH  31  33
ENDBRANCH  30  31
ENDBRANCH  29  30
ENDBRANCH   1  29
TORSDOF 8
ENDMDL
MODEL 8
REMARK VINA RESULT:      -8.0      0.868      1.102
REMARK  Name = 
REMARK  9 active torsions:
REMARK  status: ('A' for Active; 'I' for Inactive)
REMARK    1  A    between atoms: C_1  and  C_2
REMARK    2  A    between atoms: C_2  and  C_3
REMARK    3  A    between atoms: C_3  and  C_4
REMARK    4  A    between atoms: C_4  and  C_5
REMARK    5  A    between atoms: C_5  and  N_6
REMARK    6  A    between atoms: C_8  and  C_9
REMARK    7  A    between atoms: N_11  and  C_12
REMARK    8  A    between atoms: C_16  and  C_17
REMARK    9  A    between atoms: C_25  and  C_26
REMARK                            x       y       z     vdW  Elec       q    Type
REMARK                         _______ _______ _______ _____ _____    ______ ____
ROOT
ATOM      1  N   UNL     1       2.657   6.536  19.674  0.00  0.00    +0.000 N 
ATOM      2  C   UNL     1       1.777   7.346  20.396  0.00  0.00    +0.000 A 
ATOM      3  C   UNL     1       1.249   8.517  20.003  0.00  0.00    +0.000 A 
ATOM      4  C   UNL     1       1.658   9.007  18.671  0.00  0.00    +0.000 A 
ATOM      5  O   UNL     1       1.232  10.063  18.215  0.00  0.00    +0.000 OA
ATOM      6  C   UNL     1       2.585   8.161  17.882  0.00  0.00    +0.000 A 
ATOM      7  C   UNL     1       3.017   6.992  18.395  0.00  0.00    +0.000 A 
ENDROOT
BRANCH   7   8
ATOM      8  C   UNL     1       3.881   6.184  17.514  0.00  0.00    +0.000 A 
ATOM      9  C   UNL     1       4.857   6.798  16.717  0.00  0.00    +0.000 A 
ATOM     10  C   UNL     1       5.583   6.049  15.786  0.00  0.00    +0.000 A 
ATOM     11  C   UNL     1       5.340   4.681  15.654  0.00  0.00    +0.000 A 
ATOM     12 CL   UNL     1       6.199   3.771  14.474  0.00  0.00    +0.000 Cl
ATOM     13  C   UNL     1       4.392   4.053  16.458  0.00  0.00    +0.000 A 
ATOM     14  C   UNL     1       3.663   4.803  17.386  0.00  0.00    +0.000 A 
ENDBRANCH   7   8
BRANCH   3  15
ATOM     15  C   UNL     1       0.286   9.174  20.928  0.00  0.00    +0.000 C 
ATOM     16  O   UNL     1      -0.458   8.472  21.609  0.00  0.00    +0.000 OA
ATOM     17  N   UNL     1       0.253  10.558  20.894  0.00  0.00    +0.000 N 
ATOM     18  H   UNL     1       0.828  11.018  20.186  0.00  0.00    +0.000 HD
BRANCH  17  19
ATOM     19  C   UNL     1      -0.656  11.359  21.624  0.00  0.00    +0.000 A 
ATOM     20  C   UNL     1      -1.144  10.988  22.882  0.00  0.00    +0.000 A 
ATOM     21  C   UNL     1      -2.125  11.737  23.525  0.00  0.00    +0.000 A 
ATOM     22  C   UNL     1      -2.642  12.871  22.916  0.00  0.00    +0.000 A 
ATOM     23  C   UNL     1      -2.153  13.287  21.669  0.00  0.00    +0.000 A 
ATOM     24  C   UNL     1      -1.125  12.546  21.048  0.00  0.00    +0.000 A 
BRANCH  23  25
ATOM     25  C   UNL     1      -2.764  14.481  20.979  0.00  0.00    +0.000 C 
ATOM     26  F   UNL     1      -1.908  15.115  20.128  0.00  0.00    +0.000 F 
ATOM     27  F   UNL     1      -3.858  14.160  20.235  0.00  0.00    +0.000 F 
ATOM     28  F   UNL     1      -3.176  15.435  21.860  0.00  0.00    +0.000 F 
ENDBRANCH  23  25
ENDBRANCH  17  19
ENDBRANCH   3  15
BRANCH   1  29
ATOM     29  C   UNL     1       3.150   5.228  20.206  0.00  0.00    +0.000 C 
BRANCH  29  30
ATOM     30  C   UNL     1       2.198   4.551  21.200  0.00  0.00    +0.000 C 
BRANCH  30  31
ATOM     31  C   UNL     1       1.023   3.830  20.546  0.00  0.00    +0.000 C 
BRANCH  31  33
ATOM     32  C   UNL     1       1.219   2.286  18.556  0.00  0.00    +0.000 C 
ATOM     33  C   UNL     1       1.481   2.458  20.040  0.00  0.00    +0.000 C 
ENDBRANCH  31  33
ENDBRANCH  30  31
ENDBRANCH  29  30
ENDBRANCH   1  29
TORSDOF 8
ENDMDL
MODEL 9
REMARK VINA RESULT:      -8.0      0.567      1.002
REMARK  Name = 
REMARK  9 active torsions:
REMARK  status: ('A' for Active; 'I' for Inactive)
REMARK    1  A    between atoms: C_1  and  C_2
REMARK    2  A    between atoms: C_2  and  C_3
REMARK    3  A    between atoms: C_3  and  C_4
REMARK    4  A    between atoms: C_4  and  C_5
REMARK    5  A    between atoms: C_5  and  N_6
REMARK    6  A    between atoms: C_8  and  C_9
REMARK    7  A    between atoms: N_11  and  C_12
REMARK    8  A    between atoms: C_16  and  C_17
REMARK    9  A    between atoms: C_25  and  C_26
REMARK                            x       y       z     vdW  Elec       q    Type
REMARK                         _______ _______ _______ _____ _____    ______ ____
ROOT
ATOM      1  N   UNL     1       2.329   6.819  20.001  0.00  0.00    +0.000 N 
ATOM      2  C   UNL     1       1.466   7.719  20.631  0.00  0.00    +0.000 A 
ATOM      3  C   UNL     1       1.015   8.885  20.141  0.00  0.00    +0.000 A 
ATOM      4  C   UNL     1       1.498   9.262  18.798  0.00  0.00    +0.000 A 
ATOM      5  O   UNL     1       1.145  10.305  18.256  0.00  0.00    +0.000 OA
ATOM      6  C   UNL     1       2.409   8.320  18.105  0.00  0.00    +0.000 A 
ATOM      7  C   UNL     1       2.760   7.169  18.711  0.00  0.00    +0.000 A 
ENDROOT
BRANCH   7   8
ATOM      8  C   UNL     1       3.613   6.260  17.921  0.00  0.00    +0.000 A 
ATOM      9  C   UNL     1       4.842   6.703  17.410  0.00  0.00    +0.000 A 
ATOM     10  C   UNL     1       5.586   5.888  16.553  0.00  0.00    +0.000 A 
ATOM     11  C   UNL     1       5.106   4.623  16.208  0.00  0.00    +0.000 A 
ATOM     12 CL   UNL     1       5.999   3.641  15.113  0.00  0.00    +0.000 Cl
ATOM     13  C   UNL     1       3.901   4.160  16.729  0.00  0.00    +0.000 A 
ATOM     14  C   UNL     1       3.155   4.978  17.583  0.00  0.00    +0.000 A 
ENDBRANCH   7   8
BRANCH   3  15
ATOM     15  C   UNL     1       0.053   9.650  20.981  0.00  0.00    +0.000 C 
ATOM     16  O   UNL     1      -0.599   9.051  21.833  0.00  0.00    +0.000 OA
ATOM     17  N   UNL     1      -0.087  10.994  20.678  0.00  0.00    +0.000 N 
ATOM     18  H   UNL     1       0.414  11.339  19.858  0.00  0.00    +0.000 HD
BRANCH  17  19
ATOM     19  C   UNL     1      -1.015  11.865  21.296  0.00  0.00    +0.000 A 
ATOM     20  C   UNL     1      -0.795  12.429  22.557  0.00  0.00    +0.000 A 
ATOM     21  C   UNL     1      -1.775  13.187  23.190  0.00  0.00    +0.000 A 
ATOM     22  C   UNL     1      -3.002  13.389  22.573  0.00  0.00    +0.000 A 
ATOM     23  C   UNL     1      -3.243  12.862  21.295  0.00  0.00    +0.000 A 
ATOM     24  C   UNL     1      -2.225  12.135  20.644  0.00  0.00    +0.000 A 
BRANCH  23  25
ATOM     25  C   UNL     1      -4.600  13.026  20.656  0.00  0.00    +0.000 C 
ATOM     26  F   UNL     1      -4.711  12.401  19.449  0.00  0.00    +0.000 F 
ATOM     27  F   UNL     1      -5.610  12.534  21.425  0.00  0.00    +0.000 F 
ATOM     28  F   UNL     1      -4.908  14.332  20.422  0.00  0.00    +0.000 F 
ENDBRANCH  23  25
ENDBRANCH  17  19
ENDBRANCH   3  15
BRANCH   1  29
ATOM     29  C   UNL     1       2.733   5.527  20.638  0.00  0.00    +0.000 C 
BRANCH  29  30
ATOM     30  C   UNL     1       1.597   4.504  20.768  0.00  0.00    +0.000 C 
BRANCH  30  31
ATOM     31  C   UNL     1       2.051   3.123  21.232  0.00  0.00    +0.000 C 
BRANCH  31  33
ATOM     32  C   UNL     1       4.117   2.310  20.028  0.00  0.00    +0.000 C 
ATOM     33  C   UNL     1       2.601   2.336  20.038  0.00  0.00    +0.000 C 
ENDBRANCH  31  33
ENDBRANCH  30  31
ENDBRANCH  29  30
ENDBRANCH   1  29
TORSDOF 8
ENDMDL
