MODEL 1
REMARK VINA RESULT:      -9.0      0.000      0.000
REMARK  Name = 
REMARK  5 active torsions:
REMARK  status: ('A' for Active; 'I' for Inactive)
REMARK    1  A    between atoms: C_1  and  C_2
REMARK    2  A    between atoms: C_2  and  C_3
REMARK    3  A    between atoms: C_7  and  N_8
REMARK    4  A    between atoms: C_9  and  C_11
REMARK    5  A    between atoms: N_19  and  C_20
REMARK                            x       y       z     vdW  Elec       q    Type
REMARK                         _______ _______ _______ _____ _____    ______ ____
ROOT
ATOM      1  C   UNL     1       6.818   5.950  17.022  0.00  0.00    +0.000 A 
ATOM      2  C   UNL     1       7.054   5.947  15.624  0.00  0.00    +0.000 A 
ATOM      3  C   UNL     1       6.391   5.080  14.746  0.00  0.00    +0.000 A 
ATOM      4  C   UNL     1       5.460   4.180  15.235  0.00  0.00    +0.000 A 
ATOM      5  C   UNL     1       5.224   4.155  16.602  0.00  0.00    +0.000 A 
ATOM      6  C   UNL     1       5.898   5.018  17.487  0.00  0.00    +0.000 A 
ATOM      7  C   UNL     1       5.380   4.708  18.832  0.00  0.00    +0.000 C 
ATOM      8  O   UNL     1       5.771   5.226  19.862  0.00  0.00    +0.000 OA
ATOM      9  N   UNL     1       4.389   3.739  18.701  0.00  0.00    +0.000 N 
ATOM     10  C   UNL     1       4.240   3.296  17.330  0.00  0.00    +0.000 C 
ENDROOT
BRANCH   9  11
ATOM     11  C   UNL     1       3.591   3.246  19.833  0.00  0.00    +0.000 C 
ATOM     12  C   UNL     1       2.717   4.305  20.532  0.00  0.00    +0.000 C 
ATOM     13  C   UNL     1       1.328   4.509  19.924  0.00  0.00    +0.000 C 
ATOM     14  C   UNL     1       0.604   3.189  19.695  0.00  0.00    +0.000 C 
ATOM     15  C   UNL     1       1.445   2.252  18.838  0.00  0.00    +0.000 C 
ATOM     16  C   UNL     1       2.797   1.976  19.487  0.00  0.00    +0.000 C 
ENDBRANCH   9  11
BRANCH   1  18
ATOM     17  N   UNL     1       7.481   8.329  17.410  0.00  0.00    +0.000 N 
ATOM     18  C   UNL     1       7.567   7.002  17.781  0.00  0.00    +0.000 C 
ATOM     19  O   UNL     1       8.217   6.604  18.748  0.00  0.00    +0.000 OA
ATOM     20  H   UNL     1       6.816   8.598  16.685  0.00  0.00    +0.000 HD
BRANCH  17  25
ATOM     21  C   UNL     1       8.758  11.773  18.029  0.00  0.00    +0.000 A 
ATOM     22  C   UNL     1       9.552  11.579  19.165  0.00  0.00    +0.000 A 
ATOM     23  C   UNL     1       9.684  10.311  19.714  0.00  0.00    +0.000 A 
ATOM     24  C   UNL     1       9.015   9.229  19.140  0.00  0.00    +0.000 A 
ATOM     25  C   UNL     1       8.193   9.396  18.020  0.00  0.00    +0.000 A 
ATOM     26  C   UNL     1       8.085  10.675  17.459  0.00  0.00    +0.000 A 
BRANCH  21  28
ATOM     27  C   UNL     1       9.833  14.014  17.863  0.00  0.00    +0.000 C 
ATOM     28  C   UNL     1       8.683  13.136  17.392  0.00  0.00    +0.000 C 
ENDBRANCH  21  28
ENDBRANCH  17  25
ENDBRANCH   1  18
TORSDOF 4
ENDMDL
MODEL 2
REMARK VINA RESULT:      -8.9      3.891      7.234
REMARK  Name = 
REMARK  5 active torsions:
REMARK  status: ('A' for Active; 'I' for Inactive)
REMARK    1  A    between atoms: C_1  and  C_2
REMARK    2  A    between atoms: C_2  and  C_3
REMARK    3  A    between atoms: C_7  and  N_8
REMARK    4  A    between atoms: C_9  and  C_11
REMARK    5  A    between atoms: N_19  and  C_20
REMARK                            x       y       z     vdW  Elec       q    Type
REMARK                         _______ _______ _______ _____ _____    ______ ____
ROOT
ATOM      1  C   UNL     1       2.160   5.111  20.464  0.00  0.00    +0.000 A 
ATOM      2  C   UNL     1       1.950   3.954  21.256  0.00  0.00    +0.000 A 
ATOM      3  C   UNL     1       2.769   2.821  21.175  0.00  0.00    +0.000 A 
ATOM      4  C   UNL     1       3.836   2.802  20.294  0.00  0.00    +0.000 A 
ATOM      5  C   UNL     1       4.052   3.918  19.497  0.00  0.00    +0.000 A 
ATOM      6  C   UNL     1       3.222   5.052  19.570  0.00  0.00    +0.000 A 
ATOM      7  C   UNL     1       3.765   6.017  18.597  0.00  0.00    +0.000 C 
ATOM      8  O   UNL     1       3.273   7.102  18.347  0.00  0.00    +0.000 OA
ATOM      9  N   UNL     1       4.914   5.466  18.036  0.00  0.00    +0.000 N 
ATOM     10  C   UNL     1       5.160   4.120  18.513  0.00  0.00    +0.000 C 
ENDROOT
BRANCH   9  11
ATOM     11  C   UNL     1       5.768   6.185  17.080  0.00  0.00    +0.000 C 
ATOM     12  C   UNL     1       7.248   5.756  17.068  0.00  0.00    +0.000 C 
ATOM     13  C   UNL     1       7.579   4.581  16.145  0.00  0.00    +0.000 C 
ATOM     14  C   UNL     1       6.996   4.767  14.750  0.00  0.00    +0.000 C 
ATOM     15  C   UNL     1       5.493   5.003  14.819  0.00  0.00    +0.000 C 
ATOM     16  C   UNL     1       5.165   6.228  15.666  0.00  0.00    +0.000 C 
ENDBRANCH   9  11
BRANCH   1  18
ATOM     17  N   UNL     1       1.714   7.517  20.975  0.00  0.00    +0.000 N 
ATOM     18  C   UNL     1       1.225   6.245  20.751  0.00  0.00    +0.000 C 
ATOM     19  O   UNL     1       0.025   5.967  20.741  0.00  0.00    +0.000 OA
ATOM     20  H   UNL     1       2.708   7.697  20.832  0.00  0.00    +0.000 HD
BRANCH  17  25
ATOM     21  C   UNL     1      -0.334  10.600  20.553  0.00  0.00    +0.000 A 
ATOM     22  C   UNL     1      -0.660  10.905  21.880  0.00  0.00    +0.000 A 
ATOM     23  C   UNL     1      -0.188  10.107  22.913  0.00  0.00    +0.000 A 
ATOM     24  C   UNL     1       0.604   8.993  22.630  0.00  0.00    +0.000 A 
ATOM     25  C   UNL     1       0.925   8.648  21.313  0.00  0.00    +0.000 A 
ATOM     26  C   UNL     1       0.463   9.472  20.278  0.00  0.00    +0.000 A 
BRANCH  21  28
ATOM     27  C   UNL     1      -1.472  10.724  18.340  0.00  0.00    +0.000 C 
ATOM     28  C   UNL     1      -0.782  11.514  19.443  0.00  0.00    +0.000 C 
ENDBRANCH  21  28
ENDBRANCH  17  25
ENDBRANCH   1  18
TORSDOF 4
ENDMDL
MODEL 3
REMARK VINA RESULT:      -8.9      0.808      1.295
REMARK  Name = 
REMARK  5 active torsions:
REMARK  status: ('A' for Active; 'I' for Inactive)
REMARK    1  A    between atoms: C_1  and  C_2
REMARK    2  A    between atoms: C_2  and  C_3
REMARK    3  A    between atoms: C_7  and  N_8
REMARK    4  A    between atoms: C_9  and  C_11
REMARK    5  A    between atoms: N_19  and  C_20
REMARK                            x       y       z     vdW  Elec       q    Type
REMARK                         _______ _______ _______ _____ _____    ______ ____
ROOT
ATOM      1  C   UNL     1       6.742   5.861  17.074  0.00  0.00    +0.000 A 
ATOM      2  C   UNL     1       7.414   5.409  15.912  0.00  0.00    +0.000 A 
ATOM      3  C   UNL     1       6.866   4.458  15.041  0.00  0.00    +0.000 A 
ATOM      4  C   UNL     1       5.617   3.921  15.302  0.00  0.00    +0.000 A 
ATOM      5  C   UNL     1       4.947   4.338  16.444  0.00  0.00    +0.000 A 
ATOM      6  C   UNL     1       5.502   5.285  17.325  0.00  0.00    +0.000 A 
ATOM      7  C   UNL     1       4.507   5.478  18.395  0.00  0.00    +0.000 C 
ATOM      8  O   UNL     1       4.663   6.194  19.367  0.00  0.00    +0.000 OA
ATOM      9  N   UNL     1       3.388   4.707  18.090  0.00  0.00    +0.000 N 
ATOM     10  C   UNL     1       3.583   3.918  16.891  0.00  0.00    +0.000 C 
ENDROOT
BRANCH   9  11
ATOM     11  C   UNL     1       2.160   4.716  18.898  0.00  0.00    +0.000 C 
ATOM     12  C   UNL     1       1.110   3.657  18.509  0.00  0.00    +0.000 C 
ATOM     13  C   UNL     1       1.282   2.293  19.180  0.00  0.00    +0.000 C 
ATOM     14  C   UNL     1       1.483   2.415  20.684  0.00  0.00    +0.000 C 
ATOM     15  C   UNL     1       2.658   3.332  21.000  0.00  0.00    +0.000 C 
ATOM     16  C   UNL     1       2.447   4.721  20.408  0.00  0.00    +0.000 C 
ENDBRANCH   9  11
BRANCH   1  18
ATOM     17  N   UNL     1       7.467   8.235  17.367  0.00  0.00    +0.000 N 
ATOM     18  C   UNL     1       7.458   6.936  17.833  0.00  0.00    +0.000 C 
ATOM     19  O   UNL     1       7.991   6.585  18.886  0.00  0.00    +0.000 OA
ATOM     20  H   UNL     1       6.889   8.477  16.562  0.00  0.00    +0.000 HD
BRANCH  17  25
ATOM     21  C   UNL     1       8.659  11.708  17.995  0.00  0.00    +0.000 A 
ATOM     22  C   UNL     1       9.482  11.526  19.113  0.00  0.00    +0.000 A 
ATOM     23  C   UNL     1       9.660  10.257  19.646  0.00  0.00    +0.000 A 
ATOM     24  C   UNL     1       9.010   9.162  19.075  0.00  0.00    +0.000 A 
ATOM     25  C   UNL     1       8.161   9.316  17.973  0.00  0.00    +0.000 A 
ATOM     26  C   UNL     1       8.006  10.597  17.428  0.00  0.00    +0.000 A 
BRANCH  21  28
ATOM     27  C   UNL     1       9.385  14.088  18.123  0.00  0.00    +0.000 C 
ATOM     28  C   UNL     1       8.533  13.074  17.374  0.00  0.00    +0.000 C 
ENDBRANCH  21  28
ENDBRANCH  17  25
ENDBRANCH   1  18
TORSDOF 4
ENDMDL
MODEL 4
REMARK VINA RESULT:      -8.7      4.738      7.372
REMARK  Name = 
REMARK  5 active torsions:
REMARK  status: ('A' for Active; 'I' for Inactive)
REMARK    1  A    between atoms: C_1  and  C_2
REMARK    2  A    between atoms: C_2  and  C_3
REMARK    3  A    between atoms: C_7  and  N_8
REMARK    4  A    between atoms: C_9  and  C_11
REMARK    5  A    between atoms: N_19  and  C_20
REMARK                            x       y       z     vdW  Elec       q    Type
REMARK                         _______ _______ _______ _____ _____    ______ ____
ROOT
ATOM      1  C   UNL     1       1.998   6.822  20.023  0.00  0.00    +0.000 A 
ATOM      2  C   UNL     1       1.509   5.889  20.970  0.00  0.00    +0.000 A 
ATOM      3  C   UNL     1       2.006   4.584  21.075  0.00  0.00    +0.000 A 
ATOM      4  C   UNL     1       3.018   4.160  20.230  0.00  0.00    +0.000 A 
ATOM      5  C   UNL     1       3.502   5.053  19.284  0.00  0.00    +0.000 A 
ATOM      6  C   UNL     1       2.995   6.360  19.171  0.00  0.00    +0.000 A 
ATOM      7  C   UNL     1       3.752   6.999  18.080  0.00  0.00    +0.000 C 
ATOM      8  O   UNL     1       3.554   8.125  17.663  0.00  0.00    +0.000 OA
ATOM      9  N   UNL     1       4.711   6.093  17.632  0.00  0.00    +0.000 N 
ATOM     10  C   UNL     1       4.609   4.816  18.307  0.00  0.00    +0.000 C 
ENDROOT
BRANCH   9  11
ATOM     11  C   UNL     1       5.707   6.420  16.601  0.00  0.00    +0.000 C 
ATOM     12  C   UNL     1       7.124   5.873  16.859  0.00  0.00    +0.000 C 
ATOM     13  C   UNL     1       7.378   4.454  16.346  0.00  0.00    +0.000 C 
ATOM     14  C   UNL     1       6.918   4.275  14.905  0.00  0.00    +0.000 C 
ATOM     15  C   UNL     1       5.452   4.657  14.754  0.00  0.00    +0.000 C 
ATOM     16  C   UNL     1       5.212   6.101  15.180  0.00  0.00    +0.000 C 
ENDBRANCH   9  11
BRANCH   1  18
ATOM     17  N   UNL     1       1.075   8.897  18.977  0.00  0.00    +0.000 N 
ATOM     18  C   UNL     1       1.392   8.188  20.119  0.00  0.00    +0.000 C 
ATOM     19  O   UNL     1       1.177   8.600  21.259  0.00  0.00    +0.000 OA
ATOM     20  H   UNL     1       1.155   8.436  18.071  0.00  0.00    +0.000 HD
BRANCH  17  25
ATOM     21  C   UNL     1      -1.409  11.672  18.909  0.00  0.00    +0.000 A 
ATOM     22  C   UNL     1      -0.575  12.797  18.920  0.00  0.00    +0.000 A 
ATOM     23  C   UNL     1       0.804  12.640  18.929  0.00  0.00    +0.000 A 
ATOM     24  C   UNL     1       1.362  11.361  18.938  0.00  0.00    +0.000 A 
ATOM     25  C   UNL     1       0.555  10.218  18.953  0.00  0.00    +0.000 A 
ATOM     26  C   UNL     1      -0.836  10.386  18.920  0.00  0.00    +0.000 A 
BRANCH  21  28
ATOM     27  C   UNL     1      -3.464  11.079  17.632  0.00  0.00    +0.000 C 
ATOM     28  C   UNL     1      -2.902  11.848  18.818  0.00  0.00    +0.000 C 
ENDBRANCH  21  28
ENDBRANCH  17  25
ENDBRANCH   1  18
TORSDOF 4
ENDMDL
MODEL 5
REMARK VINA RESULT:      -8.6      4.604      6.811
REMARK  Name = 
REMARK  5 active torsions:
REMARK  status: ('A' for Active; 'I' for Inactive)
REMARK    1  A    between atoms: C_1  and  C_2
REMARK    2  A    between atoms: C_2  and  C_3
REMARK    3  A    between atoms: C_7  and  N_8
REMARK    4  A    between atoms: C_9  and  C_11
REMARK    5  A    between atoms: N_19  and  C_20
REMARK                            x       y       z     vdW  Elec       q    Type
REMARK                         _______ _______ _______ _____ _____    ______ ____
ROOT
ATOM      1  C   UNL     1       1.981   6.864  20.061  0.00  0.00    +0.000 A 
ATOM      2  C   UNL     1       1.464   5.915  20.978  0.00  0.00    +0.000 A 
ATOM      3  C   UNL     1       1.912   4.589  21.029  0.00  0.00    +0.000 A 
ATOM      4  C   UNL     1       2.901   4.160  20.160  0.00  0.00    +0.000 A 
ATOM      5  C   UNL     1       3.410   5.069  19.243  0.00  0.00    +0.000 A 
ATOM      6  C   UNL     1       2.953   6.398  19.184  0.00  0.00    +0.000 A 
ATOM      7  C   UNL     1       3.725   7.048  18.110  0.00  0.00    +0.000 C 
ATOM      8  O   UNL     1       3.566   8.196  17.738  0.00  0.00    +0.000 OA
ATOM      9  N   UNL     1       4.646   6.125  17.620  0.00  0.00    +0.000 N 
ATOM     10  C   UNL     1       4.500   4.827  18.248  0.00  0.00    +0.000 C 
ENDROOT
BRANCH   9  11
ATOM     11  C   UNL     1       5.645   6.452  16.593  0.00  0.00    +0.000 C 
ATOM     12  C   UNL     1       7.076   5.963  16.889  0.00  0.00    +0.000 C 
ATOM     13  C   UNL     1       7.387   4.538  16.427  0.00  0.00    +0.000 C 
ATOM     14  C   UNL     1       6.955   4.296  14.987  0.00  0.00    +0.000 C 
ATOM     15  C   UNL     1       5.479   4.621  14.802  0.00  0.00    +0.000 C 
ATOM     16  C   UNL     1       5.183   6.070  15.177  0.00  0.00    +0.000 C 
ENDBRANCH   9  11
BRANCH   1  18
ATOM     17  N   UNL     1       1.037   8.973  19.106  0.00  0.00    +0.000 N 
ATOM     18  C   UNL     1       1.428   8.248  20.215  0.00  0.00    +0.000 C 
ATOM     19  O   UNL     1       1.324   8.659  21.370  0.00  0.00    +0.000 OA
ATOM     20  H   UNL     1       1.025   8.516  18.195  0.00  0.00    +0.000 HD
BRANCH  17  25
ATOM     21  C   UNL     1       1.034  12.689  18.845  0.00  0.00    +0.000 A 
ATOM     22  C   UNL     1      -0.301  12.991  19.139  0.00  0.00    +0.000 A 
ATOM     23  C   UNL     1      -1.194  11.972  19.444  0.00  0.00    +0.000 A 
ATOM     24  C   UNL     1      -0.765  10.644  19.447  0.00  0.00    +0.000 A 
ATOM     25  C   UNL     1       0.557  10.309  19.131  0.00  0.00    +0.000 A 
ATOM     26  C   UNL     1       1.457  11.346  18.848  0.00  0.00    +0.000 A 
BRANCH  21  28
ATOM     27  C   UNL     1       1.358  15.158  18.813  0.00  0.00    +0.000 C 
ATOM     28  C   UNL     1       2.015  13.803  18.594  0.00  0.00    +0.000 C 
ENDBRANCH  21  28
ENDBRANCH  17  25
ENDBRANCH   1  18
TORSDOF 4
ENDMDL
MODEL 6
REMARK VINA RESULT:      -8.6      4.322      7.001
REMARK  Name = 
REMARK  5 active torsions:
REMARK  status: ('A' for Active; 'I' for Inactive)
REMARK    1  A    between atoms: C_1  and  C_2
REMARK    2  A    between atoms: C_2  and  C_3
REMARK    3  A    between atoms: C_7  and  N_8
REMARK    4  A    between atoms: C_9  and  C_11
REMARK    5  A    between atoms: N_19  and  C_20
REMARK                            x       y       z     vdW  Elec       q    Type
REMARK                         _______ _______ _______ _____ _____    ______ ____
ROOT
ATOM      1  C   UNL     1       3.733   4.558  18.706  0.00  0.00    +0.000 A 
ATOM      2  C   UNL     1       3.370   3.329  19.312  0.00  0.00    +0.000 A 
ATOM      3  C   UNL     1       2.359   3.229  20.276  0.00  0.00    +0.000 A 
ATOM      4  C   UNL     1       1.669   4.361  20.673  0.00  0.00    +0.000 A 
ATOM      5  C   UNL     1       2.018   5.579  20.104  0.00  0.00    +0.000 A 
ATOM      6  C   UNL     1       3.041   5.681  19.144  0.00  0.00    +0.000 A 
ATOM      7  C   UNL     1       3.111   7.106  18.774  0.00  0.00    +0.000 C 
ATOM      8  O   UNL     1       3.919   7.582  17.997  0.00  0.00    +0.000 OA
ATOM      9  N   UNL     1       2.106   7.781  19.460  0.00  0.00    +0.000 N 
ATOM     10  C   UNL     1       1.381   6.907  20.359  0.00  0.00    +0.000 C 
ENDROOT
BRANCH   9  11
ATOM     11  C   UNL     1       1.824   9.212  19.272  0.00  0.00    +0.000 C 
ATOM     12  C   UNL     1       1.194   9.585  17.916  0.00  0.00    +0.000 C 
ATOM     13  C   UNL     1      -0.333   9.500  17.861  0.00  0.00    +0.000 C 
ATOM     14  C   UNL     1      -0.989  10.203  19.042  0.00  0.00    +0.000 C 
ATOM     15  C   UNL     1      -0.458   9.656  20.360  0.00  0.00    +0.000 C 
ATOM     16  C   UNL     1       1.055   9.822  20.456  0.00  0.00    +0.000 C 
ENDBRANCH   9  11
BRANCH   1  18
ATOM     17  N   UNL     1       4.503   4.809  16.341  0.00  0.00    +0.000 N 
ATOM     18  C   UNL     1       4.783   4.446  17.644  0.00  0.00    +0.000 C 
ATOM     19  O   UNL     1       5.886   4.048  18.019  0.00  0.00    +0.000 OA
ATOM     20  H   UNL     1       3.611   5.258  16.133  0.00  0.00    +0.000 HD
BRANCH  17  25
ATOM     21  C   UNL     1       5.869   3.741  13.045  0.00  0.00    +0.000 A 
ATOM     22  C   UNL     1       7.105   4.398  13.025  0.00  0.00    +0.000 A 
ATOM     23  C   UNL     1       7.496   5.176  14.107  0.00  0.00    +0.000 A 
ATOM     24  C   UNL     1       6.653   5.312  15.211  0.00  0.00    +0.000 A 
ATOM     25  C   UNL     1       5.401   4.688  15.248  0.00  0.00    +0.000 A 
ATOM     26  C   UNL     1       5.025   3.887  14.162  0.00  0.00    +0.000 A 
BRANCH  21  28
ATOM     27  C   UNL     1       4.145   3.249  11.314  0.00  0.00    +0.000 C 
ATOM     28  C   UNL     1       5.486   2.835  11.904  0.00  0.00    +0.000 C 
ENDBRANCH  21  28
ENDBRANCH  17  25
ENDBRANCH   1  18
TORSDOF 4
ENDMDL
MODEL 7
REMARK VINA RESULT:      -8.5      3.253      6.677
REMARK  Name = 
REMARK  5 active torsions:
REMARK  status: ('A' for Active; 'I' for Inactive)
REMARK    1  A    between atoms: C_1  and  C_2
REMARK    2  A    between atoms: C_2  and  C_3
REMARK    3  A    between atoms: C_7  and  N_8
REMARK    4  A    between atoms: C_9  and  C_11
REMARK    5  A    between atoms: N_19  and  C_20
REMARK                            x       y       z     vdW  Elec       q    Type
REMARK                         _______ _______ _______ _____ _____    ______ ____
ROOT
ATOM      1  C   UNL     1       6.719   5.311  16.675  0.00  0.00    +0.000 A 
ATOM      2  C   UNL     1       7.688   6.266  17.074  0.00  0.00    +0.000 A 
ATOM      3  C   UNL     1       7.859   6.660  18.406  0.00  0.00    +0.000 A 
ATOM      4  C   UNL     1       7.064   6.111  19.397  0.00  0.00    +0.000 A 
ATOM      5  C   UNL     1       6.098   5.185  19.028  0.00  0.00    +0.000 A 
ATOM      6  C   UNL     1       5.918   4.797  17.688  0.00  0.00    +0.000 A 
ATOM      7  C   UNL     1       4.827   3.806  17.693  0.00  0.00    +0.000 C 
ATOM      8  O   UNL     1       4.360   3.282  16.699  0.00  0.00    +0.000 OA
ATOM      9  N   UNL     1       4.445   3.591  19.015  0.00  0.00    +0.000 N 
ATOM     10  C   UNL     1       5.167   4.446  19.935  0.00  0.00    +0.000 C 
ENDROOT
BRANCH   9  11
ATOM     11  C   UNL     1       3.433   2.600  19.409  0.00  0.00    +0.000 C 
ATOM     12  C   UNL     1       3.013   2.644  20.891  0.00  0.00    +0.000 C 
ATOM     13  C   UNL     1       1.876   3.613  21.218  0.00  0.00    +0.000 C 
ATOM     14  C   UNL     1       0.699   3.458  20.265  0.00  0.00    +0.000 C 
ATOM     15  C   UNL     1       1.150   3.612  18.819  0.00  0.00    +0.000 C 
ATOM     16  C   UNL     1       2.221   2.585  18.464  0.00  0.00    +0.000 C 
ENDBRANCH   9  11
BRANCH   1  18
ATOM     17  N   UNL     1       5.838   4.062  14.697  0.00  0.00    +0.000 N 
ATOM     18  C   UNL     1       6.743   4.966  15.218  0.00  0.00    +0.000 C 
ATOM     19  O   UNL     1       7.584   5.557  14.540  0.00  0.00    +0.000 OA
ATOM     20  H   UNL     1       5.085   3.718  15.292  0.00  0.00    +0.000 HD
BRANCH  17  25
ATOM     21  C   UNL     1       4.490   3.174  11.340  0.00  0.00    +0.000 A 
ATOM     22  C   UNL     1       5.651   2.774  10.667  0.00  0.00    +0.000 A 
ATOM     23  C   UNL     1       6.873   2.778  11.325  0.00  0.00    +0.000 A 
ATOM     24  C   UNL     1       6.948   3.191  12.656  0.00  0.00    +0.000 A 
ATOM     25  C   UNL     1       5.810   3.620  13.348  0.00  0.00    +0.000 A 
ATOM     26  C   UNL     1       4.577   3.591  12.682  0.00  0.00    +0.000 A 
BRANCH  21  28
ATOM     27  C   UNL     1       3.036   4.173   9.581  0.00  0.00    +0.000 C 
ATOM     28  C   UNL     1       3.157   3.091  10.645  0.00  0.00    +0.000 C 
ENDBRANCH  21  28
ENDBRANCH  17  25
ENDBRANCH   1  18
TORSDOF 4
ENDMDL
MODEL 8
REMARK VINA RESULT:      -8.3      4.180      7.190
REMARK  Name = 
REMARK  5 active torsions:
REMARK  status: ('A' for Active; 'I' for Inactive)
REMARK    1  A    between atoms: C_1  and  C_2
REMARK    2  A    between atoms: C_2  and  C_3
REMARK    3  A    between atoms: C_7  and  N_8
REMARK    4  A    between atoms: C_9  and  C_11
REMARK    5  A    between atoms: N_19  and  C_20
REMARK                            x       y       z     vdW  Elec       q    Type
REMARK                         _______ _______ _______ _____ _____    ______ ____
ROOT
ATOM      1  C   UNL     1       4.058   5.223  18.523  0.00  0.00    +0.000 A 
ATOM      2  C   UNL     1       3.927   4.218  19.514  0.00  0.00    +0.000 A 
ATOM      3  C   UNL     1       3.008   4.310  20.568  0.00  0.00    +0.000 A 
ATOM      4  C   UNL     1       2.181   5.414  20.669  0.00  0.00    +0.000 A 
ATOM      5  C   UNL     1       2.302   6.418  19.718  0.00  0.00    +0.000 A 
ATOM      6  C   UNL     1       3.232   6.332  18.666  0.00  0.00    +0.000 A 
ATOM      7  C   UNL     1       3.060   7.559  17.868  0.00  0.00    +0.000 C 
ATOM      8  O   UNL     1       3.733   7.857  16.899  0.00  0.00    +0.000 OA
ATOM      9  N   UNL     1       2.010   8.289  18.420  0.00  0.00    +0.000 N 
ATOM     10  C   UNL     1       1.488   7.667  19.619  0.00  0.00    +0.000 C 
ENDROOT
BRANCH   9  11
ATOM     11  C   UNL     1       1.501   9.537  17.832  0.00  0.00    +0.000 C 
ATOM     12  C   UNL     1      -0.032   9.624  17.700  0.00  0.00    +0.000 C 
ATOM     13  C   UNL     1      -0.762  10.163  18.932  0.00  0.00    +0.000 C 
ATOM     14  C   UNL     1      -0.130  11.445  19.458  0.00  0.00    +0.000 C 
ATOM     15  C   UNL     1       1.351  11.239  19.746  0.00  0.00    +0.000 C 
ATOM     16  C   UNL     1       2.099  10.789  18.495  0.00  0.00    +0.000 C 
ENDBRANCH   9  11
BRANCH   1  18
ATOM     17  N   UNL     1       4.770   5.247  16.127  0.00  0.00    +0.000 N 
ATOM     18  C   UNL     1       5.040   4.906  17.438  0.00  0.00    +0.000 C 
ATOM     19  O   UNL     1       6.086   4.366  17.801  0.00  0.00    +0.000 OA
ATOM     20  H   UNL     1       3.948   5.813  15.922  0.00  0.00    +0.000 HD
BRANCH  17  25
ATOM     21  C   UNL     1       5.896   3.718  12.922  0.00  0.00    +0.000 A 
ATOM     22  C   UNL     1       7.165   4.289  12.768  0.00  0.00    +0.000 A 
ATOM     23  C   UNL     1       7.658   5.160  13.730  0.00  0.00    +0.000 A 
ATOM     24  C   UNL     1       6.883   5.477  14.847  0.00  0.00    +0.000 A 
ATOM     25  C   UNL     1       5.601   4.942  15.016  0.00  0.00    +0.000 A 
ATOM     26  C   UNL     1       5.122   4.046  14.051  0.00  0.00    +0.000 A 
BRANCH  21  28
ATOM     27  C   UNL     1       4.111   3.191  11.266  0.00  0.00    +0.000 C 
ATOM     28  C   UNL     1       5.401   2.713  11.915  0.00  0.00    +0.000 C 
ENDBRANCH  21  28
ENDBRANCH  17  25
ENDBRANCH   1  18
TORSDOF 4
ENDMDL
MODEL 9
REMARK VINA RESULT:      -8.2      3.849      6.984
REMARK  Name = 
REMARK  5 active torsions:
REMARK  status: ('A' for Active; 'I' for Inactive)
REMARK    1  A    between atoms: C_1  and  C_2
REMARK    2  A    between atoms: C_2  and  C_3
REMARK    3  A    between atoms: C_7  and  N_8
REMARK    4  A    between atoms: C_9  and  C_11
REMARK    5  A    between atoms: N_19  and  C_20
REMARK                            x       y       z     vdW  Elec       q    Type
REMARK                         _______ _______ _______ _____ _____    ______ ____
ROOT
ATOM      1  C   UNL     1       6.084   4.473  16.665  0.00  0.00    +0.000 A 
ATOM      2  C   UNL     1       7.400   4.943  16.899  0.00  0.00    +0.000 A 
ATOM      3  C   UNL     1       7.754   5.665  18.046  0.00  0.00    +0.000 A 
ATOM      4  C   UNL     1       6.800   5.944  19.008  0.00  0.00    +0.000 A 
ATOM      5  C   UNL     1       5.500   5.507  18.793  0.00  0.00    +0.000 A 
ATOM      6  C   UNL     1       5.141   4.792  17.636  0.00  0.00    +0.000 A 
ATOM      7  C   UNL     1       3.704   4.496  17.769  0.00  0.00    +0.000 C 
ATOM      8  O   UNL     1       3.031   3.928  16.928  0.00  0.00    +0.000 OA
ATOM      9  N   UNL     1       3.276   4.975  19.004  0.00  0.00    +0.000 N 
ATOM     10  C   UNL     1       4.333   5.667  19.714  0.00  0.00    +0.000 C 
ENDROOT
BRANCH   9  11
ATOM     11  C   UNL     1       1.911   4.783  19.514  0.00  0.00    +0.000 C 
ATOM     12  C   UNL     1       1.200   3.506  19.024  0.00  0.00    +0.000 C 
ATOM     13  C   UNL     1       1.457   2.253  19.864  0.00  0.00    +0.000 C 
ATOM     14  C   UNL     1       1.266   2.514  21.353  0.00  0.00    +0.000 C 
ATOM     15  C   UNL     1       2.139   3.672  21.816  0.00  0.00    +0.000 C 
ATOM     16  C   UNL     1       1.821   4.946  21.040  0.00  0.00    +0.000 C 
ENDBRANCH   9  11
BRANCH   1  18
ATOM     17  N   UNL     1       6.090   4.234  14.177  0.00  0.00    +0.000 N 
ATOM     18  C   UNL     1       5.923   3.656  15.420  0.00  0.00    +0.000 C 
ATOM     19  O   UNL     1       5.671   2.463  15.590  0.00  0.00    +0.000 OA
ATOM     20  H   UNL     1       6.432   5.193  14.119  0.00  0.00    +0.000 HD
BRANCH  17  25
ATOM     21  C   UNL     1       4.411   3.029  11.078  0.00  0.00    +0.000 A 
ATOM     22  C   UNL     1       5.439   2.303  10.465  0.00  0.00    +0.000 A 
ATOM     23  C   UNL     1       6.678   2.193  11.083  0.00  0.00    +0.000 A 
ATOM     24  C   UNL     1       6.903   2.816  12.311  0.00  0.00    +0.000 A 
ATOM     25  C   UNL     1       5.903   3.570  12.936  0.00  0.00    +0.000 A 
ATOM     26  C   UNL     1       4.650   3.656  12.316  0.00  0.00    +0.000 A 
BRANCH  21  28
ATOM     27  C   UNL     1       2.941   4.255   9.484  0.00  0.00    +0.000 C 
ATOM     28  C   UNL     1       3.047   3.077  10.441  0.00  0.00    +0.000 C 
ENDBRANCH  21  28
ENDBRANCH  17  25
ENDBRANCH   1  18
TORSDOF 4
ENDMDL
