MODEL 1
REMARK VINA RESULT:      -8.1      0.000      0.000
REMARK  Name = 
REMARK  11 active torsions:
REMARK  status: ('A' for Active; 'I' for Inactive)
REMARK    1  A    between atoms: C_1  and  C_2
REMARK    2  A    between atoms: C_2  and  C_3
REMARK    3  A    between atoms: C_2  and  N_4
REMARK    4  A    between atoms: C_5  and  C_7
REMARK    5  A    between atoms: C_7  and  N_8
REMARK    6  A    between atoms: N_8  and  C_9
REMARK    7  A    between atoms: C_15  and  C_16
REMARK    8  A    between atoms: N_23  and  C_24
REMARK    9  A    between atoms: C_26  and  C_27
REMARK   10  A    between atoms: C_28  and  O_29
REMARK   11  A    between atoms: C_30  and  O_31
REMARK                            x       y       z     vdW  Elec       q    Type
REMARK                         _______ _______ _______ _____ _____    ______ ____
ROOT
ATOM      1  C   UNL     1       2.723   7.640  17.992  0.00  0.00    +0.000 A 
ATOM      2  N   UNL     1       2.770   8.830  17.356  0.00  0.00    +0.000 NA
ATOM      3  C   UNL     1       2.140   9.883  17.911  0.00  0.00    +0.000 A 
ATOM      4  N   UNL     1       1.435   9.919  19.053  0.00  0.00    +0.000 NA
ATOM      5  C   UNL     1       1.437   8.728  19.678  0.00  0.00    +0.000 A 
ATOM      6  C   UNL     1       2.081   7.572  19.247  0.00  0.00    +0.000 A 
ATOM      7  C   UNL     1       1.851   6.572  20.257  0.00  0.00    +0.000 A 
ATOM      8  C   UNL     1       1.066   7.159  21.233  0.00  0.00    +0.000 A 
ATOM      9  N   UNL     1       0.751   8.434  20.830  0.00  0.00    +0.000 N 
ENDROOT
BRANCH   7  10
ATOM     10  C   UNL     1       2.245   5.171  20.319  0.00  0.00    +0.000 A 
ATOM     11  C   UNL     1       3.534   4.764  19.964  0.00  0.00    +0.000 A 
ATOM     12  C   UNL     1       3.859   3.409  19.878  0.00  0.00    +0.000 A 
ATOM     13  C   UNL     1       2.914   2.445  20.222  0.00  0.00    +0.000 A 
ATOM     14  C   UNL     1       1.651   2.837  20.652  0.00  0.00    +0.000 A 
ATOM     15  C   UNL     1       1.315   4.192  20.696  0.00  0.00    +0.000 A 
ENDBRANCH   7  10
BRANCH   9  16
ATOM     16  C   UNL     1      -0.253   9.293  21.442  0.00  0.00    +0.000 C 
ATOM     17  O   UNL     1      -0.844  10.155  20.426  0.00  0.00    +0.000 OA
ATOM     18  C   UNL     1      -0.895  11.509  20.926  0.00  0.00    +0.000 C 
ATOM     19  C   UNL     1       0.091  12.375  20.153  0.00  0.00    +0.000 C 
ATOM     20  C   UNL     1      -0.582  11.426  22.416  0.00  0.00    +0.000 C 
ATOM     21  C   UNL     1       0.343  10.225  22.504  0.00  0.00    +0.000 C 
BRANCH  20  22
ATOM     22  O   UNL     1      -1.766  11.139  23.184  0.00  0.00    +0.000 OA
ATOM     23  H   UNL     1      -2.163  10.312  22.851  0.00  0.00    +0.000 HD
ENDBRANCH  20  22
BRANCH  21  24
ATOM     24  O   UNL     1       0.356   9.685  23.822  0.00  0.00    +0.000 OA
ATOM     25  H   UNL     1       1.108   9.058  23.853  0.00  0.00    +0.000 HD
ENDBRANCH  21  24
ENDBRANCH   9  16
BRANCH   1  26
ATOM     26  N   UNL     1       3.360   6.524  17.423  0.00  0.00    +0.000 N 
ATOM     27  H   UNL     1       3.567   5.927  18.222  0.00  0.00    +0.000 HD
BRANCH  26  28
ATOM     28  C   UNL     1       4.659   6.814  16.775  0.00  0.00    +0.000 C 
BRANCH  28  30
ATOM     29  N   UNL     1       5.993   5.743  15.003  0.00  0.00    +0.000 N 
ATOM     30  C   UNL     1       5.378   5.576  16.223  0.00  0.00    +0.000 C 
ATOM     31  O   UNL     1       5.375   4.508  16.833  0.00  0.00    +0.000 OA
ATOM     32  H   UNL     1       5.771   6.605  14.510  0.00  0.00    +0.000 HD
BRANCH  29  34
ATOM     33  C   UNL     1       5.764   3.775  13.559  0.00  0.00    +0.000 C 
ATOM     34  C   UNL     1       6.718   4.683  14.328  0.00  0.00    +0.000 C 
ATOM     35  C   UNL     1       7.771   5.278  13.400  0.00  0.00    +0.000 C 
ENDBRANCH  29  34
ENDBRANCH  28  30
ENDBRANCH  26  28
ENDBRANCH   1  26
TORSDOF 8
ENDMDL
MODEL 2
REMARK VINA RESULT:      -7.8      1.486      7.900
REMARK  Name = 
REMARK  11 active torsions:
REMARK  status: ('A' for Active; 'I' for Inactive)
REMARK    1  A    between atoms: C_1  and  C_2
REMARK    2  A    between atoms: C_2  and  C_3
REMARK    3  A    between atoms: C_2  and  N_4
REMARK    4  A    between atoms: C_5  and  C_7
REMARK    5  A    between atoms: C_7  and  N_8
REMARK    6  A    between atoms: N_8  and  C_9
REMARK    7  A    between atoms: C_15  and  C_16
REMARK    8  A    between atoms: N_23  and  C_24
REMARK    9  A    between atoms: C_26  and  C_27
REMARK   10  A    between atoms: C_28  and  O_29
REMARK   11  A    between atoms: C_30  and  O_31
REMARK                            x       y       z     vdW  Elec       q    Type
REMARK                         _______ _______ _______ _____ _____    ______ ____
ROOT
ATOM      1  C   UNL     1       2.135   7.411  19.240  0.00  0.00    +0.000 A 
ATOM      2  N   UNL     1       2.128   8.673  18.762  0.00  0.00    +0.000 NA
ATOM      3  C   UNL     1       2.890   8.960  17.689  0.00  0.00    +0.000 A 
ATOM      4  N   UNL     1       3.695   8.136  17.000  0.00  0.00    +0.000 NA
ATOM      5  C   UNL     1       3.653   6.880  17.480  0.00  0.00    +0.000 A 
ATOM      6  C   UNL     1       2.880   6.431  18.548  0.00  0.00    +0.000 A 
ATOM      7  C   UNL     1       3.117   5.017  18.661  0.00  0.00    +0.000 A 
ATOM      8  C   UNL     1       4.033   4.682  17.680  0.00  0.00    +0.000 A 
ATOM      9  N   UNL     1       4.413   5.830  17.029  0.00  0.00    +0.000 N 
ENDROOT
BRANCH   7  10
ATOM     10  C   UNL     1       2.617   4.039  19.619  0.00  0.00    +0.000 A 
ATOM     11  C   UNL     1       1.249   3.777  19.741  0.00  0.00    +0.000 A 
ATOM     12  C   UNL     1       0.765   2.958  20.761  0.00  0.00    +0.000 A 
ATOM     13  C   UNL     1       1.656   2.328  21.628  0.00  0.00    +0.000 A 
ATOM     14  C   UNL     1       3.024   2.518  21.471  0.00  0.00    +0.000 A 
ATOM     15  C   UNL     1       3.504   3.373  20.477  0.00  0.00    +0.000 A 
ENDBRANCH   7  10
BRANCH   9  16
ATOM     16  C   UNL     1       5.535   5.952  16.109  0.00  0.00    +0.000 C 
ATOM     17  O   UNL     1       5.059   5.842  14.737  0.00  0.00    +0.000 OA
ATOM     18  C   UNL     1       5.915   4.935  14.010  0.00  0.00    +0.000 C 
ATOM     19  C   UNL     1       5.149   3.659  13.687  0.00  0.00    +0.000 C 
ATOM     20  C   UNL     1       7.133   4.697  14.894  0.00  0.00    +0.000 C 
ATOM     21  C   UNL     1       6.569   4.835  16.297  0.00  0.00    +0.000 C 
BRANCH  20  22
ATOM     22  O   UNL     1       8.126   5.724  14.706  0.00  0.00    +0.000 OA
ATOM     23  H   UNL     1       8.694   5.760  15.499  0.00  0.00    +0.000 HD
ENDBRANCH  20  22
BRANCH  21  24
ATOM     24  O   UNL     1       7.598   5.135  17.236  0.00  0.00    +0.000 OA
ATOM     25  H   UNL     1       8.425   4.769  16.860  0.00  0.00    +0.000 HD
ENDBRANCH  21  24
ENDBRANCH   9  16
BRANCH   1  26
ATOM     26  N   UNL     1       1.360   7.093  20.368  0.00  0.00    +0.000 N 
ATOM     27  H   UNL     1       0.403   7.103  20.018  0.00  0.00    +0.000 HD
BRANCH  26  28
ATOM     28  C   UNL     1       1.413   8.090  21.459  0.00  0.00    +0.000 C 
BRANCH  28  30
ATOM     29  N   UNL     1       0.213  10.205  21.063  0.00  0.00    +0.000 N 
ATOM     30  C   UNL     1       0.142   8.939  21.600  0.00  0.00    +0.000 C 
ATOM     31  O   UNL     1      -0.855   8.509  22.179  0.00  0.00    +0.000 OA
ATOM     32  H   UNL     1       1.139  10.514  20.780  0.00  0.00    +0.000 HD
BRANCH  29  34
ATOM     33  C   UNL     1      -0.525  12.377  21.929  0.00  0.00    +0.000 C 
ATOM     34  C   UNL     1      -0.891  11.147  21.104  0.00  0.00    +0.000 C 
ATOM     35  C   UNL     1      -1.296  11.540  19.688  0.00  0.00    +0.000 C 
ENDBRANCH  29  34
ENDBRANCH  28  30
ENDBRANCH  26  28
ENDBRANCH   1  26
TORSDOF 8
ENDMDL
MODEL 3
REMARK VINA RESULT:      -7.8      1.350      1.920
REMARK  Name = 
REMARK  11 active torsions:
REMARK  status: ('A' for Active; 'I' for Inactive)
REMARK    1  A    between atoms: C_1  and  C_2
REMARK    2  A    between atoms: C_2  and  C_3
REMARK    3  A    between atoms: C_2  and  N_4
REMARK    4  A    between atoms: C_5  and  C_7
REMARK    5  A    between atoms: C_7  and  N_8
REMARK    6  A    between atoms: N_8  and  C_9
REMARK    7  A    between atoms: C_15  and  C_16
REMARK    8  A    between atoms: N_23  and  C_24
REMARK    9  A    between atoms: C_26  and  C_27
REMARK   10  A    between atoms: C_28  and  O_29
REMARK   11  A    between atoms: C_30  and  O_31
REMARK                            x       y       z     vdW  Elec       q    Type
REMARK                         _______ _______ _______ _____ _____    ______ ____
ROOT
ATOM      1  C   UNL     1       2.770   7.594  18.005  0.00  0.00    +0.000 A 
ATOM      2  N   UNL     1       2.816   8.777  17.358  0.00  0.00    +0.000 NA
ATOM      3  C   UNL     1       2.180   9.833  17.898  0.00  0.00    +0.000 A 
ATOM      4  N   UNL     1       1.469   9.879  19.036  0.00  0.00    +0.000 NA
ATOM      5  C   UNL     1       1.471   8.694  19.673  0.00  0.00    +0.000 A 
ATOM      6  C   UNL     1       2.121   7.535  19.257  0.00  0.00    +0.000 A 
ATOM      7  C   UNL     1       1.889   6.545  20.275  0.00  0.00    +0.000 A 
ATOM      8  C   UNL     1       1.096   7.139  21.241  0.00  0.00    +0.000 A 
ATOM      9  N   UNL     1       0.780   8.409  20.824  0.00  0.00    +0.000 N 
ENDROOT
BRANCH   7  10
ATOM     10  C   UNL     1       2.286   5.146  20.354  0.00  0.00    +0.000 A 
ATOM     11  C   UNL     1       3.586   4.742  20.034  0.00  0.00    +0.000 A 
ATOM     12  C   UNL     1       3.919   3.389  19.961  0.00  0.00    +0.000 A 
ATOM     13  C   UNL     1       2.969   2.422  20.285  0.00  0.00    +0.000 A 
ATOM     14  C   UNL     1       1.694   2.811  20.681  0.00  0.00    +0.000 A 
ATOM     15  C   UNL     1       1.351   4.164  20.710  0.00  0.00    +0.000 A 
ENDBRANCH   7  10
BRANCH   9  16
ATOM     16  C   UNL     1      -0.231   9.271  21.422  0.00  0.00    +0.000 C 
ATOM     17  O   UNL     1      -0.794  10.145  20.402  0.00  0.00    +0.000 OA
ATOM     18  C   UNL     1      -0.845  11.495  20.912  0.00  0.00    +0.000 C 
ATOM     19  C   UNL     1       0.164  12.360  20.166  0.00  0.00    +0.000 C 
ATOM     20  C   UNL     1      -0.564  11.398  22.406  0.00  0.00    +0.000 C 
ATOM     21  C   UNL     1       0.350  10.189  22.504  0.00  0.00    +0.000 C 
BRANCH  20  22
ATOM     22  O   UNL     1      -1.766  11.114  23.147  0.00  0.00    +0.000 OA
ATOM     23  H   UNL     1      -1.547  11.075  24.098  0.00  0.00    +0.000 HD
ENDBRANCH  20  22
BRANCH  21  24
ATOM     24  O   UNL     1       0.331   9.638  23.818  0.00  0.00    +0.000 OA
ATOM     25  H   UNL     1       0.503  10.384  24.429  0.00  0.00    +0.000 HD
ENDBRANCH  21  24
ENDBRANCH   9  16
BRANCH   1  26
ATOM     26  N   UNL     1       3.414   6.474  17.451  0.00  0.00    +0.000 N 
ATOM     27  H   UNL     1       4.086   6.201  18.165  0.00  0.00    +0.000 HD
BRANCH  26  28
ATOM     28  C   UNL     1       4.199   6.752  16.228  0.00  0.00    +0.000 C 
BRANCH  28  30
ATOM     29  N   UNL     1       6.264   7.106  17.523  0.00  0.00    +0.000 N 
ATOM     30  C   UNL     1       5.712   6.552  16.390  0.00  0.00    +0.000 C 
ATOM     31  O   UNL     1       6.374   5.955  15.542  0.00  0.00    +0.000 OA
ATOM     32  H   UNL     1       5.659   7.731  18.050  0.00  0.00    +0.000 HD
BRANCH  29  34
ATOM     33  C   UNL     1       8.265   8.402  18.094  0.00  0.00    +0.000 C 
ATOM     34  C   UNL     1       7.677   7.017  17.841  0.00  0.00    +0.000 C 
ATOM     35  C   UNL     1       7.886   6.107  19.046  0.00  0.00    +0.000 C 
ENDBRANCH  29  34
ENDBRANCH  28  30
ENDBRANCH  26  28
ENDBRANCH   1  26
TORSDOF 8
ENDMDL
MODEL 4
REMARK VINA RESULT:      -7.8      2.755      4.702
REMARK  Name = 
REMARK  11 active torsions:
REMARK  status: ('A' for Active; 'I' for Inactive)
REMARK    1  A    between atoms: C_1  and  C_2
REMARK    2  A    between atoms: C_2  and  C_3
REMARK    3  A    between atoms: C_2  and  N_4
REMARK    4  A    between atoms: C_5  and  C_7
REMARK    5  A    between atoms: C_7  and  N_8
REMARK    6  A    between atoms: N_8  and  C_9
REMARK    7  A    between atoms: C_15  and  C_16
REMARK    8  A    between atoms: N_23  and  C_24
REMARK    9  A    between atoms: C_26  and  C_27
REMARK   10  A    between atoms: C_28  and  O_29
REMARK   11  A    between atoms: C_30  and  O_31
REMARK                            x       y       z     vdW  Elec       q    Type
REMARK                         _______ _______ _______ _____ _____    ______ ____
ROOT
ATOM      1  C   UNL     1       1.471   7.468  20.846  0.00  0.00    +0.000 A 
ATOM      2  N   UNL     1       0.662   7.815  21.868  0.00  0.00    +0.000 NA
ATOM      3  C   UNL     1       0.017   8.996  21.808  0.00  0.00    +0.000 A 
ATOM      4  N   UNL     1       0.071   9.920  20.836  0.00  0.00    +0.000 NA
ATOM      5  C   UNL     1       0.858   9.529  19.818  0.00  0.00    +0.000 A 
ATOM      6  C   UNL     1       1.545   8.322  19.724  0.00  0.00    +0.000 A 
ATOM      7  C   UNL     1       2.204   8.322  18.445  0.00  0.00    +0.000 A 
ATOM      8  C   UNL     1       1.905   9.529  17.838  0.00  0.00    +0.000 A 
ATOM      9  N   UNL     1       1.163  10.283  18.712  0.00  0.00    +0.000 N 
ENDROOT
BRANCH   7  10
ATOM     10  C   UNL     1       3.094   7.346  17.830  0.00  0.00    +0.000 A 
ATOM     11  C   UNL     1       2.734   5.998  17.729  0.00  0.00    +0.000 A 
ATOM     12  C   UNL     1       3.648   5.044  17.281  0.00  0.00    +0.000 A 
ATOM     13  C   UNL     1       4.914   5.441  16.855  0.00  0.00    +0.000 A 
ATOM     14  C   UNL     1       5.260   6.788  16.877  0.00  0.00    +0.000 A 
ATOM     15  C   UNL     1       4.359   7.736  17.366  0.00  0.00    +0.000 A 
ENDBRANCH   7  10
BRANCH   9  16
ATOM     16  C   UNL     1       0.860  11.700  18.565  0.00  0.00    +0.000 C 
ATOM     17  O   UNL     1       1.506  12.453  19.632  0.00  0.00    +0.000 OA
ATOM     18  C   UNL     1       0.555  13.382  20.198  0.00  0.00    +0.000 C 
ATOM     19  C   UNL     1       0.195  12.944  21.612  0.00  0.00    +0.000 C 
ATOM     20  C   UNL     1      -0.640  13.399  19.252  0.00  0.00    +0.000 C 
ATOM     21  C   UNL     1      -0.641  11.992  18.678  0.00  0.00    +0.000 C 
BRANCH  20  22
ATOM     22  O   UNL     1      -0.436  14.326  18.169  0.00  0.00    +0.000 OA
ATOM     23  H   UNL     1       0.479  14.664  18.212  0.00  0.00    +0.000 HD
ENDBRANCH  20  22
BRANCH  21  24
ATOM     24  O   UNL     1      -1.346  11.945  17.441  0.00  0.00    +0.000 OA
ATOM     25  H   UNL     1      -1.353  12.862  17.095  0.00  0.00    +0.000 HD
ENDBRANCH  21  24
ENDBRANCH   9  16
BRANCH   1  26
ATOM     26  N   UNL     1       2.166   6.247  20.895  0.00  0.00    +0.000 N 
ATOM     27  H   UNL     1       2.690   6.229  20.022  0.00  0.00    +0.000 HD
BRANCH  26  28
ATOM     28  C   UNL     1       1.307   5.043  20.889  0.00  0.00    +0.000 C 
BRANCH  28  30
ATOM     29  N   UNL     1       2.598   3.247  19.806  0.00  0.00    +0.000 N 
ATOM     30  C   UNL     1       2.076   3.719  20.989  0.00  0.00    +0.000 C 
ATOM     31  O   UNL     1       2.187   3.121  22.059  0.00  0.00    +0.000 OA
ATOM     32  H   UNL     1       2.286   3.722  18.963  0.00  0.00    +0.000 HD
BRANCH  29  34
ATOM     33  C   UNL     1       3.368   1.494  18.274  0.00  0.00    +0.000 C 
ATOM     34  C   UNL     1       3.353   2.011  19.709  0.00  0.00    +0.000 C 
ATOM     35  C   UNL     1       4.771   2.222  20.228  0.00  0.00    +0.000 C 
ENDBRANCH  29  34
ENDBRANCH  28  30
ENDBRANCH  26  28
ENDBRANCH   1  26
TORSDOF 8
ENDMDL
MODEL 5
REMARK VINA RESULT:      -7.8      1.449      7.782
REMARK  Name = 
REMARK  11 active torsions:
REMARK  status: ('A' for Active; 'I' for Inactive)
REMARK    1  A    between atoms: C_1  and  C_2
REMARK    2  A    between atoms: C_2  and  C_3
REMARK    3  A    between atoms: C_2  and  N_4
REMARK    4  A    between atoms: C_5  and  C_7
REMARK    5  A    between atoms: C_7  and  N_8
REMARK    6  A    between atoms: N_8  and  C_9
REMARK    7  A    between atoms: C_15  and  C_16
REMARK    8  A    between atoms: N_23  and  C_24
REMARK    9  A    between atoms: C_26  and  C_27
REMARK   10  A    between atoms: C_28  and  O_29
REMARK   11  A    between atoms: C_30  and  O_31
REMARK                            x       y       z     vdW  Elec       q    Type
REMARK                         _______ _______ _______ _____ _____    ______ ____
ROOT
ATOM      1  C   UNL     1       1.796   7.878  19.363  0.00  0.00    +0.000 A 
ATOM      2  N   UNL     1       1.832   9.132  18.865  0.00  0.00    +0.000 NA
ATOM      3  C   UNL     1       2.661   9.394  17.837  0.00  0.00    +0.000 A 
ATOM      4  N   UNL     1       3.499   8.552  17.212  0.00  0.00    +0.000 NA
ATOM      5  C   UNL     1       3.414   7.305  17.709  0.00  0.00    +0.000 A 
ATOM      6  C   UNL     1       2.572   6.881  18.733  0.00  0.00    +0.000 A 
ATOM      7  C   UNL     1       2.788   5.466  18.884  0.00  0.00    +0.000 A 
ATOM      8  C   UNL     1       3.758   5.106  17.966  0.00  0.00    +0.000 A 
ATOM      9  N   UNL     1       4.189   6.240  17.322  0.00  0.00    +0.000 N 
ENDROOT
BRANCH   7  10
ATOM     10  C   UNL     1       2.220   4.509  19.824  0.00  0.00    +0.000 A 
ATOM     11  C   UNL     1       2.674   4.433  21.144  0.00  0.00    +0.000 A 
ATOM     12  C   UNL     1       2.238   3.415  21.994  0.00  0.00    +0.000 A 
ATOM     13  C   UNL     1       1.279   2.505  21.554  0.00  0.00    +0.000 A 
ATOM     14  C   UNL     1       0.761   2.615  20.268  0.00  0.00    +0.000 A 
ATOM     15  C   UNL     1       1.231   3.607  19.405  0.00  0.00    +0.000 A 
ENDBRANCH   7  10
BRANCH   9  16
ATOM     16  C   UNL     1       5.367   6.337  16.471  0.00  0.00    +0.000 C 
ATOM     17  O   UNL     1       5.004   6.029  15.094  0.00  0.00    +0.000 OA
ATOM     18  C   UNL     1       5.972   5.110  14.544  0.00  0.00    +0.000 C 
ATOM     19  C   UNL     1       5.320   3.749  14.331  0.00  0.00    +0.000 C 
ATOM     20  C   UNL     1       7.133   5.071  15.530  0.00  0.00    +0.000 C 
ATOM     21  C   UNL     1       6.456   5.331  16.865  0.00  0.00    +0.000 C 
BRANCH  20  22
ATOM     22  O   UNL     1       8.066   6.140  15.283  0.00  0.00    +0.000 OA
ATOM     23  H   UNL     1       8.252   6.595  16.126  0.00  0.00    +0.000 HD
ENDBRANCH  20  22
BRANCH  21  24
ATOM     24  O   UNL     1       7.389   5.818  17.825  0.00  0.00    +0.000 OA
ATOM     25  H   UNL     1       6.862   6.084  18.607  0.00  0.00    +0.000 HD
ENDBRANCH  21  24
ENDBRANCH   9  16
BRANCH   1  26
ATOM     26  N   UNL     1       0.950   7.585  20.446  0.00  0.00    +0.000 N 
ATOM     27  H   UNL     1       0.022   7.827  20.103  0.00  0.00    +0.000 HD
BRANCH  26  28
ATOM     28  C   UNL     1       1.175   8.414  21.651  0.00  0.00    +0.000 C 
BRANCH  28  30
ATOM     29  N   UNL     1      -0.040  10.491  21.124  0.00  0.00    +0.000 N 
ATOM     30  C   UNL     1       0.040   9.400  21.959  0.00  0.00    +0.000 C 
ATOM     31  O   UNL     1      -0.723   9.222  22.908  0.00  0.00    +0.000 OA
ATOM     32  H   UNL     1       0.750  10.629  20.499  0.00  0.00    +0.000 HD
BRANCH  29  34
ATOM     33  C   UNL     1      -0.526  12.680  22.119  0.00  0.00    +0.000 C 
ATOM     34  C   UNL     1      -1.047  11.527  21.266  0.00  0.00    +0.000 C 
ATOM     35  C   UNL     1      -1.487  12.020  19.892  0.00  0.00    +0.000 C 
ENDBRANCH  29  34
ENDBRANCH  28  30
ENDBRANCH  26  28
ENDBRANCH   1  26
TORSDOF 8
ENDMDL
MODEL 6
REMARK VINA RESULT:      -7.6      4.922      8.137
REMARK  Name = 
REMARK  11 active torsions:
REMARK  status: ('A' for Active; 'I' for Inactive)
REMARK    1  A    between atoms: C_1  and  C_2
REMARK    2  A    between atoms: C_2  and  C_3
REMARK    3  A    between atoms: C_2  and  N_4
REMARK    4  A    between atoms: C_5  and  C_7
REMARK    5  A    between atoms: C_7  and  N_8
REMARK    6  A    between atoms: N_8  and  C_9
REMARK    7  A    between atoms: C_15  and  C_16
REMARK    8  A    between atoms: N_23  and  C_24
REMARK    9  A    between atoms: C_26  and  C_27
REMARK   10  A    between atoms: C_28  and  O_29
REMARK   11  A    between atoms: C_30  and  O_31
REMARK                            x       y       z     vdW  Elec       q    Type
REMARK                         _______ _______ _______ _____ _____    ______ ____
ROOT
ATOM      1  C   UNL     1      -1.151  14.108  19.741  0.00  0.00    +0.000 A 
ATOM      2  N   UNL     1      -0.587  15.012  20.568  0.00  0.00    +0.000 NA
ATOM      3  C   UNL     1      -1.166  15.244  21.762  0.00  0.00    +0.000 A 
ATOM      4  N   UNL     1      -2.276  14.683  22.267  0.00  0.00    +0.000 NA
ATOM      5  C   UNL     1      -2.794  13.763  21.433  0.00  0.00    +0.000 A 
ATOM      6  C   UNL     1      -2.278  13.390  20.195  0.00  0.00    +0.000 A 
ATOM      7  C   UNL     1      -3.128  12.341  19.695  0.00  0.00    +0.000 A 
ATOM      8  C   UNL     1      -4.123  12.146  20.636  0.00  0.00    +0.000 A 
ATOM      9  N   UNL     1      -3.960  13.069  21.640  0.00  0.00    +0.000 N 
ENDROOT
BRANCH   7  10
ATOM     10  C   UNL     1      -3.099  11.608  18.436  0.00  0.00    +0.000 A 
ATOM     11  C   UNL     1      -4.117  11.751  17.489  0.00  0.00    +0.000 A 
ATOM     12  C   UNL     1      -4.164  10.935  16.359  0.00  0.00    +0.000 A 
ATOM     13  C   UNL     1      -3.145  10.014  16.124  0.00  0.00    +0.000 A 
ATOM     14  C   UNL     1      -2.084   9.915  17.017  0.00  0.00    +0.000 A 
ATOM     15  C   UNL     1      -2.062  10.702  18.170  0.00  0.00    +0.000 A 
ENDBRANCH   7  10
BRANCH   9  16
ATOM     16  C   UNL     1      -4.931  13.368  22.683  0.00  0.00    +0.000 C 
ATOM     17  O   UNL     1      -5.803  12.220  22.885  0.00  0.00    +0.000 OA
ATOM     18  C   UNL     1      -7.174  12.671  22.937  0.00  0.00    +0.000 C 
ATOM     19  C   UNL     1      -7.916  12.191  21.696  0.00  0.00    +0.000 C 
ATOM     20  C   UNL     1      -7.121  14.189  23.054  0.00  0.00    +0.000 C 
ATOM     21  C   UNL     1      -5.843  14.544  22.313  0.00  0.00    +0.000 C 
BRANCH  20  22
ATOM     22  O   UNL     1      -6.973  14.603  24.426  0.00  0.00    +0.000 OA
ATOM     23  H   UNL     1      -7.282  15.525  24.511  0.00  0.00    +0.000 HD
ENDBRANCH  20  22
BRANCH  21  24
ATOM     24  O   UNL     1      -5.355  15.820  22.716  0.00  0.00    +0.000 OA
ATOM     25  H   UNL     1      -4.517  15.653  23.194  0.00  0.00    +0.000 HD
ENDBRANCH  21  24
ENDBRANCH   9  16
BRANCH   1  26
ATOM     26  N   UNL     1      -0.573  13.863  18.484  0.00  0.00    +0.000 N 
ATOM     27  H   UNL     1      -0.962  12.963  18.207  0.00  0.00    +0.000 HD
BRANCH  26  28
ATOM     28  C   UNL     1       0.897  13.691  18.499  0.00  0.00    +0.000 C 
BRANCH  28  30
ATOM     29  N   UNL     1       1.249  11.254  18.427  0.00  0.00    +0.000 N 
ATOM     30  C   UNL     1       1.374  12.401  19.179  0.00  0.00    +0.000 C 
ATOM     31  O   UNL     1       1.813  12.407  20.329  0.00  0.00    +0.000 OA
ATOM     32  H   UNL     1       0.705  11.342  17.573  0.00  0.00    +0.000 HD
BRANCH  29  34
ATOM     33  C   UNL     1       0.718   9.467  20.020  0.00  0.00    +0.000 C 
ATOM     34  C   UNL     1       1.647   9.944  18.907  0.00  0.00    +0.000 C 
ATOM     35  C   UNL     1       1.671   8.949  17.753  0.00  0.00    +0.000 C 
ENDBRANCH  29  34
ENDBRANCH  28  30
ENDBRANCH  26  28
ENDBRANCH   1  26
TORSDOF 8
ENDMDL
MODEL 7
REMARK VINA RESULT:      -7.5      1.524      2.135
REMARK  Name = 
REMARK  11 active torsions:
REMARK  status: ('A' for Active; 'I' for Inactive)
REMARK    1  A    between atoms: C_1  and  C_2
REMARK    2  A    between atoms: C_2  and  C_3
REMARK    3  A    between atoms: C_2  and  N_4
REMARK    4  A    between atoms: C_5  and  C_7
REMARK    5  A    between atoms: C_7  and  N_8
REMARK    6  A    between atoms: N_8  and  C_9
REMARK    7  A    between atoms: C_15  and  C_16
REMARK    8  A    between atoms: N_23  and  C_24
REMARK    9  A    between atoms: C_26  and  C_27
REMARK   10  A    between atoms: C_28  and  O_29
REMARK   11  A    between atoms: C_30  and  O_31
REMARK                            x       y       z     vdW  Elec       q    Type
REMARK                         _______ _______ _______ _____ _____    ______ ____
ROOT
ATOM      1  C   UNL     1       3.266   6.182  17.827  0.00  0.00    +0.000 A 
ATOM      2  N   UNL     1       3.830   7.017  16.929  0.00  0.00    +0.000 NA
ATOM      3  C   UNL     1       3.650   8.343  17.080  0.00  0.00    +0.000 A 
ATOM      4  N   UNL     1       2.956   8.982  18.034  0.00  0.00    +0.000 NA
ATOM      5  C   UNL     1       2.437   8.125  18.931  0.00  0.00    +0.000 A 
ATOM      6  C   UNL     1       2.580   6.740  18.927  0.00  0.00    +0.000 A 
ATOM      7  C   UNL     1       1.904   6.253  20.101  0.00  0.00    +0.000 A 
ATOM      8  C   UNL     1       1.370   7.355  20.744  0.00  0.00    +0.000 A 
ATOM      9  N   UNL     1       1.625   8.469  19.983  0.00  0.00    +0.000 N 
ENDROOT
BRANCH   7  10
ATOM     10  C   UNL     1       1.690   4.895  20.584  0.00  0.00    +0.000 A 
ATOM     11  C   UNL     1       2.421   4.385  21.662  0.00  0.00    +0.000 A 
ATOM     12  C   UNL     1       2.323   3.040  22.021  0.00  0.00    +0.000 A 
ATOM     13  C   UNL     1       1.431   2.205  21.351  0.00  0.00    +0.000 A 
ATOM     14  C   UNL     1       0.641   2.717  20.328  0.00  0.00    +0.000 A 
ATOM     15  C   UNL     1       0.772   4.053  19.941  0.00  0.00    +0.000 A 
ENDBRANCH   7  10
BRANCH   9  16
ATOM     16  C   UNL     1       1.022   9.782  20.172  0.00  0.00    +0.000 C 
ATOM     17  O   UNL     1       1.196  10.206  21.554  0.00  0.00    +0.000 OA
ATOM     18  C   UNL     1      -0.059  10.717  22.054  0.00  0.00    +0.000 C 
ATOM     19  C   UNL     1      -0.616   9.763  23.103  0.00  0.00    +0.000 C 
ATOM     20  C   UNL     1      -0.969  10.873  20.842  0.00  0.00    +0.000 C 
ATOM     21  C   UNL     1      -0.489   9.774  19.910  0.00  0.00    +0.000 C 
BRANCH  20  22
ATOM     22  O   UNL     1      -0.759  12.140  20.189  0.00  0.00    +0.000 OA
ATOM     23  H   UNL     1       0.089  12.106  19.706  0.00  0.00    +0.000 HD
ENDBRANCH  20  22
BRANCH  21  24
ATOM     24  O   UNL     1      -0.855  10.050  18.561  0.00  0.00    +0.000 OA
ATOM     25  H   UNL     1      -0.595   9.262  18.041  0.00  0.00    +0.000 HD
ENDBRANCH  21  24
ENDBRANCH   9  16
BRANCH   1  26
ATOM     26  N   UNL     1       3.427   4.794  17.680  0.00  0.00    +0.000 N 
ATOM     27  H   UNL     1       2.701   4.399  18.275  0.00  0.00    +0.000 HD
BRANCH  26  28
ATOM     28  C   UNL     1       4.712   4.261  18.184  0.00  0.00    +0.000 C 
BRANCH  28  30
ATOM     29  N   UNL     1       5.427   4.080  15.834  0.00  0.00    +0.000 N 
ATOM     30  C   UNL     1       5.836   4.230  17.139  0.00  0.00    +0.000 C 
ATOM     31  O   UNL     1       7.019   4.310  17.468  0.00  0.00    +0.000 OA
ATOM     32  H   UNL     1       4.448   3.837  15.702  0.00  0.00    +0.000 HD
BRANCH  29  34
ATOM     33  C   UNL     1       5.616   3.680  13.422  0.00  0.00    +0.000 C 
ATOM     34  C   UNL     1       6.349   4.028  14.714  0.00  0.00    +0.000 C 
ATOM     35  C   UNL     1       7.087   5.355  14.582  0.00  0.00    +0.000 C 
ENDBRANCH  29  34
ENDBRANCH  28  30
ENDBRANCH  26  28
ENDBRANCH   1  26
TORSDOF 8
ENDMDL
MODEL 8
REMARK VINA RESULT:      -7.5      2.684      4.596
REMARK  Name = 
REMARK  11 active torsions:
REMARK  status: ('A' for Active; 'I' for Inactive)
REMARK    1  A    between atoms: C_1  and  C_2
REMARK    2  A    between atoms: C_2  and  C_3
REMARK    3  A    between atoms: C_2  and  N_4
REMARK    4  A    between atoms: C_5  and  C_7
REMARK    5  A    between atoms: C_7  and  N_8
REMARK    6  A    between atoms: N_8  and  C_9
REMARK    7  A    between atoms: C_15  and  C_16
REMARK    8  A    between atoms: N_23  and  C_24
REMARK    9  A    between atoms: C_26  and  C_27
REMARK   10  A    between atoms: C_28  and  O_29
REMARK   11  A    between atoms: C_30  and  O_31
REMARK                            x       y       z     vdW  Elec       q    Type
REMARK                         _______ _______ _______ _____ _____    ______ ____
ROOT
ATOM      1  C   UNL     1       1.954   6.884  20.550  0.00  0.00    +0.000 A 
ATOM      2  N   UNL     1       1.053   7.153  21.517  0.00  0.00    +0.000 NA
ATOM      3  C   UNL     1       0.278   8.247  21.390  0.00  0.00    +0.000 A 
ATOM      4  N   UNL     1       0.277   9.151  20.398  0.00  0.00    +0.000 NA
ATOM      5  C   UNL     1       1.161   8.836  19.435  0.00  0.00    +0.000 A 
ATOM      6  C   UNL     1       1.991   7.718  19.411  0.00  0.00    +0.000 A 
ATOM      7  C   UNL     1       2.716   7.771  18.169  0.00  0.00    +0.000 A 
ATOM      8  C   UNL     1       2.312   8.921  17.515  0.00  0.00    +0.000 A 
ATOM      9  N   UNL     1       1.437   9.599  18.328  0.00  0.00    +0.000 N 
ENDROOT
BRANCH   7  10
ATOM     10  C   UNL     1       3.748   6.896  17.630  0.00  0.00    +0.000 A 
ATOM     11  C   UNL     1       4.996   7.396  17.246  0.00  0.00    +0.000 A 
ATOM     12  C   UNL     1       5.922   6.585  16.589  0.00  0.00    +0.000 A 
ATOM     13  C   UNL     1       5.638   5.238  16.376  0.00  0.00    +0.000 A 
ATOM     14  C   UNL     1       4.432   4.707  16.822  0.00  0.00    +0.000 A 
ATOM     15  C   UNL     1       3.489   5.531  17.440  0.00  0.00    +0.000 A 
ENDBRANCH   7  10
BRANCH   9  16
ATOM     16  C   UNL     1       0.978  10.967  18.126  0.00  0.00    +0.000 C 
ATOM     17  O   UNL     1       1.649  11.852  19.068  0.00  0.00    +0.000 OA
ATOM     18  C   UNL     1       0.672  12.725  19.675  0.00  0.00    +0.000 C 
ATOM     19  C   UNL     1       0.505  12.360  21.145  0.00  0.00    +0.000 C 
ATOM     20  C   UNL     1      -0.609  12.560  18.866  0.00  0.00    +0.000 C 
ATOM     21  C   UNL     1      -0.525  11.122  18.384  0.00  0.00    +0.000 C 
BRANCH  20  22
ATOM     22  O   UNL     1      -0.613  13.422  17.711  0.00  0.00    +0.000 OA
ATOM     23  H   UNL     1      -0.877  12.898  16.931  0.00  0.00    +0.000 HD
ENDBRANCH  20  22
BRANCH  21  24
ATOM     24  O   UNL     1      -1.345  10.919  17.237  0.00  0.00    +0.000 OA
ATOM     25  H   UNL     1      -0.843  10.320  16.645  0.00  0.00    +0.000 HD
ENDBRANCH  21  24
ENDBRANCH   9  16
BRANCH   1  26
ATOM     26  N   UNL     1       2.785   5.757  20.669  0.00  0.00    +0.000 N 
ATOM     27  H   UNL     1       2.901   5.436  19.709  0.00  0.00    +0.000 HD
BRANCH  26  28
ATOM     28  C   UNL     1       2.192   4.625  21.416  0.00  0.00    +0.000 C 
BRANCH  28  30
ATOM     29  N   UNL     1       2.886   2.941  19.758  0.00  0.00    +0.000 N 
ATOM     30  C   UNL     1       1.859   3.403  20.550  0.00  0.00    +0.000 C 
ATOM     31  O   UNL     1       0.736   2.899  20.557  0.00  0.00    +0.000 OA
ATOM     32  H   UNL     1       3.701   3.545  19.694  0.00  0.00    +0.000 HD
BRANCH  29  34
ATOM     33  C   UNL     1       2.100   2.203  17.555  0.00  0.00    +0.000 C 
ATOM     34  C   UNL     1       2.753   1.798  18.874  0.00  0.00    +0.000 C 
ATOM     35  C   UNL     1       4.117   1.161  18.634  0.00  0.00    +0.000 C 
ENDBRANCH  29  34
ENDBRANCH  28  30
ENDBRANCH  26  28
ENDBRANCH   1  26
TORSDOF 8
ENDMDL
MODEL 9
REMARK VINA RESULT:      -7.5      2.779      4.801
REMARK  Name = 
REMARK  11 active torsions:
REMARK  status: ('A' for Active; 'I' for Inactive)
REMARK    1  A    between atoms: C_1  and  C_2
REMARK    2  A    between atoms: C_2  and  C_3
REMARK    3  A    between atoms: C_2  and  N_4
REMARK    4  A    between atoms: C_5  and  C_7
REMARK    5  A    between atoms: C_7  and  N_8
REMARK    6  A    between atoms: N_8  and  C_9
REMARK    7  A    between atoms: C_15  and  C_16
REMARK    8  A    between atoms: N_23  and  C_24
REMARK    9  A    between atoms: C_26  and  C_27
REMARK   10  A    between atoms: C_28  and  O_29
REMARK   11  A    between atoms: C_30  and  O_31
REMARK                            x       y       z     vdW  Elec       q    Type
REMARK                         _______ _______ _______ _____ _____    ______ ____
ROOT
ATOM      1  C   UNL     1       1.935   6.951  20.572  0.00  0.00    +0.000 A 
ATOM      2  N   UNL     1       1.081   7.246  21.574  0.00  0.00    +0.000 NA
ATOM      3  C   UNL     1       0.324   8.356  21.471  0.00  0.00    +0.000 A 
ATOM      4  N   UNL     1       0.301   9.252  20.472  0.00  0.00    +0.000 NA
ATOM      5  C   UNL     1       1.137   8.911  19.476  0.00  0.00    +0.000 A 
ATOM      6  C   UNL     1       1.941   7.775  19.426  0.00  0.00    +0.000 A 
ATOM      7  C   UNL     1       2.615   7.804  18.155  0.00  0.00    +0.000 A 
ATOM      8  C   UNL     1       2.208   8.957  17.509  0.00  0.00    +0.000 A 
ATOM      9  N   UNL     1       1.382   9.660  18.351  0.00  0.00    +0.000 N 
ENDROOT
BRANCH   7  10
ATOM     10  C   UNL     1       3.605   6.903  17.580  0.00  0.00    +0.000 A 
ATOM     11  C   UNL     1       3.356   5.532  17.462  0.00  0.00    +0.000 A 
ATOM     12  C   UNL     1       4.362   4.654  17.056  0.00  0.00    +0.000 A 
ATOM     13  C   UNL     1       5.611   5.151  16.687  0.00  0.00    +0.000 A 
ATOM     14  C   UNL     1       5.848   6.520  16.724  0.00  0.00    +0.000 A 
ATOM     15  C   UNL     1       4.854   7.393  17.173  0.00  0.00    +0.000 A 
ENDBRANCH   7  10
BRANCH   9  16
ATOM     16  C   UNL     1       0.944  11.035  18.158  0.00  0.00    +0.000 C 
ATOM     17  O   UNL     1       1.623  11.904  19.110  0.00  0.00    +0.000 OA
ATOM     18  C   UNL     1       0.656  12.787  19.719  0.00  0.00    +0.000 C 
ATOM     19  C   UNL     1       0.476  12.413  21.185  0.00  0.00    +0.000 C 
ATOM     20  C   UNL     1      -0.624  12.646  18.902  0.00  0.00    +0.000 C 
ATOM     21  C   UNL     1      -0.558  11.211  18.410  0.00  0.00    +0.000 C 
BRANCH  20  22
ATOM     22  O   UNL     1      -0.610  13.516  17.754  0.00  0.00    +0.000 OA
ATOM     23  H   UNL     1      -0.557  12.970  16.947  0.00  0.00    +0.000 HD
ENDBRANCH  20  22
BRANCH  21  24
ATOM     24  O   UNL     1      -1.375  11.028  17.257  0.00  0.00    +0.000 OA
ATOM     25  H   UNL     1      -1.378  10.066  17.074  0.00  0.00    +0.000 HD
ENDBRANCH  21  24
ENDBRANCH   9  16
BRANCH   1  26
ATOM     26  N   UNL     1       2.746   5.807  20.666  0.00  0.00    +0.000 N 
ATOM     27  H   UNL     1       2.589   5.323  19.784  0.00  0.00    +0.000 HD
BRANCH  26  28
ATOM     28  C   UNL     1       2.359   4.858  21.734  0.00  0.00    +0.000 C 
BRANCH  28  30
ATOM     29  N   UNL     1       2.341   3.191  19.920  0.00  0.00    +0.000 N 
ATOM     30  C   UNL     1       2.011   3.451  21.231  0.00  0.00    +0.000 C 
ATOM     31  O   UNL     1       1.451   2.631  21.958  0.00  0.00    +0.000 OA
ATOM     32  H   UNL     1       2.624   3.997  19.367  0.00  0.00    +0.000 HD
BRANCH  29  34
ATOM     33  C   UNL     1       0.754   1.942  18.529  0.00  0.00    +0.000 C 
ATOM     34  C   UNL     1       2.085   1.917  19.275  0.00  0.00    +0.000 C 
ATOM     35  C   UNL     1       3.232   1.568  18.333  0.00  0.00    +0.000 C 
ENDBRANCH  29  34
ENDBRANCH  28  30
ENDBRANCH  26  28
ENDBRANCH   1  26
TORSDOF 8
ENDMDL
