MODEL 1
REMARK VINA RESULT:      -9.0      0.000      0.000
REMARK  Name = 
REMARK  6 active torsions:
REMARK  status: ('A' for Active; 'I' for Inactive)
REMARK    1  A    between atoms: C_4  and  C_5
REMARK    2  A    between atoms: C_9  and  O_10
REMARK    3  A    between atoms: O_10  and  C_11
REMARK    4  A    between atoms: C_11  and  C_12
REMARK    5  A    between atoms: C_19  and  C_20
REMARK    6  A    between atoms: N_25  and  C_26
REMARK                            x       y       z     vdW  Elec       q    Type
REMARK                         _______ _______ _______ _____ _____    ______ ____
ROOT
ATOM      1  O   UNL     1       4.123   6.798  18.592  0.00  0.00    +0.000 OA
ATOM      2  C   UNL     1       3.344   6.143  19.258  0.00  0.00    +0.000 C 
ATOM      3  C   UNL     1       3.320   4.663  19.389  0.00  0.00    +0.000 C 
ATOM      4  C   UNL     1       4.074   3.785  18.713  0.00  0.00    +0.000 C 
ATOM      5  C   UNL     1       2.249   4.394  20.370  0.00  0.00    +0.000 C 
ATOM      6  N   UNL     1       1.646   5.501  20.742  0.00  0.00    +0.000 NA
ATOM      7  N   UNL     1       2.261   6.541  20.054  0.00  0.00    +0.000 N 
ENDROOT
BRANCH   4   8
ATOM      8  C   UNL     1       5.140   4.158  17.780  0.00  0.00    +0.000 A 
ATOM      9  C   UNL     1       6.451   4.364  18.216  0.00  0.00    +0.000 A 
ATOM     10  C   UNL     1       7.442   4.715  17.298  0.00  0.00    +0.000 A 
ATOM     11  C   UNL     1       7.130   4.845  15.944  0.00  0.00    +0.000 A 
ATOM     12  C   UNL     1       5.830   4.599  15.499  0.00  0.00    +0.000 A 
ATOM     13  C   UNL     1       4.832   4.286  16.422  0.00  0.00    +0.000 A 
BRANCH  12  14
ATOM     14  O   UNL     1       5.426   4.641  14.192  0.00  0.00    +0.000 OA
BRANCH  14  15
ATOM     15  C   UNL     1       6.482   4.691  13.235  0.00  0.00    +0.000 C 
BRANCH  15  16
ATOM     16  C   UNL     1       6.386   3.481  12.345  0.00  0.00    +0.000 A 
ATOM     17  C   UNL     1       7.539   2.858  11.853  0.00  0.00    +0.000 A 
ATOM     18  C   UNL     1       7.436   1.727  11.041  0.00  0.00    +0.000 A 
ATOM     19  C   UNL     1       6.182   1.219  10.706  0.00  0.00    +0.000 A 
ATOM     20  C   UNL     1       5.027   1.846  11.172  0.00  0.00    +0.000 A 
ATOM     21  C   UNL     1       5.128   2.974  11.985  0.00  0.00    +0.000 A 
ENDBRANCH  15  16
ENDBRANCH  14  15
ENDBRANCH  12  14
ENDBRANCH   4   8
BRANCH   7  22
ATOM     22  C   UNL     1       1.649   7.818  20.067  0.00  0.00    +0.000 A 
ATOM     23  C   UNL     1       1.561   8.593  18.901  0.00  0.00    +0.000 A 
ATOM     24  C   UNL     1       0.872   9.809  18.893  0.00  0.00    +0.000 A 
ATOM     25  C   UNL     1       0.279  10.282  20.058  0.00  0.00    +0.000 A 
ATOM     26  C   UNL     1       0.377   9.540  21.233  0.00  0.00    +0.000 A 
ATOM     27  C   UNL     1       1.050   8.313  21.236  0.00  0.00    +0.000 A 
ENDBRANCH   7  22
BRANCH   5  28
ATOM     28  C   UNL     1       1.884   3.028  20.889  0.00  0.00    +0.000 C 
ATOM     29  F   UNL     1       1.019   3.038  21.939  0.00  0.00    +0.000 F 
ATOM     30  F   UNL     1       1.295   2.260  19.932  0.00  0.00    +0.000 F 
ATOM     31  F   UNL     1       2.977   2.337  21.317  0.00  0.00    +0.000 F 
ENDBRANCH   5  28
TORSDOF 6
ENDMDL
MODEL 2
REMARK VINA RESULT:      -8.9      0.379      1.189
REMARK  Name = 
REMARK  6 active torsions:
REMARK  status: ('A' for Active; 'I' for Inactive)
REMARK    1  A    between atoms: C_4  and  C_5
REMARK    2  A    between atoms: C_9  and  O_10
REMARK    3  A    between atoms: O_10  and  C_11
REMARK    4  A    between atoms: C_11  and  C_12
REMARK    5  A    between atoms: C_19  and  C_20
REMARK    6  A    between atoms: N_25  and  C_26
REMARK                            x       y       z     vdW  Elec       q    Type
REMARK                         _______ _______ _______ _____ _____    ______ ____
ROOT
ATOM      1  O   UNL     1       4.144   6.859  18.642  0.00  0.00    +0.000 OA
ATOM      2  C   UNL     1       3.277   6.209  19.195  0.00  0.00    +0.000 C 
ATOM      3  C   UNL     1       3.143   4.730  19.194  0.00  0.00    +0.000 C 
ATOM      4  C   UNL     1       3.882   3.858  18.494  0.00  0.00    +0.000 C 
ATOM      5  C   UNL     1       1.990   4.460  20.077  0.00  0.00    +0.000 C 
ATOM      6  N   UNL     1       1.438   5.573  20.504  0.00  0.00    +0.000 NA
ATOM      7  N   UNL     1       2.170   6.619  19.951  0.00  0.00    +0.000 N 
ENDROOT
BRANCH   4   8
ATOM      8  C   UNL     1       5.035   4.227  17.669  0.00  0.00    +0.000 A 
ATOM      9  C   UNL     1       6.316   4.340  18.214  0.00  0.00    +0.000 A 
ATOM     10  C   UNL     1       7.391   4.690  17.396  0.00  0.00    +0.000 A 
ATOM     11  C   UNL     1       7.192   4.914  16.033  0.00  0.00    +0.000 A 
ATOM     12  C   UNL     1       5.921   4.762  15.477  0.00  0.00    +0.000 A 
ATOM     13  C   UNL     1       4.840   4.449  16.301  0.00  0.00    +0.000 A 
BRANCH  12  14
ATOM     14  O   UNL     1       5.623   4.900  14.148  0.00  0.00    +0.000 OA
BRANCH  14  15
ATOM     15  C   UNL     1       6.731   4.754  13.263  0.00  0.00    +0.000 C 
BRANCH  15  16
ATOM     16  C   UNL     1       6.493   3.557  12.382  0.00  0.00    +0.000 A 
ATOM     17  C   UNL     1       7.565   2.835  11.845  0.00  0.00    +0.000 A 
ATOM     18  C   UNL     1       7.330   1.718  11.042  0.00  0.00    +0.000 A 
ATOM     19  C   UNL     1       6.023   1.322  10.762  0.00  0.00    +0.000 A 
ATOM     20  C   UNL     1       4.948   2.047  11.273  0.00  0.00    +0.000 A 
ATOM     21  C   UNL     1       5.181   3.162  12.077  0.00  0.00    +0.000 A 
ENDBRANCH  15  16
ENDBRANCH  14  15
ENDBRANCH  12  14
ENDBRANCH   4   8
BRANCH   7  22
ATOM     22  C   UNL     1       1.646   7.932  20.037  0.00  0.00    +0.000 A 
ATOM     23  C   UNL     1       1.211   8.461  21.260  0.00  0.00    +0.000 A 
ATOM     24  C   UNL     1       0.785   9.788  21.362  0.00  0.00    +0.000 A 
ATOM     25  C   UNL     1       0.764  10.602  20.235  0.00  0.00    +0.000 A 
ATOM     26  C   UNL     1       1.166  10.088  19.004  0.00  0.00    +0.000 A 
ATOM     27  C   UNL     1       1.612   8.764  18.907  0.00  0.00    +0.000 A 
ENDBRANCH   7  22
BRANCH   5  28
ATOM     28  C   UNL     1       1.497   3.085  20.449  0.00  0.00    +0.000 C 
ATOM     29  F   UNL     1       2.438   2.108  20.359  0.00  0.00    +0.000 F 
ATOM     30  F   UNL     1       1.037   3.039  21.730  0.00  0.00    +0.000 F 
ATOM     31  F   UNL     1       0.467   2.681  19.656  0.00  0.00    +0.000 F 
ENDBRANCH   5  28
TORSDOF 6
ENDMDL
MODEL 3
REMARK VINA RESULT:      -8.9      0.159      1.093
REMARK  Name = 
REMARK  6 active torsions:
REMARK  status: ('A' for Active; 'I' for Inactive)
REMARK    1  A    between atoms: C_4  and  C_5
REMARK    2  A    between atoms: C_9  and  O_10
REMARK    3  A    between atoms: O_10  and  C_11
REMARK    4  A    between atoms: C_11  and  C_12
REMARK    5  A    between atoms: C_19  and  C_20
REMARK    6  A    between atoms: N_25  and  C_26
REMARK                            x       y       z     vdW  Elec       q    Type
REMARK                         _______ _______ _______ _____ _____    ______ ____
ROOT
ATOM      1  O   UNL     1       4.168   6.813  18.735  0.00  0.00    +0.000 OA
ATOM      2  C   UNL     1       3.366   6.135  19.348  0.00  0.00    +0.000 C 
ATOM      3  C   UNL     1       3.321   4.651  19.403  0.00  0.00    +0.000 C 
ATOM      4  C   UNL     1       4.081   3.799  18.700  0.00  0.00    +0.000 C 
ATOM      5  C   UNL     1       2.224   4.346  20.344  0.00  0.00    +0.000 C 
ATOM      6  N   UNL     1       1.626   5.440  20.758  0.00  0.00    +0.000 NA
ATOM      7  N   UNL     1       2.269   6.506  20.138  0.00  0.00    +0.000 N 
ENDROOT
BRANCH   4   8
ATOM      8  C   UNL     1       5.173   4.205  17.812  0.00  0.00    +0.000 A 
ATOM      9  C   UNL     1       6.469   4.406  18.295  0.00  0.00    +0.000 A 
ATOM     10  C   UNL     1       7.485   4.789  17.419  0.00  0.00    +0.000 A 
ATOM     11  C   UNL     1       7.215   4.957  16.060  0.00  0.00    +0.000 A 
ATOM     12  C   UNL     1       5.931   4.717  15.567  0.00  0.00    +0.000 A 
ATOM     13  C   UNL     1       4.907   4.372  16.449  0.00  0.00    +0.000 A 
BRANCH  12  14
ATOM     14  O   UNL     1       5.567   4.796  14.250  0.00  0.00    +0.000 OA
BRANCH  14  15
ATOM     15  C   UNL     1       6.647   4.728  13.321  0.00  0.00    +0.000 C 
BRANCH  15  16
ATOM     16  C   UNL     1       6.437   3.540  12.420  0.00  0.00    +0.000 A 
ATOM     17  C   UNL     1       5.148   3.086  12.119  0.00  0.00    +0.000 A 
ATOM     18  C   UNL     1       4.967   1.993  11.270  0.00  0.00    +0.000 A 
ATOM     19  C   UNL     1       6.072   1.340  10.727  0.00  0.00    +0.000 A 
ATOM     20  C   UNL     1       7.361   1.770  11.039  0.00  0.00    +0.000 A 
ATOM     21  C   UNL     1       7.543   2.863  11.885  0.00  0.00    +0.000 A 
ENDBRANCH  15  16
ENDBRANCH  14  15
ENDBRANCH  12  14
ENDBRANCH   4   8
BRANCH   7  22
ATOM     22  C   UNL     1       1.671   7.788  20.202  0.00  0.00    +0.000 A 
ATOM     23  C   UNL     1       1.596   8.612  19.070  0.00  0.00    +0.000 A 
ATOM     24  C   UNL     1       0.921   9.834  19.109  0.00  0.00    +0.000 A 
ATOM     25  C   UNL     1       0.329  10.266  20.292  0.00  0.00    +0.000 A 
ATOM     26  C   UNL     1       0.416   9.476  21.436  0.00  0.00    +0.000 A 
ATOM     27  C   UNL     1       1.074   8.241  21.389  0.00  0.00    +0.000 A 
ENDBRANCH   7  22
BRANCH   5  28
ATOM     28  C   UNL     1       1.832   2.960  20.784  0.00  0.00    +0.000 C 
ATOM     29  F   UNL     1       2.836   2.249  21.363  0.00  0.00    +0.000 F 
ATOM     30  F   UNL     1       0.820   2.982  21.695  0.00  0.00    +0.000 F 
ATOM     31  F   UNL     1       1.393   2.200  19.742  0.00  0.00    +0.000 F 
ENDBRANCH   5  28
TORSDOF 6
ENDMDL
MODEL 4
REMARK VINA RESULT:      -8.5      0.624      1.366
REMARK  Name = 
REMARK  6 active torsions:
REMARK  status: ('A' for Active; 'I' for Inactive)
REMARK    1  A    between atoms: C_4  and  C_5
REMARK    2  A    between atoms: C_9  and  O_10
REMARK    3  A    between atoms: O_10  and  C_11
REMARK    4  A    between atoms: C_11  and  C_12
REMARK    5  A    between atoms: C_19  and  C_20
REMARK    6  A    between atoms: N_25  and  C_26
REMARK                            x       y       z     vdW  Elec       q    Type
REMARK                         _______ _______ _______ _____ _____    ______ ____
ROOT
ATOM      1  O   UNL     1       4.274   6.843  18.609  0.00  0.00    +0.000 OA
ATOM      2  C   UNL     1       3.366   6.156  19.037  0.00  0.00    +0.000 C 
ATOM      3  C   UNL     1       3.219   4.686  18.881  0.00  0.00    +0.000 C 
ATOM      4  C   UNL     1       3.996   3.876  18.147  0.00  0.00    +0.000 C 
ATOM      5  C   UNL     1       2.007   4.348  19.654  0.00  0.00    +0.000 C 
ATOM      6  N   UNL     1       1.438   5.422  20.153  0.00  0.00    +0.000 NA
ATOM      7  N   UNL     1       2.214   6.506  19.756  0.00  0.00    +0.000 N 
ENDROOT
BRANCH   4   8
ATOM      8  C   UNL     1       5.204   4.307  17.440  0.00  0.00    +0.000 A 
ATOM      9  C   UNL     1       6.446   4.351  18.078  0.00  0.00    +0.000 A 
ATOM     10  C   UNL     1       7.576   4.764  17.372  0.00  0.00    +0.000 A 
ATOM     11  C   UNL     1       7.473   5.118  16.026  0.00  0.00    +0.000 A 
ATOM     12  C   UNL     1       6.241   5.035  15.374  0.00  0.00    +0.000 A 
ATOM     13  C   UNL     1       5.105   4.660  16.090  0.00  0.00    +0.000 A 
BRANCH  12  14
ATOM     14  O   UNL     1       6.035   5.302  14.047  0.00  0.00    +0.000 OA
BRANCH  14  15
ATOM     15  C   UNL     1       7.091   4.896  13.179  0.00  0.00    +0.000 C 
BRANCH  15  16
ATOM     16  C   UNL     1       6.637   3.694  12.394  0.00  0.00    +0.000 A 
ATOM     17  C   UNL     1       5.276   3.411  12.236  0.00  0.00    +0.000 A 
ATOM     18  C   UNL     1       4.869   2.302  11.493  0.00  0.00    +0.000 A 
ATOM     19  C   UNL     1       5.819   1.463  10.913  0.00  0.00    +0.000 A 
ATOM     20  C   UNL     1       7.178   1.723  11.083  0.00  0.00    +0.000 A 
ATOM     21  C   UNL     1       7.586   2.832  11.823  0.00  0.00    +0.000 A 
ENDBRANCH  15  16
ENDBRANCH  14  15
ENDBRANCH  12  14
ENDBRANCH   4   8
BRANCH   7  22
ATOM     22  C   UNL     1       1.697   7.812  19.937  0.00  0.00    +0.000 A 
ATOM     23  C   UNL     1       1.337   8.280  21.208  0.00  0.00    +0.000 A 
ATOM     24  C   UNL     1       0.919   9.600  21.401  0.00  0.00    +0.000 A 
ATOM     25  C   UNL     1       0.831  10.467  20.318  0.00  0.00    +0.000 A 
ATOM     26  C   UNL     1       1.158  10.015  19.041  0.00  0.00    +0.000 A 
ATOM     27  C   UNL     1       1.597   8.699  18.853  0.00  0.00    +0.000 A 
ENDBRANCH   7  22
BRANCH   5  28
ATOM     28  C   UNL     1       1.479   2.951  19.855  0.00  0.00    +0.000 C 
ATOM     29  F   UNL     1       0.466   2.858  20.758  0.00  0.00    +0.000 F 
ATOM     30  F   UNL     1       0.994   2.419  18.699  0.00  0.00    +0.000 F 
ATOM     31  F   UNL     1       2.446   2.100  20.294  0.00  0.00    +0.000 F 
ENDBRANCH   5  28
TORSDOF 6
ENDMDL
MODEL 5
REMARK VINA RESULT:      -8.2      2.678      8.332
REMARK  Name = 
REMARK  6 active torsions:
REMARK  status: ('A' for Active; 'I' for Inactive)
REMARK    1  A    between atoms: C_4  and  C_5
REMARK    2  A    between atoms: C_9  and  O_10
REMARK    3  A    between atoms: O_10  and  C_11
REMARK    4  A    between atoms: C_11  and  C_12
REMARK    5  A    between atoms: C_19  and  C_20
REMARK    6  A    between atoms: N_25  and  C_26
REMARK                            x       y       z     vdW  Elec       q    Type
REMARK                         _______ _______ _______ _____ _____    ______ ____
ROOT
ATOM      1  O   UNL     1       2.977   7.744  18.560  0.00  0.00    +0.000 OA
ATOM      2  C   UNL     1       2.953   6.572  18.885  0.00  0.00    +0.000 C 
ATOM      3  C   UNL     1       2.147   5.974  19.981  0.00  0.00    +0.000 C 
ATOM      4  C   UNL     1       1.395   6.632  20.874  0.00  0.00    +0.000 C 
ATOM      5  C   UNL     1       2.416   4.525  19.892  0.00  0.00    +0.000 C 
ATOM      6  N   UNL     1       3.296   4.253  18.955  0.00  0.00    +0.000 NA
ATOM      7  N   UNL     1       3.654   5.469  18.380  0.00  0.00    +0.000 N 
ENDROOT
BRANCH   4   8
ATOM      8  C   UNL     1       1.164   8.078  20.856  0.00  0.00    +0.000 A 
ATOM      9  C   UNL     1       1.442   8.875  21.968  0.00  0.00    +0.000 A 
ATOM     10  C   UNL     1       1.212  10.251  21.913  0.00  0.00    +0.000 A 
ATOM     11  C   UNL     1       0.719  10.833  20.745  0.00  0.00    +0.000 A 
ATOM     12  C   UNL     1       0.478  10.046  19.617  0.00  0.00    +0.000 A 
ATOM     13  C   UNL     1       0.672   8.667  19.685  0.00  0.00    +0.000 A 
BRANCH  12  14
ATOM     14  O   UNL     1       0.050  10.517  18.406  0.00  0.00    +0.000 OA
BRANCH  14  15
ATOM     15  C   UNL     1      -0.703   9.589  17.629  0.00  0.00    +0.000 C 
BRANCH  15  16
ATOM     16  C   UNL     1      -2.025  10.217  17.272  0.00  0.00    +0.000 A 
ATOM     17  C   UNL     1      -2.757  10.938  18.221  0.00  0.00    +0.000 A 
ATOM     18  C   UNL     1      -3.973  11.528  17.872  0.00  0.00    +0.000 A 
ATOM     19  C   UNL     1      -4.470  11.391  16.577  0.00  0.00    +0.000 A 
ATOM     20  C   UNL     1      -3.759  10.655  15.630  0.00  0.00    +0.000 A 
ATOM     21  C   UNL     1      -2.543  10.067  15.976  0.00  0.00    +0.000 A 
ENDBRANCH  15  16
ENDBRANCH  14  15
ENDBRANCH  12  14
ENDBRANCH   4   8
BRANCH   7  22
ATOM     22  C   UNL     1       4.774   5.505  17.514  0.00  0.00    +0.000 A 
ATOM     23  C   UNL     1       5.938   6.206  17.864  0.00  0.00    +0.000 A 
ATOM     24  C   UNL     1       7.077   6.161  17.055  0.00  0.00    +0.000 A 
ATOM     25  C   UNL     1       7.063   5.434  15.870  0.00  0.00    +0.000 A 
ATOM     26  C   UNL     1       5.908   4.753  15.491  0.00  0.00    +0.000 A 
ATOM     27  C   UNL     1       4.774   4.781  16.312  0.00  0.00    +0.000 A 
ENDBRANCH   7  22
BRANCH   5  28
ATOM     28  C   UNL     1       1.769   3.477  20.760  0.00  0.00    +0.000 C 
ATOM     29  F   UNL     1       2.123   2.199  20.457  0.00  0.00    +0.000 F 
ATOM     30  F   UNL     1       2.078   3.645  22.076  0.00  0.00    +0.000 F 
ATOM     31  F   UNL     1       0.411   3.515  20.676  0.00  0.00    +0.000 F 
ENDBRANCH   5  28
TORSDOF 6
ENDMDL
MODEL 6
REMARK VINA RESULT:      -8.2      0.687      1.238
REMARK  Name = 
REMARK  6 active torsions:
REMARK  status: ('A' for Active; 'I' for Inactive)
REMARK    1  A    between atoms: C_4  and  C_5
REMARK    2  A    between atoms: C_9  and  O_10
REMARK    3  A    between atoms: O_10  and  C_11
REMARK    4  A    between atoms: C_11  and  C_12
REMARK    5  A    between atoms: C_19  and  C_20
REMARK    6  A    between atoms: N_25  and  C_26
REMARK                            x       y       z     vdW  Elec       q    Type
REMARK                         _______ _______ _______ _____ _____    ______ ____
ROOT
ATOM      1  O   UNL     1       4.313   6.756  18.712  0.00  0.00    +0.000 OA
ATOM      2  C   UNL     1       3.376   6.092  19.116  0.00  0.00    +0.000 C 
ATOM      3  C   UNL     1       3.180   4.632  18.926  0.00  0.00    +0.000 C 
ATOM      4  C   UNL     1       3.937   3.811  18.185  0.00  0.00    +0.000 C 
ATOM      5  C   UNL     1       1.948   4.321  19.678  0.00  0.00    +0.000 C 
ATOM      6  N   UNL     1       1.411   5.404  20.194  0.00  0.00    +0.000 NA
ATOM      7  N   UNL     1       2.229   6.468  19.828  0.00  0.00    +0.000 N 
ENDROOT
BRANCH   4   8
ATOM      8  C   UNL     1       5.168   4.213  17.500  0.00  0.00    +0.000 A 
ATOM      9  C   UNL     1       6.386   4.294  18.178  0.00  0.00    +0.000 A 
ATOM     10  C   UNL     1       7.539   4.678  17.493  0.00  0.00    +0.000 A 
ATOM     11  C   UNL     1       7.482   4.967  16.129  0.00  0.00    +0.000 A 
ATOM     12  C   UNL     1       6.274   4.848  15.439  0.00  0.00    +0.000 A 
ATOM     13  C   UNL     1       5.114   4.502  16.132  0.00  0.00    +0.000 A 
BRANCH  12  14
ATOM     14  O   UNL     1       6.113   5.051  14.095  0.00  0.00    +0.000 OA
BRANCH  14  15
ATOM     15  C   UNL     1       5.148   4.209  13.468  0.00  0.00    +0.000 C 
BRANCH  15  16
ATOM     16  C   UNL     1       5.855   3.307  12.491  0.00  0.00    +0.000 A 
ATOM     17  C   UNL     1       5.199   2.209  11.923  0.00  0.00    +0.000 A 
ATOM     18  C   UNL     1       5.861   1.390  11.007  0.00  0.00    +0.000 A 
ATOM     19  C   UNL     1       7.186   1.656  10.662  0.00  0.00    +0.000 A 
ATOM     20  C   UNL     1       7.856   2.734  11.240  0.00  0.00    +0.000 A 
ATOM     21  C   UNL     1       7.194   3.554  12.153  0.00  0.00    +0.000 A 
ENDBRANCH  15  16
ENDBRANCH  14  15
ENDBRANCH  12  14
ENDBRANCH   4   8
BRANCH   7  22
ATOM     22  C   UNL     1       1.756   7.788  20.031  0.00  0.00    +0.000 A 
ATOM     23  C   UNL     1       1.675   8.700  18.970  0.00  0.00    +0.000 A 
ATOM     24  C   UNL     1       1.118   9.969  19.150  0.00  0.00    +0.000 A 
ATOM     25  C   UNL     1       0.654  10.355  20.403  0.00  0.00    +0.000 A 
ATOM     26  C   UNL     1       0.751   9.473  21.477  0.00  0.00    +0.000 A 
ATOM     27  C   UNL     1       1.290   8.195  21.291  0.00  0.00    +0.000 A 
ENDBRANCH   7  22
BRANCH   5  28
ATOM     28  C   UNL     1       1.369   2.940  19.844  0.00  0.00    +0.000 C 
ATOM     29  F   UNL     1       0.515   2.567  18.854  0.00  0.00    +0.000 F 
ATOM     30  F   UNL     1       2.337   1.983  19.878  0.00  0.00    +0.000 F 
ATOM     31  F   UNL     1       0.666   2.819  21.004  0.00  0.00    +0.000 F 
ENDBRANCH   5  28
TORSDOF 6
ENDMDL
MODEL 7
REMARK VINA RESULT:      -8.1      2.171      4.613
REMARK  Name = 
REMARK  6 active torsions:
REMARK  status: ('A' for Active; 'I' for Inactive)
REMARK    1  A    between atoms: C_4  and  C_5
REMARK    2  A    between atoms: C_9  and  O_10
REMARK    3  A    between atoms: O_10  and  C_11
REMARK    4  A    between atoms: C_11  and  C_12
REMARK    5  A    between atoms: C_19  and  C_20
REMARK    6  A    between atoms: N_25  and  C_26
REMARK                            x       y       z     vdW  Elec       q    Type
REMARK                         _______ _______ _______ _____ _____    ______ ____
ROOT
ATOM      1  O   UNL     1       3.993   6.611  18.406  0.00  0.00    +0.000 OA
ATOM      2  C   UNL     1       3.133   6.003  19.015  0.00  0.00    +0.000 C 
ATOM      3  C   UNL     1       2.896   4.537  18.984  0.00  0.00    +0.000 C 
ATOM      4  C   UNL     1       3.509   3.642  18.198  0.00  0.00    +0.000 C 
ATOM      5  C   UNL     1       1.806   4.316  19.956  0.00  0.00    +0.000 C 
ATOM      6  N   UNL     1       1.372   5.448  20.461  0.00  0.00    +0.000 NA
ATOM      7  N   UNL     1       2.126   6.461  19.876  0.00  0.00    +0.000 N 
ENDROOT
BRANCH   4   8
ATOM      8  C   UNL     1       4.610   3.960  17.285  0.00  0.00    +0.000 A 
ATOM      9  C   UNL     1       4.425   3.987  15.901  0.00  0.00    +0.000 A 
ATOM     10  C   UNL     1       5.497   4.297  15.063  0.00  0.00    +0.000 A 
ATOM     11  C   UNL     1       6.748   4.595  15.603  0.00  0.00    +0.000 A 
ATOM     12  C   UNL     1       6.927   4.609  16.988  0.00  0.00    +0.000 A 
ATOM     13  C   UNL     1       5.866   4.261  17.824  0.00  0.00    +0.000 A 
BRANCH  12  14
ATOM     14  O   UNL     1       8.091   4.941  17.627  0.00  0.00    +0.000 OA
BRANCH  14  15
ATOM     15  C   UNL     1       7.926   5.682  18.834  0.00  0.00    +0.000 C 
BRANCH  15  16
ATOM     16  C   UNL     1       8.005   7.151  18.514  0.00  0.00    +0.000 A 
ATOM     17  C   UNL     1       7.235   7.705  17.484  0.00  0.00    +0.000 A 
ATOM     18  C   UNL     1       7.307   9.071  17.209  0.00  0.00    +0.000 A 
ATOM     19  C   UNL     1       8.155   9.890  17.951  0.00  0.00    +0.000 A 
ATOM     20  C   UNL     1       8.944   9.345  18.964  0.00  0.00    +0.000 A 
ATOM     21  C   UNL     1       8.872   7.981  19.242  0.00  0.00    +0.000 A 
ENDBRANCH  15  16
ENDBRANCH  14  15
ENDBRANCH  12  14
ENDBRANCH   4   8
BRANCH   7  22
ATOM     22  C   UNL     1       1.705   7.803  20.044  0.00  0.00    +0.000 A 
ATOM     23  C   UNL     1       1.625   8.680  18.953  0.00  0.00    +0.000 A 
ATOM     24  C   UNL     1       1.118   9.973  19.103  0.00  0.00    +0.000 A 
ATOM     25  C   UNL     1       0.703  10.419  20.353  0.00  0.00    +0.000 A 
ATOM     26  C   UNL     1       0.800   9.573  21.455  0.00  0.00    +0.000 A 
ATOM     27  C   UNL     1       1.288   8.270  21.300  0.00  0.00    +0.000 A 
ENDBRANCH   7  22
BRANCH   5  28
ATOM     28  C   UNL     1       1.251   2.966  20.331  0.00  0.00    +0.000 C 
ATOM     29  F   UNL     1       2.131   1.938  20.189  0.00  0.00    +0.000 F 
ATOM     30  F   UNL     1       0.842   2.927  21.629  0.00  0.00    +0.000 F 
ATOM     31  F   UNL     1       0.168   2.633  19.576  0.00  0.00    +0.000 F 
ENDBRANCH   5  28
TORSDOF 6
ENDMDL
MODEL 8
REMARK VINA RESULT:      -8.1      2.662      8.249
REMARK  Name = 
REMARK  6 active torsions:
REMARK  status: ('A' for Active; 'I' for Inactive)
REMARK    1  A    between atoms: C_4  and  C_5
REMARK    2  A    between atoms: C_9  and  O_10
REMARK    3  A    between atoms: O_10  and  C_11
REMARK    4  A    between atoms: C_11  and  C_12
REMARK    5  A    between atoms: C_19  and  C_20
REMARK    6  A    between atoms: N_25  and  C_26
REMARK                            x       y       z     vdW  Elec       q    Type
REMARK                         _______ _______ _______ _____ _____    ______ ____
ROOT
ATOM      1  O   UNL     1       3.057   7.528  18.694  0.00  0.00    +0.000 OA
ATOM      2  C   UNL     1       2.959   6.343  18.952  0.00  0.00    +0.000 C 
ATOM      3  C   UNL     1       2.081   5.732  19.983  0.00  0.00    +0.000 C 
ATOM      4  C   UNL     1       1.331   6.380  20.885  0.00  0.00    +0.000 C 
ATOM      5  C   UNL     1       2.278   4.277  19.824  0.00  0.00    +0.000 C 
ATOM      6  N   UNL     1       3.178   4.009  18.905  0.00  0.00    +0.000 NA
ATOM      7  N   UNL     1       3.620   5.232  18.411  0.00  0.00    +0.000 N 
ENDROOT
BRANCH   4   8
ATOM      8  C   UNL     1       1.176   7.836  20.938  0.00  0.00    +0.000 A 
ATOM      9  C   UNL     1       1.709   8.588  21.987  0.00  0.00    +0.000 A 
ATOM     10  C   UNL     1       1.545   9.974  22.003  0.00  0.00    +0.000 A 
ATOM     11  C   UNL     1       0.863  10.612  20.967  0.00  0.00    +0.000 A 
ATOM     12  C   UNL     1       0.364   9.868  19.895  0.00  0.00    +0.000 A 
ATOM     13  C   UNL     1       0.495   8.480  19.899  0.00  0.00    +0.000 A 
BRANCH  12  14
ATOM     14  O   UNL     1      -0.269  10.393  18.802  0.00  0.00    +0.000 OA
BRANCH  14  15
ATOM     15  C   UNL     1      -1.560  10.941  19.057  0.00  0.00    +0.000 C 
BRANCH  15  16
ATOM     16  C   UNL     1      -2.400  10.800  17.816  0.00  0.00    +0.000 A 
ATOM     17  C   UNL     1      -1.977   9.999  16.749  0.00  0.00    +0.000 A 
ATOM     18  C   UNL     1      -2.773   9.865  15.610  0.00  0.00    +0.000 A 
ATOM     19  C   UNL     1      -3.991  10.538  15.525  0.00  0.00    +0.000 A 
ATOM     20  C   UNL     1      -4.411  11.356  16.573  0.00  0.00    +0.000 A 
ATOM     21  C   UNL     1      -3.618  11.490  17.712  0.00  0.00    +0.000 A 
ENDBRANCH  15  16
ENDBRANCH  14  15
ENDBRANCH  12  14
ENDBRANCH   4   8
BRANCH   7  22
ATOM     22  C   UNL     1       4.774   5.254  17.590  0.00  0.00    +0.000 A 
ATOM     23  C   UNL     1       4.811   4.561  16.372  0.00  0.00    +0.000 A 
ATOM     24  C   UNL     1       5.911   4.661  15.517  0.00  0.00    +0.000 A 
ATOM     25  C   UNL     1       7.006   5.439  15.878  0.00  0.00    +0.000 A 
ATOM     26  C   UNL     1       7.001   6.114  17.097  0.00  0.00    +0.000 A 
ATOM     27  C   UNL     1       5.889   6.030  17.943  0.00  0.00    +0.000 A 
ENDBRANCH   7  22
BRANCH   5  28
ATOM     28  C   UNL     1       1.543   3.221  20.608  0.00  0.00    +0.000 C 
ATOM     29  F   UNL     1       1.767   3.260  21.949  0.00  0.00    +0.000 F 
ATOM     30  F   UNL     1       0.194   3.319  20.455  0.00  0.00    +0.000 F 
ATOM     31  F   UNL     1       1.885   1.963  20.213  0.00  0.00    +0.000 F 
ENDBRANCH   5  28
TORSDOF 6
ENDMDL
MODEL 9
REMARK VINA RESULT:      -8.1      2.742      8.266
REMARK  Name = 
REMARK  6 active torsions:
REMARK  status: ('A' for Active; 'I' for Inactive)
REMARK    1  A    between atoms: C_4  and  C_5
REMARK    2  A    between atoms: C_9  and  O_10
REMARK    3  A    between atoms: O_10  and  C_11
REMARK    4  A    between atoms: C_11  and  C_12
REMARK    5  A    between atoms: C_19  and  C_20
REMARK    6  A    between atoms: N_25  and  C_26
REMARK                            x       y       z     vdW  Elec       q    Type
REMARK                         _______ _______ _______ _____ _____    ______ ____
ROOT
ATOM      1  O   UNL     1       3.047   7.724  18.626  0.00  0.00    +0.000 OA
ATOM      2  C   UNL     1       2.995   6.549  18.938  0.00  0.00    +0.000 C 
ATOM      3  C   UNL     1       2.139   5.953  19.996  0.00  0.00    +0.000 C 
ATOM      4  C   UNL     1       1.362   6.612  20.866  0.00  0.00    +0.000 C 
ATOM      5  C   UNL     1       2.392   4.501  19.904  0.00  0.00    +0.000 C 
ATOM      6  N   UNL     1       3.304   4.226  18.999  0.00  0.00    +0.000 NA
ATOM      7  N   UNL     1       3.700   5.441  18.450  0.00  0.00    +0.000 N 
ENDROOT
BRANCH   4   8
ATOM      8  C   UNL     1       1.150   8.062  20.852  0.00  0.00    +0.000 A 
ATOM      9  C   UNL     1       1.452   8.853  21.962  0.00  0.00    +0.000 A 
ATOM     10  C   UNL     1       1.241  10.232  21.912  0.00  0.00    +0.000 A 
ATOM     11  C   UNL     1       0.743  10.824  20.750  0.00  0.00    +0.000 A 
ATOM     12  C   UNL     1       0.479  10.041  19.624  0.00  0.00    +0.000 A 
ATOM     13  C   UNL     1       0.654   8.659  19.688  0.00  0.00    +0.000 A 
BRANCH  12  14
ATOM     14  O   UNL     1       0.044  10.521  18.418  0.00  0.00    +0.000 OA
BRANCH  14  15
ATOM     15  C   UNL     1      -0.698   9.592  17.632  0.00  0.00    +0.000 C 
BRANCH  15  16
ATOM     16  C   UNL     1      -2.021  10.213  17.269  0.00  0.00    +0.000 A 
ATOM     17  C   UNL     1      -2.764  10.926  18.217  0.00  0.00    +0.000 A 
ATOM     18  C   UNL     1      -3.981  11.510  17.863  0.00  0.00    +0.000 A 
ATOM     19  C   UNL     1      -4.469  11.376  16.564  0.00  0.00    +0.000 A 
ATOM     20  C   UNL     1      -3.748  10.649  15.618  0.00  0.00    +0.000 A 
ATOM     21  C   UNL     1      -2.530  10.067  15.970  0.00  0.00    +0.000 A 
ENDBRANCH  15  16
ENDBRANCH  14  15
ENDBRANCH  12  14
ENDBRANCH   4   8
BRANCH   7  22
ATOM     22  C   UNL     1       4.854   5.470  17.629  0.00  0.00    +0.000 A 
ATOM     23  C   UNL     1       4.802   5.060  16.289  0.00  0.00    +0.000 A 
ATOM     24  C   UNL     1       5.916   5.180  15.454  0.00  0.00    +0.000 A 
ATOM     25  C   UNL     1       7.110   5.691  15.953  0.00  0.00    +0.000 A 
ATOM     26  C   UNL     1       7.190   6.078  17.288  0.00  0.00    +0.000 A 
ATOM     27  C   UNL     1       6.068   5.977  18.119  0.00  0.00    +0.000 A 
ENDBRANCH   7  22
BRANCH   5  28
ATOM     28  C   UNL     1       1.697   3.454  20.736  0.00  0.00    +0.000 C 
ATOM     29  F   UNL     1       0.341   3.473  20.644  0.00  0.00    +0.000 F 
ATOM     30  F   UNL     1       2.075   2.193  20.386  0.00  0.00    +0.000 F 
ATOM     31  F   UNL     1       1.981   3.586  22.061  0.00  0.00    +0.000 F 
ENDBRANCH   5  28
TORSDOF 6
ENDMDL
