MODEL 1
REMARK VINA RESULT:      -7.4      0.000      0.000
REMARK  Name = 
REMARK  8 active torsions:
REMARK  status: ('A' for Active; 'I' for Inactive)
REMARK    1  A    between atoms: C_1  and  C_2
REMARK    2  A    between atoms: C_2  and  C_3
REMARK    3  A    between atoms: C_2  and  O_4
REMARK    4  A    between atoms: O_4  and  C_5
REMARK    5  A    between atoms: C_9  and  C_10
REMARK    6  A    between atoms: C_10  and  C_12
REMARK    7  A    between atoms: N_16  and  S_17
REMARK    8  A    between atoms: S_17  and  C_18
REMARK                            x       y       z     vdW  Elec       q    Type
REMARK                         _______ _______ _______ _____ _____    ______ ____
ROOT
ATOM      1  C   UNL     1       3.391   6.884  17.866  0.00  0.00    +0.000 C 
ATOM      2  O   UNL     1       4.357   7.519  17.424  0.00  0.00    +0.000 OA
ENDROOT
BRANCH   1   7
ATOM      3  C   UNL     1       0.963   9.656  18.856  0.00  0.00    +0.000 A 
ATOM      4  C   UNL     1       0.792   9.332  20.209  0.00  0.00    +0.000 A 
ATOM      5  C   UNL     1       1.376   8.194  20.748  0.00  0.00    +0.000 A 
ATOM      6  C   UNL     1       2.165   7.387  19.938  0.00  0.00    +0.000 A 
ATOM      7  C   UNL     1       2.353   7.695  18.578  0.00  0.00    +0.000 A 
ATOM      8  C   UNL     1       1.719   8.821  18.027  0.00  0.00    +0.000 A 
BRANCH   3   9
ATOM      9  O   UNL     1       0.534  10.914  18.541  0.00  0.00    +0.000 OA
BRANCH   9  11
ATOM     10  C   UNL     1      -0.873  12.797  18.429  0.00  0.00    +0.000 C 
ATOM     11  C   UNL     1      -0.836  11.288  18.705  0.00  0.00    +0.000 C 
ATOM     12  C   UNL     1      -1.719  10.601  17.670  0.00  0.00    +0.000 C 
ENDBRANCH   9  11
ENDBRANCH   3   9
ENDBRANCH   1   7
BRANCH   1  13
ATOM     13  C   UNL     1       3.258   5.382  17.615  0.00  0.00    +0.000 C 
ATOM     14  C   UNL     1       3.211   4.477  18.848  0.00  0.00    +0.000 C 
ATOM     15  C   UNL     1       4.516   4.515  19.632  0.00  0.00    +0.000 C 
ATOM     16  C   UNL     1       5.747   4.221  18.779  0.00  0.00    +0.000 C 
ATOM     17  N   UNL     1       5.713   4.974  17.510  0.00  0.00    +0.000 NA
ATOM     18  C   UNL     1       4.440   4.916  16.743  0.00  0.00    +0.000 C 
BRANCH  17  19
ATOM     19  S   UNL     1       7.141   5.005  16.597  0.00  0.00    +0.000 S 
ATOM     20  C   UNL     1       6.584   4.197  15.110  0.00  0.00    +0.000 C 
ATOM     21  O   UNL     1       7.441   6.381  16.251  0.00  0.00    +0.000 OA
ATOM     22  O   UNL     1       8.125   4.161  17.244  0.00  0.00    +0.000 OA
ENDBRANCH  17  19
ENDBRANCH   1  13
TORSDOF 5
ENDMDL
MODEL 2
REMARK VINA RESULT:      -7.3      1.955      2.658
REMARK  Name = 
REMARK  8 active torsions:
REMARK  status: ('A' for Active; 'I' for Inactive)
REMARK    1  A    between atoms: C_1  and  C_2
REMARK    2  A    between atoms: C_2  and  C_3
REMARK    3  A    between atoms: C_2  and  O_4
REMARK    4  A    between atoms: O_4  and  C_5
REMARK    5  A    between atoms: C_9  and  C_10
REMARK    6  A    between atoms: C_10  and  C_12
REMARK    7  A    between atoms: N_16  and  S_17
REMARK    8  A    between atoms: S_17  and  C_18
REMARK                            x       y       z     vdW  Elec       q    Type
REMARK                         _______ _______ _______ _____ _____    ______ ____
ROOT
ATOM      1  C   UNL     1       2.690   6.290  19.123  0.00  0.00    +0.000 C 
ATOM      2  O   UNL     1       2.922   5.761  20.219  0.00  0.00    +0.000 OA
ENDROOT
BRANCH   1   7
ATOM      3  C   UNL     1       0.800   9.468  20.063  0.00  0.00    +0.000 A 
ATOM      4  C   UNL     1       0.995  10.202  18.885  0.00  0.00    +0.000 A 
ATOM      5  C   UNL     1       1.795   9.710  17.864  0.00  0.00    +0.000 A 
ATOM      6  C   UNL     1       2.381   8.458  18.003  0.00  0.00    +0.000 A 
ATOM      7  C   UNL     1       2.196   7.702  19.177  0.00  0.00    +0.000 A 
ATOM      8  C   UNL     1       1.425   8.228  20.226  0.00  0.00    +0.000 A 
BRANCH   3   9
ATOM      9  O   UNL     1      -0.192   9.970  20.857  0.00  0.00    +0.000 OA
BRANCH   9  11
ATOM     10  C   UNL     1      -0.957  11.602  22.370  0.00  0.00    +0.000 C 
ATOM     11  C   UNL     1       0.101  10.512  22.147  0.00  0.00    +0.000 C 
ATOM     12  C   UNL     1      -0.074   9.460  23.236  0.00  0.00    +0.000 C 
ENDBRANCH   9  11
ENDBRANCH   3   9
ENDBRANCH   1   7
BRANCH   1  13
ATOM     13  C   UNL     1       2.977   5.548  17.818  0.00  0.00    +0.000 C 
ATOM     14  C   UNL     1       2.602   4.065  17.769  0.00  0.00    +0.000 C 
ATOM     15  C   UNL     1       3.425   3.238  18.747  0.00  0.00    +0.000 C 
ATOM     16  C   UNL     1       4.931   3.431  18.591  0.00  0.00    +0.000 C 
ATOM     17  N   UNL     1       5.280   4.861  18.474  0.00  0.00    +0.000 NA
ATOM     18  C   UNL     1       4.482   5.657  17.503  0.00  0.00    +0.000 C 
BRANCH  17  19
ATOM     19  S   UNL     1       6.920   5.265  18.611  0.00  0.00    +0.000 S 
ATOM     20  C   UNL     1       6.937   6.818  17.737  0.00  0.00    +0.000 C 
ATOM     21  O   UNL     1       7.214   5.552  20.002  0.00  0.00    +0.000 OA
ATOM     22  O   UNL     1       7.700   4.302  17.861  0.00  0.00    +0.000 OA
ENDBRANCH  17  19
ENDBRANCH   1  13
TORSDOF 5
ENDMDL
MODEL 3
REMARK VINA RESULT:      -7.2      3.616      7.117
REMARK  Name = 
REMARK  8 active torsions:
REMARK  status: ('A' for Active; 'I' for Inactive)
REMARK    1  A    between atoms: C_1  and  C_2
REMARK    2  A    between atoms: C_2  and  C_3
REMARK    3  A    between atoms: C_2  and  O_4
REMARK    4  A    between atoms: O_4  and  C_5
REMARK    5  A    between atoms: C_9  and  C_10
REMARK    6  A    between atoms: C_10  and  C_12
REMARK    7  A    between atoms: N_16  and  S_17
REMARK    8  A    between atoms: S_17  and  C_18
REMARK                            x       y       z     vdW  Elec       q    Type
REMARK                         _______ _______ _______ _____ _____    ______ ____
ROOT
ATOM      1  C   UNL     1       4.326   5.774  18.467  0.00  0.00    +0.000 C 
ATOM      2  O   UNL     1       4.723   5.599  19.626  0.00  0.00    +0.000 OA
ENDROOT
BRANCH   1   7
ATOM      3  C   UNL     1       5.996   5.160  15.091  0.00  0.00    +0.000 A 
ATOM      4  C   UNL     1       7.189   4.572  15.534  0.00  0.00    +0.000 A 
ATOM      5  C   UNL     1       7.472   4.469  16.889  0.00  0.00    +0.000 A 
ATOM      6  C   UNL     1       6.542   4.929  17.814  0.00  0.00    +0.000 A 
ATOM      7  C   UNL     1       5.336   5.520  17.391  0.00  0.00    +0.000 A 
ATOM      8  C   UNL     1       5.078   5.665  16.018  0.00  0.00    +0.000 A 
BRANCH   3   9
ATOM      9  O   UNL     1       5.759   4.969  13.760  0.00  0.00    +0.000 OA
BRANCH   9  11
ATOM     10  C   UNL     1       5.018   3.245  12.340  0.00  0.00    +0.000 C 
ATOM     11  C   UNL     1       6.238   3.803  13.086  0.00  0.00    +0.000 C 
ATOM     12  C   UNL     1       7.295   4.165  12.049  0.00  0.00    +0.000 C 
ENDBRANCH   9  11
ENDBRANCH   3   9
ENDBRANCH   1   7
BRANCH   1  13
ATOM     13  C   UNL     1       2.872   6.149  18.183  0.00  0.00    +0.000 C 
ATOM     14  C   UNL     1       2.172   7.036  19.215  0.00  0.00    +0.000 C 
ATOM     15  C   UNL     1       2.024   6.338  20.559  0.00  0.00    +0.000 C 
ATOM     16  C   UNL     1       1.353   4.970  20.464  0.00  0.00    +0.000 C 
ATOM     17  N   UNL     1       1.918   4.171  19.359  0.00  0.00    +0.000 NA
ATOM     18  C   UNL     1       2.042   4.856  18.045  0.00  0.00    +0.000 C 
BRANCH  17  19
ATOM     19  S   UNL     1       1.510   2.526  19.315  0.00  0.00    +0.000 S 
ATOM     20  C   UNL     1       2.913   1.875  18.430  0.00  0.00    +0.000 C 
ATOM     21  O   UNL     1       1.569   1.996  20.663  0.00  0.00    +0.000 OA
ATOM     22  O   UNL     1       0.327   2.363  18.494  0.00  0.00    +0.000 OA
ENDBRANCH  17  19
ENDBRANCH   1  13
TORSDOF 5
ENDMDL
MODEL 4
REMARK VINA RESULT:      -6.9      0.867      1.120
REMARK  Name = 
REMARK  8 active torsions:
REMARK  status: ('A' for Active; 'I' for Inactive)
REMARK    1  A    between atoms: C_1  and  C_2
REMARK    2  A    between atoms: C_2  and  C_3
REMARK    3  A    between atoms: C_2  and  O_4
REMARK    4  A    between atoms: O_4  and  C_5
REMARK    5  A    between atoms: C_9  and  C_10
REMARK    6  A    between atoms: C_10  and  C_12
REMARK    7  A    between atoms: N_16  and  S_17
REMARK    8  A    between atoms: S_17  and  C_18
REMARK                            x       y       z     vdW  Elec       q    Type
REMARK                         _______ _______ _______ _____ _____    ______ ____
ROOT
ATOM      1  C   UNL     1       3.276   7.072  17.920  0.00  0.00    +0.000 C 
ATOM      2  O   UNL     1       4.288   7.686  17.557  0.00  0.00    +0.000 OA
ENDROOT
BRANCH   1   7
ATOM      3  C   UNL     1       0.802   9.846  18.783  0.00  0.00    +0.000 A 
ATOM      4  C   UNL     1       0.634   9.581  20.149  0.00  0.00    +0.000 A 
ATOM      5  C   UNL     1       1.236   8.478  20.740  0.00  0.00    +0.000 A 
ATOM      6  C   UNL     1       2.040   7.648  19.967  0.00  0.00    +0.000 A 
ATOM      7  C   UNL     1       2.224   7.898  18.594  0.00  0.00    +0.000 A 
ATOM      8  C   UNL     1       1.573   8.987  17.993  0.00  0.00    +0.000 A 
BRANCH   3   9
ATOM      9  O   UNL     1       0.353  11.081  18.411  0.00  0.00    +0.000 OA
BRANCH   9  11
ATOM     10  C   UNL     1       2.148  12.603  18.388  0.00  0.00    +0.000 C 
ATOM     11  C   UNL     1       0.816  12.262  19.070  0.00  0.00    +0.000 C 
ATOM     12  C   UNL     1      -0.140  13.428  18.841  0.00  0.00    +0.000 C 
ENDBRANCH   9  11
ENDBRANCH   3   9
ENDBRANCH   1   7
BRANCH   1  13
ATOM     13  C   UNL     1       3.109   5.584  17.614  0.00  0.00    +0.000 C 
ATOM     14  C   UNL     1       2.864   4.656  18.806  0.00  0.00    +0.000 C 
ATOM     15  C   UNL     1       4.057   4.616  19.750  0.00  0.00    +0.000 C 
ATOM     16  C   UNL     1       5.373   4.281  19.053  0.00  0.00    +0.000 C 
ATOM     17  N   UNL     1       5.536   5.061  17.811  0.00  0.00    +0.000 NA
ATOM     18  C   UNL     1       4.371   5.081  16.887  0.00  0.00    +0.000 C 
BRANCH  17  19
ATOM     19  S   UNL     1       7.070   5.043  17.088  0.00  0.00    +0.000 S 
ATOM     20  C   UNL     1       6.728   4.055  15.645  0.00  0.00    +0.000 C 
ATOM     21  O   UNL     1       7.382   6.382  16.627  0.00  0.00    +0.000 OA
ATOM     22  O   UNL     1       7.979   4.312  17.947  0.00  0.00    +0.000 OA
ENDBRANCH  17  19
ENDBRANCH   1  13
TORSDOF 5
ENDMDL
MODEL 5
REMARK VINA RESULT:      -6.9      4.364      7.589
REMARK  Name = 
REMARK  8 active torsions:
REMARK  status: ('A' for Active; 'I' for Inactive)
REMARK    1  A    between atoms: C_1  and  C_2
REMARK    2  A    between atoms: C_2  and  C_3
REMARK    3  A    between atoms: C_2  and  O_4
REMARK    4  A    between atoms: O_4  and  C_5
REMARK    5  A    between atoms: C_9  and  C_10
REMARK    6  A    between atoms: C_10  and  C_12
REMARK    7  A    between atoms: N_16  and  S_17
REMARK    8  A    between atoms: S_17  and  C_18
REMARK                            x       y       z     vdW  Elec       q    Type
REMARK                         _______ _______ _______ _____ _____    ______ ____
ROOT
ATOM      1  C   UNL     1       3.827   3.650  17.205  0.00  0.00    +0.000 C 
ATOM      2  O   UNL     1       3.996   2.502  17.640  0.00  0.00    +0.000 OA
ENDROOT
BRANCH   1   7
ATOM      3  C   UNL     1       6.131   4.397  14.257  0.00  0.00    +0.000 A 
ATOM      4  C   UNL     1       7.263   4.832  14.961  0.00  0.00    +0.000 A 
ATOM      5  C   UNL     1       7.235   4.963  16.342  0.00  0.00    +0.000 A 
ATOM      6  C   UNL     1       6.077   4.628  17.033  0.00  0.00    +0.000 A 
ATOM      7  C   UNL     1       4.931   4.186  16.347  0.00  0.00    +0.000 A 
ATOM      8  C   UNL     1       4.950   4.102  14.945  0.00  0.00    +0.000 A 
BRANCH   3   9
ATOM      9  O   UNL     1       6.389   4.092  12.951  0.00  0.00    +0.000 OA
BRANCH   9  11
ATOM     10  C   UNL     1       4.634   3.358  11.565  0.00  0.00    +0.000 C 
ATOM     11  C   UNL     1       5.868   2.901  12.356  0.00  0.00    +0.000 C 
ATOM     12  C   UNL     1       6.861   2.302  11.368  0.00  0.00    +0.000 C 
ENDBRANCH   9  11
ENDBRANCH   3   9
ENDBRANCH   1   7
BRANCH   1  13
ATOM     13  C   UNL     1       2.531   4.410  17.481  0.00  0.00    +0.000 C 
ATOM     14  C   UNL     1       2.654   5.911  17.756  0.00  0.00    +0.000 C 
ATOM     15  C   UNL     1       3.423   6.192  19.039  0.00  0.00    +0.000 C 
ATOM     16  C   UNL     1       2.869   5.454  20.255  0.00  0.00    +0.000 C 
ATOM     17  N   UNL     1       2.595   4.037  19.944  0.00  0.00    +0.000 NA
ATOM     18  C   UNL     1       1.828   3.773  18.697  0.00  0.00    +0.000 C 
BRANCH  17  19
ATOM     19  S   UNL     1       2.278   3.010  21.254  0.00  0.00    +0.000 S 
ATOM     20  C   UNL     1       3.655   1.888  21.117  0.00  0.00    +0.000 C 
ATOM     21  O   UNL     1       2.454   3.758  22.484  0.00  0.00    +0.000 OA
ATOM     22  O   UNL     1       1.055   2.280  20.987  0.00  0.00    +0.000 OA
ENDBRANCH  17  19
ENDBRANCH   1  13
TORSDOF 5
ENDMDL
MODEL 6
REMARK VINA RESULT:      -6.9      2.674      3.610
REMARK  Name = 
REMARK  8 active torsions:
REMARK  status: ('A' for Active; 'I' for Inactive)
REMARK    1  A    between atoms: C_1  and  C_2
REMARK    2  A    between atoms: C_2  and  C_3
REMARK    3  A    between atoms: C_2  and  O_4
REMARK    4  A    between atoms: O_4  and  C_5
REMARK    5  A    between atoms: C_9  and  C_10
REMARK    6  A    between atoms: C_10  and  C_12
REMARK    7  A    between atoms: N_16  and  S_17
REMARK    8  A    between atoms: S_17  and  C_18
REMARK                            x       y       z     vdW  Elec       q    Type
REMARK                         _______ _______ _______ _____ _____    ______ ____
ROOT
ATOM      1  C   UNL     1       2.895   6.363  19.046  0.00  0.00    +0.000 C 
ATOM      2  O   UNL     1       2.097   5.437  19.245  0.00  0.00    +0.000 OA
ENDROOT
BRANCH   1   7
ATOM      3  C   UNL     1       0.826   9.443  19.938  0.00  0.00    +0.000 A 
ATOM      4  C   UNL     1       0.930  10.141  18.727  0.00  0.00    +0.000 A 
ATOM      5  C   UNL     1       1.725   9.663  17.695  0.00  0.00    +0.000 A 
ATOM      6  C   UNL     1       2.400   8.459  17.859  0.00  0.00    +0.000 A 
ATOM      7  C   UNL     1       2.307   7.740  19.066  0.00  0.00    +0.000 A 
ATOM      8  C   UNL     1       1.540   8.254  20.123  0.00  0.00    +0.000 A 
BRANCH   3   9
ATOM      9  O   UNL     1      -0.169   9.908  20.750  0.00  0.00    +0.000 OA
BRANCH   9  11
ATOM     10  C   UNL     1      -0.186  12.052  21.720  0.00  0.00    +0.000 C 
ATOM     11  C   UNL     1       0.133  10.573  21.978  0.00  0.00    +0.000 C 
ATOM     12  C   UNL     1      -0.775  10.087  23.102  0.00  0.00    +0.000 C 
ENDBRANCH   9  11
ENDBRANCH   3   9
ENDBRANCH   1   7
BRANCH   1  13
ATOM     13  C   UNL     1       4.389   6.088  18.874  0.00  0.00    +0.000 C 
ATOM     14  C   UNL     1       4.931   6.085  17.443  0.00  0.00    +0.000 C 
ATOM     15  C   UNL     1       4.341   4.953  16.614  0.00  0.00    +0.000 C 
ATOM     16  C   UNL     1       4.492   3.580  17.264  0.00  0.00    +0.000 C 
ATOM     17  N   UNL     1       4.122   3.618  18.692  0.00  0.00    +0.000 NA
ATOM     18  C   UNL     1       4.718   4.717  19.498  0.00  0.00    +0.000 C 
BRANCH  17  19
ATOM     19  S   UNL     1       3.933   2.127  19.476  0.00  0.00    +0.000 S 
ATOM     20  C   UNL     1       2.429   2.435  20.381  0.00  0.00    +0.000 C 
ATOM     21  O   UNL     1       3.636   1.114  18.482  0.00  0.00    +0.000 OA
ATOM     22  O   UNL     1       5.017   1.958  20.422  0.00  0.00    +0.000 OA
ENDBRANCH  17  19
ENDBRANCH   1  13
TORSDOF 5
ENDMDL
MODEL 7
REMARK VINA RESULT:      -6.9      2.322      3.030
REMARK  Name = 
REMARK  8 active torsions:
REMARK  status: ('A' for Active; 'I' for Inactive)
REMARK    1  A    between atoms: C_1  and  C_2
REMARK    2  A    between atoms: C_2  and  C_3
REMARK    3  A    between atoms: C_2  and  O_4
REMARK    4  A    between atoms: O_4  and  C_5
REMARK    5  A    between atoms: C_9  and  C_10
REMARK    6  A    between atoms: C_10  and  C_12
REMARK    7  A    between atoms: N_16  and  S_17
REMARK    8  A    between atoms: S_17  and  C_18
REMARK                            x       y       z     vdW  Elec       q    Type
REMARK                         _______ _______ _______ _____ _____    ______ ____
ROOT
ATOM      1  C   UNL     1       2.608   4.276  17.879  0.00  0.00    +0.000 C 
ATOM      2  O   UNL     1       1.577   3.899  17.306  0.00  0.00    +0.000 OA
ENDROOT
BRANCH   1   7
ATOM      3  C   UNL     1       1.931   7.202  20.232  0.00  0.00    +0.000 A 
ATOM      4  C   UNL     1       2.052   8.258  19.317  0.00  0.00    +0.000 A 
ATOM      5  C   UNL     1       2.433   8.023  18.004  0.00  0.00    +0.000 A 
ATOM      6  C   UNL     1       2.667   6.718  17.588  0.00  0.00    +0.000 A 
ATOM      7  C   UNL     1       2.548   5.642  18.489  0.00  0.00    +0.000 A 
ATOM      8  C   UNL     1       2.209   5.893  19.828  0.00  0.00    +0.000 A 
BRANCH   3   9
ATOM      9  O   UNL     1       1.322   7.563  21.400  0.00  0.00    +0.000 OA
BRANCH   9  11
ATOM     10  C   UNL     1      -0.781   8.591  21.645  0.00  0.00    +0.000 C 
ATOM     11  C   UNL     1       0.729   8.855  21.553  0.00  0.00    +0.000 C 
ATOM     12  C   UNL     1       1.170   9.509  22.857  0.00  0.00    +0.000 C 
ENDBRANCH   9  11
ENDBRANCH   3   9
ENDBRANCH   1   7
BRANCH   1  13
ATOM     13  C   UNL     1       3.818   3.351  18.005  0.00  0.00    +0.000 C 
ATOM     14  C   UNL     1       4.663   3.488  19.274  0.00  0.00    +0.000 C 
ATOM     15  C   UNL     1       5.340   4.848  19.363  0.00  0.00    +0.000 C 
ATOM     16  C   UNL     1       6.151   5.207  18.120  0.00  0.00    +0.000 C 
ATOM     17  N   UNL     1       5.394   4.922  16.885  0.00  0.00    +0.000 NA
ATOM     18  C   UNL     1       4.751   3.584  16.800  0.00  0.00    +0.000 C 
BRANCH  17  19
ATOM     19  S   UNL     1       6.018   5.551  15.439  0.00  0.00    +0.000 S 
ATOM     20  C   UNL     1       5.613   4.227  14.318  0.00  0.00    +0.000 C 
ATOM     21  O   UNL     1       5.224   6.700  15.052  0.00  0.00    +0.000 OA
ATOM     22  O   UNL     1       7.460   5.637  15.555  0.00  0.00    +0.000 OA
ENDBRANCH  17  19
ENDBRANCH   1  13
TORSDOF 5
ENDMDL
MODEL 8
REMARK VINA RESULT:      -6.9      4.194      6.865
REMARK  Name = 
REMARK  8 active torsions:
REMARK  status: ('A' for Active; 'I' for Inactive)
REMARK    1  A    between atoms: C_1  and  C_2
REMARK    2  A    between atoms: C_2  and  C_3
REMARK    3  A    between atoms: C_2  and  O_4
REMARK    4  A    between atoms: O_4  and  C_5
REMARK    5  A    between atoms: C_9  and  C_10
REMARK    6  A    between atoms: C_10  and  C_12
REMARK    7  A    between atoms: N_16  and  S_17
REMARK    8  A    between atoms: S_17  and  C_18
REMARK                            x       y       z     vdW  Elec       q    Type
REMARK                         _______ _______ _______ _____ _____    ______ ____
ROOT
ATOM      1  C   UNL     1       3.839   3.441  17.215  0.00  0.00    +0.000 C 
ATOM      2  O   UNL     1       3.932   2.267  17.596  0.00  0.00    +0.000 OA
ENDROOT
BRANCH   1   7
ATOM      3  C   UNL     1       6.889   5.500  16.205  0.00  0.00    +0.000 A 
ATOM      4  C   UNL     1       6.904   5.220  14.832  0.00  0.00    +0.000 A 
ATOM      5  C   UNL     1       6.006   4.319  14.279  0.00  0.00    +0.000 A 
ATOM      6  C   UNL     1       5.062   3.711  15.098  0.00  0.00    +0.000 A 
ATOM      7  C   UNL     1       5.028   3.979  16.479  0.00  0.00    +0.000 A 
ATOM      8  C   UNL     1       5.970   4.856  17.040  0.00  0.00    +0.000 A 
BRANCH   3   9
ATOM      9  O   UNL     1       7.661   6.573  16.549  0.00  0.00    +0.000 OA
BRANCH   9  11
ATOM     10  C   UNL     1       8.120   6.490  18.856  0.00  0.00    +0.000 C 
ATOM     11  C   UNL     1       7.418   7.299  17.756  0.00  0.00    +0.000 C 
ATOM     12  C   UNL     1       8.064   8.679  17.705  0.00  0.00    +0.000 C 
ENDBRANCH   9  11
ENDBRANCH   3   9
ENDBRANCH   1   7
BRANCH   1  13
ATOM     13  C   UNL     1       2.551   4.236  17.427  0.00  0.00    +0.000 C 
ATOM     14  C   UNL     1       2.697   5.746  17.635  0.00  0.00    +0.000 C 
ATOM     15  C   UNL     1       3.444   6.074  18.920  0.00  0.00    +0.000 C 
ATOM     16  C   UNL     1       2.851   5.402  20.157  0.00  0.00    +0.000 C 
ATOM     17  N   UNL     1       2.558   3.977  19.905  0.00  0.00    +0.000 NA
ATOM     18  C   UNL     1       1.813   3.669  18.656  0.00  0.00    +0.000 C 
BRANCH  17  19
ATOM     19  S   UNL     1       2.196   3.018  21.255  0.00  0.00    +0.000 S 
ATOM     20  C   UNL     1       3.591   1.910  21.239  0.00  0.00    +0.000 C 
ATOM     21  O   UNL     1       2.308   3.834  22.449  0.00  0.00    +0.000 OA
ATOM     22  O   UNL     1       0.995   2.257  20.975  0.00  0.00    +0.000 OA
ENDBRANCH  17  19
ENDBRANCH   1  13
TORSDOF 5
ENDMDL
MODEL 9
REMARK VINA RESULT:      -6.9      3.625      7.371
REMARK  Name = 
REMARK  8 active torsions:
REMARK  status: ('A' for Active; 'I' for Inactive)
REMARK    1  A    between atoms: C_1  and  C_2
REMARK    2  A    between atoms: C_2  and  C_3
REMARK    3  A    between atoms: C_2  and  O_4
REMARK    4  A    between atoms: O_4  and  C_5
REMARK    5  A    between atoms: C_9  and  C_10
REMARK    6  A    between atoms: C_10  and  C_12
REMARK    7  A    between atoms: N_16  and  S_17
REMARK    8  A    between atoms: S_17  and  C_18
REMARK                            x       y       z     vdW  Elec       q    Type
REMARK                         _______ _______ _______ _____ _____    ______ ____
ROOT
ATOM      1  C   UNL     1       4.392   5.528  17.786  0.00  0.00    +0.000 C 
ATOM      2  O   UNL     1       5.001   5.614  18.861  0.00  0.00    +0.000 OA
ENDROOT
BRANCH   1   7
ATOM      3  C   UNL     1       5.879   4.204  14.530  0.00  0.00    +0.000 A 
ATOM      4  C   UNL     1       7.157   4.773  14.620  0.00  0.00    +0.000 A 
ATOM      5  C   UNL     1       7.484   5.631  15.660  0.00  0.00    +0.000 A 
ATOM      6  C   UNL     1       6.536   5.903  16.640  0.00  0.00    +0.000 A 
ATOM      7  C   UNL     1       5.247   5.341  16.570  0.00  0.00    +0.000 A 
ATOM      8  C   UNL     1       4.908   4.512  15.489  0.00  0.00    +0.000 A 
BRANCH   3   9
ATOM      9  O   UNL     1       5.792   3.208  13.600  0.00  0.00    +0.000 OA
BRANCH   9  11
ATOM     10  C   UNL     1       6.784   2.479  11.595  0.00  0.00    +0.000 C 
ATOM     11  C   UNL     1       5.813   3.501  12.202  0.00  0.00    +0.000 C 
ATOM     12  C   UNL     1       4.443   3.275  11.574  0.00  0.00    +0.000 C 
ENDBRANCH   9  11
ENDBRANCH   3   9
ENDBRANCH   1   7
BRANCH   1  13
ATOM     13  C   UNL     1       2.864   5.536  17.746  0.00  0.00    +0.000 C 
ATOM     14  C   UNL     1       2.163   6.749  18.361  0.00  0.00    +0.000 C 
ATOM     15  C   UNL     1       2.404   6.845  19.861  0.00  0.00    +0.000 C 
ATOM     16  C   UNL     1       2.056   5.565  20.617  0.00  0.00    +0.000 C 
ATOM     17  N   UNL     1       2.596   4.374  19.933  0.00  0.00    +0.000 NA
ATOM     18  C   UNL     1       2.340   4.280  18.471  0.00  0.00    +0.000 C 
BRANCH  17  19
ATOM     19  S   UNL     1       2.572   2.915  20.797  0.00  0.00    +0.000 S 
ATOM     20  C   UNL     1       1.469   1.961  19.773  0.00  0.00    +0.000 C 
ATOM     21  O   UNL     1       3.882   2.300  20.707  0.00  0.00    +0.000 OA
ATOM     22  O   UNL     1       1.934   3.145  22.078  0.00  0.00    +0.000 OA
ENDBRANCH  17  19
ENDBRANCH   1  13
TORSDOF 5
ENDMDL
