MODEL 1
REMARK VINA RESULT:      -7.5      0.000      0.000
REMARK  Name = 
REMARK  14 active torsions:
REMARK  status: ('A' for Active; 'I' for Inactive)
REMARK    1  A    between atoms: C_1  and  C_2
REMARK    2  A    between atoms: C_2  and  N_3
REMARK    3  A    between atoms: N_3  and  C_4
REMARK    4  A    between atoms: N_3  and  C_6
REMARK    5  A    between atoms: C_4  and  C_5
REMARK    6  A    between atoms: C_6  and  C_7
REMARK    7  A    between atoms: C_7  and  N_8
REMARK    8  A    between atoms: N_8  and  C_9
REMARK    9  A    between atoms: N_16  and  C_17
REMARK   10  A    between atoms: C_24  and  O_25
REMARK   11  A    between atoms: O_25  and  C_26
REMARK   12  A    between atoms: C_26  and  C_27
REMARK   13  A    between atoms: C_27  and  N_28
REMARK   14  A    between atoms: N_28  and  C_29
REMARK                            x       y       z     vdW  Elec       q    Type
REMARK                         _______ _______ _______ _____ _____    ______ ____
ROOT
ATOM      1  C   UNL     1       2.448   6.442  20.397  0.00  0.00    +0.000 A 
ATOM      2  C   UNL     1       3.115   6.519  19.149  0.00  0.00    +0.000 A 
ATOM      3  C   UNL     1       3.950   5.448  18.725  0.00  0.00    +0.000 A 
ATOM      4  C   UNL     1       4.612   5.467  17.493  0.00  0.00    +0.000 A 
ATOM      5  C   UNL     1       4.449   6.542  16.645  0.00  0.00    +0.000 A 
ATOM      6  C   UNL     1       3.631   7.603  17.020  0.00  0.00    +0.000 A 
ATOM      7  C   UNL     1       2.948   7.626  18.263  0.00  0.00    +0.000 A 
ATOM      8  N   UNL     1       2.137   8.669  18.617  0.00  0.00    +0.000 N 
ATOM      9  C   UNL     1       1.879   9.836  17.751  0.00  0.00    +0.000 C 
ATOM     10  C   UNL     1       1.489   8.652  19.860  0.00  0.00    +0.000 A 
ATOM     11  C   UNL     1       1.674   7.565  20.693  0.00  0.00    +0.000 A 
ATOM     12  O   UNL     1       0.965   7.749  21.844  0.00  0.00    +0.000 OA
ATOM     13  C   UNL     1       0.308   8.929  21.756  0.00  0.00    +0.000 A 
ATOM     14  C   UNL     1      -0.529   9.446  22.737  0.00  0.00    +0.000 A 
ATOM     15  C   UNL     1      -1.130  10.680  22.467  0.00  0.00    +0.000 A 
ATOM     16  C   UNL     1      -0.885  11.346  21.267  0.00  0.00    +0.000 A 
ATOM     17  C   UNL     1      -0.049  10.776  20.287  0.00  0.00    +0.000 A 
ATOM     18  C   UNL     1       0.583   9.539  20.540  0.00  0.00    +0.000 A 
ENDROOT
BRANCH   1  19
ATOM     19  N   UNL     1       2.447   5.277  21.154  0.00  0.00    +0.000 N 
ATOM     20  H   UNL     1       2.913   5.243  22.060  0.00  0.00    +0.000 HD
BRANCH  19  21
ATOM     21  C   UNL     1       1.430   4.244  20.980  0.00  0.00    +0.000 C 
BRANCH  21  22
ATOM     22  C   UNL     1       2.080   2.847  20.910  0.00  0.00    +0.000 C 
BRANCH  22  23
ATOM     23  N   UNL     1       1.858   2.096  19.653  0.00  0.00    +0.000 NA
BRANCH  23  25
ATOM     24  C   UNL     1       1.387   3.543  17.625  0.00  0.00    +0.000 C 
ATOM     25  C   UNL     1       0.840   2.752  18.809  0.00  0.00    +0.000 C 
ENDBRANCH  23  25
BRANCH  23  26
ATOM     26  C   UNL     1       3.145   1.879  18.955  0.00  0.00    +0.000 C 
ATOM     27  C   UNL     1       4.412   2.066  19.792  0.00  0.00    +0.000 C 
ENDBRANCH  23  26
ENDBRANCH  22  23
ENDBRANCH  21  22
ENDBRANCH  19  21
ENDBRANCH   1  19
BRANCH  16  28
ATOM     28  O   UNL     1      -1.434  12.545  20.901  0.00  0.00    +0.000 OA
BRANCH  28  29
ATOM     29  C   UNL     1      -2.567  12.498  20.031  0.00  0.00    +0.000 C 
BRANCH  29  30
ATOM     30  C   UNL     1      -3.857  12.737  20.841  0.00  0.00    +0.000 C 
BRANCH  30  31
ATOM     31  N   UNL     1      -5.178  12.693  20.004  0.00  0.00    +0.000 N 
ATOM     32  C   UNL     1      -5.707  14.106  19.783  0.00  0.00    +0.000 C 
ATOM     33  C   UNL     1      -4.826  12.030  18.631  0.00  0.00    +0.000 C 
ATOM     34  C   UNL     1      -6.084  11.688  17.820  0.00  0.00    +0.000 C 
ATOM     35  O   UNL     1      -6.955  10.831  18.563  0.00  0.00    +0.000 OA
ATOM     36  C   UNL     1      -7.410  11.461  19.760  0.00  0.00    +0.000 C 
ATOM     37  C   UNL     1      -6.239  11.794  20.693  0.00  0.00    +0.000 C 
ENDBRANCH  30  31
ENDBRANCH  29  30
ENDBRANCH  28  29
ENDBRANCH  16  28
TORSDOF 10
ENDMDL
MODEL 2
REMARK VINA RESULT:      -7.4      1.971      9.824
REMARK  Name = 
REMARK  14 active torsions:
REMARK  status: ('A' for Active; 'I' for Inactive)
REMARK    1  A    between atoms: C_1  and  C_2
REMARK    2  A    between atoms: C_2  and  N_3
REMARK    3  A    between atoms: N_3  and  C_4
REMARK    4  A    between atoms: N_3  and  C_6
REMARK    5  A    between atoms: C_4  and  C_5
REMARK    6  A    between atoms: C_6  and  C_7
REMARK    7  A    between atoms: C_7  and  N_8
REMARK    8  A    between atoms: N_8  and  C_9
REMARK    9  A    between atoms: N_16  and  C_17
REMARK   10  A    between atoms: C_24  and  O_25
REMARK   11  A    between atoms: O_25  and  C_26
REMARK   12  A    between atoms: C_26  and  C_27
REMARK   13  A    between atoms: C_27  and  N_28
REMARK   14  A    between atoms: N_28  and  C_29
REMARK                            x       y       z     vdW  Elec       q    Type
REMARK                         _______ _______ _______ _____ _____    ______ ____
ROOT
ATOM      1  C   UNL     1      -2.055  11.946  19.645  0.00  0.00    +0.000 A 
ATOM      2  C   UNL     1      -2.377  12.183  21.005  0.00  0.00    +0.000 A 
ATOM      3  C   UNL     1      -3.397  13.114  21.340  0.00  0.00    +0.000 A 
ATOM      4  C   UNL     1      -3.766  13.366  22.665  0.00  0.00    +0.000 A 
ATOM      5  C   UNL     1      -3.142  12.688  23.690  0.00  0.00    +0.000 A 
ATOM      6  C   UNL     1      -2.146  11.760  23.401  0.00  0.00    +0.000 A 
ATOM      7  C   UNL     1      -1.738  11.481  22.072  0.00  0.00    +0.000 A 
ATOM      8  N   UNL     1      -0.766  10.558  21.798  0.00  0.00    +0.000 N 
ATOM      9  C   UNL     1      -0.079   9.762  22.834  0.00  0.00    +0.000 C 
ATOM     10  C   UNL     1      -0.390  10.321  20.469  0.00  0.00    +0.000 A 
ATOM     11  C   UNL     1      -1.028  11.019  19.462  0.00  0.00    +0.000 A 
ATOM     12  O   UNL     1      -0.513  10.646  18.254  0.00  0.00    +0.000 OA
ATOM     13  C   UNL     1       0.433   9.703  18.467  0.00  0.00    +0.000 A 
ATOM     14  C   UNL     1       1.166   9.074  17.468  0.00  0.00    +0.000 A 
ATOM     15  C   UNL     1       2.099   8.115  17.878  0.00  0.00    +0.000 A 
ATOM     16  C   UNL     1       2.273   7.821  19.230  0.00  0.00    +0.000 A 
ATOM     17  C   UNL     1       1.490   8.462  20.211  0.00  0.00    +0.000 A 
ATOM     18  C   UNL     1       0.554   9.446  19.826  0.00  0.00    +0.000 A 
ENDROOT
BRANCH   1  19
ATOM     19  N   UNL     1      -2.820  12.472  18.612  0.00  0.00    +0.000 N 
ATOM     20  H   UNL     1      -2.759  13.459  18.367  0.00  0.00    +0.000 HD
BRANCH  19  21
ATOM     21  C   UNL     1      -3.346  11.634  17.536  0.00  0.00    +0.000 C 
BRANCH  21  22
ATOM     22  C   UNL     1      -4.876  11.794  17.421  0.00  0.00    +0.000 C 
BRANCH  22  23
ATOM     23  N   UNL     1      -5.591  12.072  18.688  0.00  0.00    +0.000 NA
BRANCH  23  25
ATOM     24  C   UNL     1      -7.300  13.488  17.463  0.00  0.00    +0.000 C 
ATOM     25  C   UNL     1      -6.319  13.354  18.623  0.00  0.00    +0.000 C 
ENDBRANCH  23  25
BRANCH  23  26
ATOM     26  C   UNL     1      -6.457  10.925  19.045  0.00  0.00    +0.000 C 
ATOM     27  C   UNL     1      -7.208  11.027  20.373  0.00  0.00    +0.000 C 
ENDBRANCH  23  26
ENDBRANCH  22  23
ENDBRANCH  21  22
ENDBRANCH  19  21
ENDBRANCH   1  19
BRANCH  16  28
ATOM     28  O   UNL     1       3.144   6.892  19.731  0.00  0.00    +0.000 OA
BRANCH  28  29
ATOM     29  C   UNL     1       3.549   5.843  18.848  0.00  0.00    +0.000 C 
BRANCH  29  30
ATOM     30  C   UNL     1       2.337   4.953  18.506  0.00  0.00    +0.000 C 
BRANCH  30  31
ATOM     31  N   UNL     1       2.237   3.630  19.336  0.00  0.00    +0.000 N 
ATOM     32  C   UNL     1       1.720   2.497  18.456  0.00  0.00    +0.000 C 
ATOM     33  C   UNL     1       3.679   3.300  19.845  0.00  0.00    +0.000 C 
ATOM     34  C   UNL     1       3.675   2.174  20.888  0.00  0.00    +0.000 C 
ATOM     35  O   UNL     1       2.834   2.504  21.996  0.00  0.00    +0.000 OA
ATOM     36  C   UNL     1       1.478   2.675  21.588  0.00  0.00    +0.000 C 
ATOM     37  C   UNL     1       1.339   3.829  20.586  0.00  0.00    +0.000 C 
ENDBRANCH  30  31
ENDBRANCH  29  30
ENDBRANCH  28  29
ENDBRANCH  16  28
TORSDOF 10
ENDMDL
MODEL 3
REMARK VINA RESULT:      -7.4      2.616      4.015
REMARK  Name = 
REMARK  14 active torsions:
REMARK  status: ('A' for Active; 'I' for Inactive)
REMARK    1  A    between atoms: C_1  and  C_2
REMARK    2  A    between atoms: C_2  and  N_3
REMARK    3  A    between atoms: N_3  and  C_4
REMARK    4  A    between atoms: N_3  and  C_6
REMARK    5  A    between atoms: C_4  and  C_5
REMARK    6  A    between atoms: C_6  and  C_7
REMARK    7  A    between atoms: C_7  and  N_8
REMARK    8  A    between atoms: N_8  and  C_9
REMARK    9  A    between atoms: N_16  and  C_17
REMARK   10  A    between atoms: C_24  and  O_25
REMARK   11  A    between atoms: O_25  and  C_26
REMARK   12  A    between atoms: C_26  and  C_27
REMARK   13  A    between atoms: C_27  and  N_28
REMARK   14  A    between atoms: N_28  and  C_29
REMARK                            x       y       z     vdW  Elec       q    Type
REMARK                         _______ _______ _______ _____ _____    ______ ____
ROOT
ATOM      1  C   UNL     1       2.539   6.336  20.282  0.00  0.00    +0.000 A 
ATOM      2  C   UNL     1       3.223   6.442  19.046  0.00  0.00    +0.000 A 
ATOM      3  C   UNL     1       4.051   5.375  18.600  0.00  0.00    +0.000 A 
ATOM      4  C   UNL     1       4.729   5.423  17.378  0.00  0.00    +0.000 A 
ATOM      5  C   UNL     1       4.590   6.524  16.560  0.00  0.00    +0.000 A 
ATOM      6  C   UNL     1       3.779   7.583  16.957  0.00  0.00    +0.000 A 
ATOM      7  C   UNL     1       3.081   7.577  18.191  0.00  0.00    +0.000 A 
ATOM      8  N   UNL     1       2.276   8.619  18.566  0.00  0.00    +0.000 N 
ATOM      9  C   UNL     1       2.043   9.814  17.732  0.00  0.00    +0.000 C 
ATOM     10  C   UNL     1       1.612   8.572  19.799  0.00  0.00    +0.000 A 
ATOM     11  C   UNL     1       1.774   7.458  20.602  0.00  0.00    +0.000 A 
ATOM     12  O   UNL     1       1.052   7.617  21.749  0.00  0.00    +0.000 OA
ATOM     13  C   UNL     1       0.410   8.806  21.688  0.00  0.00    +0.000 A 
ATOM     14  C   UNL     1      -0.434   9.303  22.673  0.00  0.00    +0.000 A 
ATOM     15  C   UNL     1      -1.018  10.552  22.433  0.00  0.00    +0.000 A 
ATOM     16  C   UNL     1      -0.749  11.251  21.257  0.00  0.00    +0.000 A 
ATOM     17  C   UNL     1       0.093  10.700  20.270  0.00  0.00    +0.000 A 
ATOM     18  C   UNL     1       0.708   9.449  20.495  0.00  0.00    +0.000 A 
ENDROOT
BRANCH   1  19
ATOM     19  N   UNL     1       2.515   5.149  21.004  0.00  0.00    +0.000 N 
ATOM     20  H   UNL     1       3.065   5.045  21.855  0.00  0.00    +0.000 HD
BRANCH  19  21
ATOM     21  C   UNL     1       1.401   4.209  20.908  0.00  0.00    +0.000 C 
BRANCH  21  22
ATOM     22  C   UNL     1       1.917   2.756  20.882  0.00  0.00    +0.000 C 
BRANCH  22  23
ATOM     23  N   UNL     1       1.915   2.096  19.556  0.00  0.00    +0.000 NA
BRANCH  23  25
ATOM     24  C   UNL     1       1.759   3.387  17.381  0.00  0.00    +0.000 C 
ATOM     25  C   UNL     1       1.048   2.813  18.601  0.00  0.00    +0.000 C 
ENDBRANCH  23  25
BRANCH  23  26
ATOM     26  C   UNL     1       3.304   1.924  19.072  0.00  0.00    +0.000 C 
ATOM     27  C   UNL     1       4.416   2.166  20.094  0.00  0.00    +0.000 C 
ENDBRANCH  23  26
ENDBRANCH  22  23
ENDBRANCH  21  22
ENDBRANCH  19  21
ENDBRANCH   1  19
BRANCH  16  28
ATOM     28  O   UNL     1      -1.280  12.466  20.920  0.00  0.00    +0.000 OA
BRANCH  28  29
ATOM     29  C   UNL     1      -0.918  12.998  19.644  0.00  0.00    +0.000 C 
BRANCH  29  30
ATOM     30  C   UNL     1      -0.481  14.469  19.798  0.00  0.00    +0.000 C 
BRANCH  30  31
ATOM     31  N   UNL     1       1.056  14.719  19.643  0.00  0.00    +0.000 N 
ATOM     32  C   UNL     1       1.733  14.683  21.010  0.00  0.00    +0.000 C 
ATOM     33  C   UNL     1       1.616  13.573  18.737  0.00  0.00    +0.000 C 
ATOM     34  C   UNL     1       3.060  13.846  18.293  0.00  0.00    +0.000 C 
ATOM     35  O   UNL     1       3.157  15.098  17.609  0.00  0.00    +0.000 OA
ATOM     36  C   UNL     1       2.786  16.185  18.454  0.00  0.00    +0.000 C 
ATOM     37  C   UNL     1       1.328  16.061  18.913  0.00  0.00    +0.000 C 
ENDBRANCH  30  31
ENDBRANCH  29  30
ENDBRANCH  28  29
ENDBRANCH  16  28
TORSDOF 10
ENDMDL
MODEL 4
REMARK VINA RESULT:      -7.3      2.802      9.820
REMARK  Name = 
REMARK  14 active torsions:
REMARK  status: ('A' for Active; 'I' for Inactive)
REMARK    1  A    between atoms: C_1  and  C_2
REMARK    2  A    between atoms: C_2  and  N_3
REMARK    3  A    between atoms: N_3  and  C_4
REMARK    4  A    between atoms: N_3  and  C_6
REMARK    5  A    between atoms: C_4  and  C_5
REMARK    6  A    between atoms: C_6  and  C_7
REMARK    7  A    between atoms: C_7  and  N_8
REMARK    8  A    between atoms: N_8  and  C_9
REMARK    9  A    between atoms: N_16  and  C_17
REMARK   10  A    between atoms: C_24  and  O_25
REMARK   11  A    between atoms: O_25  and  C_26
REMARK   12  A    between atoms: C_26  and  C_27
REMARK   13  A    between atoms: C_27  and  N_28
REMARK   14  A    between atoms: N_28  and  C_29
REMARK                            x       y       z     vdW  Elec       q    Type
REMARK                         _______ _______ _______ _____ _____    ______ ____
ROOT
ATOM      1  C   UNL     1      -0.444  11.764  19.376  0.00  0.00    +0.000 A 
ATOM      2  C   UNL     1      -0.941  12.077  20.666  0.00  0.00    +0.000 A 
ATOM      3  C   UNL     1      -1.733  13.243  20.857  0.00  0.00    +0.000 A 
ATOM      4  C   UNL     1      -2.264  13.583  22.105  0.00  0.00    +0.000 A 
ATOM      5  C   UNL     1      -2.036  12.766  23.192  0.00  0.00    +0.000 A 
ATOM      6  C   UNL     1      -1.275  11.611  23.042  0.00  0.00    +0.000 A 
ATOM      7  C   UNL     1      -0.713  11.234  21.796  0.00  0.00    +0.000 A 
ATOM      8  N   UNL     1       0.024  10.089  21.657  0.00  0.00    +0.000 N 
ATOM      9  C   UNL     1       0.280   9.143  22.760  0.00  0.00    +0.000 C 
ATOM     10  C   UNL     1       0.567   9.762  20.407  0.00  0.00    +0.000 A 
ATOM     11  C   UNL     1       0.326  10.602  19.336  0.00  0.00    +0.000 A 
ATOM     12  O   UNL     1       0.944  10.106  18.224  0.00  0.00    +0.000 OA
ATOM     13  C   UNL     1       1.560   8.949  18.558  0.00  0.00    +0.000 A 
ATOM     14  C   UNL     1       2.280   8.151  17.678  0.00  0.00    +0.000 A 
ATOM     15  C   UNL     1       2.843   6.982  18.202  0.00  0.00    +0.000 A 
ATOM     16  C   UNL     1       2.682   6.653  19.547  0.00  0.00    +0.000 A 
ATOM     17  C   UNL     1       1.922   7.477  20.402  0.00  0.00    +0.000 A 
ATOM     18  C   UNL     1       1.357   8.671  19.902  0.00  0.00    +0.000 A 
ENDROOT
BRANCH   1  19
ATOM     19  N   UNL     1      -0.844  12.470  18.249  0.00  0.00    +0.000 N 
ATOM     20  H   UNL     1      -0.283  13.241  17.890  0.00  0.00    +0.000 HD
BRANCH  19  21
ATOM     21  C   UNL     1      -1.749  11.895  17.257  0.00  0.00    +0.000 C 
BRANCH  21  22
ATOM     22  C   UNL     1      -2.899  11.133  17.948  0.00  0.00    +0.000 C 
BRANCH  22  23
ATOM     23  N   UNL     1      -4.014  10.714  17.067  0.00  0.00    +0.000 NA
BRANCH  23  25
ATOM     24  C   UNL     1      -5.233  12.165  18.750  0.00  0.00    +0.000 C 
ATOM     25  C   UNL     1      -5.313  11.181  17.588  0.00  0.00    +0.000 C 
ENDBRANCH  23  25
BRANCH  23  26
ATOM     26  C   UNL     1      -3.751  11.145  15.675  0.00  0.00    +0.000 C 
ATOM     27  C   UNL     1      -3.485  10.034  14.658  0.00  0.00    +0.000 C 
ENDBRANCH  23  26
ENDBRANCH  22  23
ENDBRANCH  21  22
ENDBRANCH  19  21
ENDBRANCH   1  19
BRANCH  16  28
ATOM     28  O   UNL     1       3.177   5.530  20.152  0.00  0.00    +0.000 OA
BRANCH  28  29
ATOM     29  C   UNL     1       4.021   4.690  19.362  0.00  0.00    +0.000 C 
BRANCH  29  30
ATOM     30  C   UNL     1       5.392   5.368  19.163  0.00  0.00    +0.000 C 
BRANCH  30  31
ATOM     31  N   UNL     1       6.078   5.073  17.788  0.00  0.00    +0.000 N 
ATOM     32  C   UNL     1       7.507   4.589  18.008  0.00  0.00    +0.000 C 
ATOM     33  C   UNL     1       5.235   3.957  17.086  0.00  0.00    +0.000 C 
ATOM     34  C   UNL     1       5.649   3.763  15.620  0.00  0.00    +0.000 C 
ATOM     35  O   UNL     1       5.537   4.987  14.890  0.00  0.00    +0.000 OA
ATOM     36  C   UNL     1       6.401   5.991  15.419  0.00  0.00    +0.000 C 
ATOM     37  C   UNL     1       6.042   6.326  16.872  0.00  0.00    +0.000 C 
ENDBRANCH  30  31
ENDBRANCH  29  30
ENDBRANCH  28  29
ENDBRANCH  16  28
TORSDOF 10
ENDMDL
MODEL 5
REMARK VINA RESULT:      -7.2      1.104      1.399
REMARK  Name = 
REMARK  14 active torsions:
REMARK  status: ('A' for Active; 'I' for Inactive)
REMARK    1  A    between atoms: C_1  and  C_2
REMARK    2  A    between atoms: C_2  and  N_3
REMARK    3  A    between atoms: N_3  and  C_4
REMARK    4  A    between atoms: N_3  and  C_6
REMARK    5  A    between atoms: C_4  and  C_5
REMARK    6  A    between atoms: C_6  and  C_7
REMARK    7  A    between atoms: C_7  and  N_8
REMARK    8  A    between atoms: N_8  and  C_9
REMARK    9  A    between atoms: N_16  and  C_17
REMARK   10  A    between atoms: C_24  and  O_25
REMARK   11  A    between atoms: O_25  and  C_26
REMARK   12  A    between atoms: C_26  and  C_27
REMARK   13  A    between atoms: C_27  and  N_28
REMARK   14  A    between atoms: N_28  and  C_29
REMARK                            x       y       z     vdW  Elec       q    Type
REMARK                         _______ _______ _______ _____ _____    ______ ____
ROOT
ATOM      1  C   UNL     1       2.352   6.551  20.397  0.00  0.00    +0.000 A 
ATOM      2  C   UNL     1       3.023   6.654  19.153  0.00  0.00    +0.000 A 
ATOM      3  C   UNL     1       3.835   5.581  18.695  0.00  0.00    +0.000 A 
ATOM      4  C   UNL     1       4.500   5.626  17.465  0.00  0.00    +0.000 A 
ATOM      5  C   UNL     1       4.362   6.732  16.653  0.00  0.00    +0.000 A 
ATOM      6  C   UNL     1       3.566   7.797  17.062  0.00  0.00    +0.000 A 
ATOM      7  C   UNL     1       2.882   7.794  18.304  0.00  0.00    +0.000 A 
ATOM      8  N   UNL     1       2.092   8.842  18.692  0.00  0.00    +0.000 N 
ATOM      9  C   UNL     1       1.861  10.041  17.864  0.00  0.00    +0.000 C 
ATOM     10  C   UNL     1       1.441   8.797  19.932  0.00  0.00    +0.000 A 
ATOM     11  C   UNL     1       1.601   7.679  20.729  0.00  0.00    +0.000 A 
ATOM     12  O   UNL     1       0.893   7.840  21.884  0.00  0.00    +0.000 OA
ATOM     13  C   UNL     1       0.262   9.036  21.834  0.00  0.00    +0.000 A 
ATOM     14  C   UNL     1      -0.567   9.537  22.830  0.00  0.00    +0.000 A 
ATOM     15  C   UNL     1      -1.141  10.793  22.601  0.00  0.00    +0.000 A 
ATOM     16  C   UNL     1      -0.879  11.493  21.424  0.00  0.00    +0.000 A 
ATOM     17  C   UNL     1      -0.052  10.938  20.427  0.00  0.00    +0.000 A 
ATOM     18  C   UNL     1       0.553   9.680  20.640  0.00  0.00    +0.000 A 
ENDROOT
BRANCH   1  19
ATOM     19  N   UNL     1       2.324   5.362  21.115  0.00  0.00    +0.000 N 
ATOM     20  H   UNL     1       2.741   5.303  22.043  0.00  0.00    +0.000 HD
BRANCH  19  21
ATOM     21  C   UNL     1       1.331   4.323  20.852  0.00  0.00    +0.000 C 
BRANCH  21  22
ATOM     22  C   UNL     1       1.987   2.928  20.859  0.00  0.00    +0.000 C 
BRANCH  22  23
ATOM     23  N   UNL     1       1.866   2.153  19.602  0.00  0.00    +0.000 NA
BRANCH  23  25
ATOM     24  C   UNL     1       1.572   3.490  17.469  0.00  0.00    +0.000 C 
ATOM     25  C   UNL     1       0.926   2.797  18.664  0.00  0.00    +0.000 C 
ENDBRANCH  23  25
BRANCH  23  26
ATOM     26  C   UNL     1       3.206   1.916  19.019  0.00  0.00    +0.000 C 
ATOM     27  C   UNL     1       4.403   2.211  19.924  0.00  0.00    +0.000 C 
ENDBRANCH  23  26
ENDBRANCH  22  23
ENDBRANCH  21  22
ENDBRANCH  19  21
ENDBRANCH   1  19
BRANCH  16  28
ATOM     28  O   UNL     1      -1.402  12.715  21.098  0.00  0.00    +0.000 OA
BRANCH  28  29
ATOM     29  C   UNL     1      -2.686  12.722  20.470  0.00  0.00    +0.000 C 
BRANCH  29  30
ATOM     30  C   UNL     1      -3.425  14.031  20.810  0.00  0.00    +0.000 C 
BRANCH  30  31
ATOM     31  N   UNL     1      -4.882  13.845  21.350  0.00  0.00    +0.000 N 
ATOM     32  C   UNL     1      -5.720  15.079  21.035  0.00  0.00    +0.000 C 
ATOM     33  C   UNL     1      -5.479  12.592  20.627  0.00  0.00    +0.000 C 
ATOM     34  C   UNL     1      -6.806  12.144  21.257  0.00  0.00    +0.000 C 
ATOM     35  O   UNL     1      -6.643  11.869  22.651  0.00  0.00    +0.000 OA
ATOM     36  C   UNL     1      -6.232  13.032  23.368  0.00  0.00    +0.000 C 
ATOM     37  C   UNL     1      -4.872  13.540  22.871  0.00  0.00    +0.000 C 
ENDBRANCH  30  31
ENDBRANCH  29  30
ENDBRANCH  28  29
ENDBRANCH  16  28
TORSDOF 10
ENDMDL
MODEL 6
REMARK VINA RESULT:      -7.2      2.490     10.302
REMARK  Name = 
REMARK  14 active torsions:
REMARK  status: ('A' for Active; 'I' for Inactive)
REMARK    1  A    between atoms: C_1  and  C_2
REMARK    2  A    between atoms: C_2  and  N_3
REMARK    3  A    between atoms: N_3  and  C_4
REMARK    4  A    between atoms: N_3  and  C_6
REMARK    5  A    between atoms: C_4  and  C_5
REMARK    6  A    between atoms: C_6  and  C_7
REMARK    7  A    between atoms: C_7  and  N_8
REMARK    8  A    between atoms: N_8  and  C_9
REMARK    9  A    between atoms: N_16  and  C_17
REMARK   10  A    between atoms: C_24  and  O_25
REMARK   11  A    between atoms: O_25  and  C_26
REMARK   12  A    between atoms: C_26  and  C_27
REMARK   13  A    between atoms: C_27  and  N_28
REMARK   14  A    between atoms: N_28  and  C_29
REMARK                            x       y       z     vdW  Elec       q    Type
REMARK                         _______ _______ _______ _____ _____    ______ ____
ROOT
ATOM      1  C   UNL     1      -1.911  12.051  19.770  0.00  0.00    +0.000 A 
ATOM      2  C   UNL     1      -2.256  12.337  21.115  0.00  0.00    +0.000 A 
ATOM      3  C   UNL     1      -3.229  13.334  21.400  0.00  0.00    +0.000 A 
ATOM      4  C   UNL     1      -3.619  13.637  22.709  0.00  0.00    +0.000 A 
ATOM      5  C   UNL     1      -3.064  12.948  23.766  0.00  0.00    +0.000 A 
ATOM      6  C   UNL     1      -2.116  11.957  23.525  0.00  0.00    +0.000 A 
ATOM      7  C   UNL     1      -1.689  11.624  22.215  0.00  0.00    +0.000 A 
ATOM      8  N   UNL     1      -0.765  10.640  21.989  0.00  0.00    +0.000 N 
ATOM      9  C   UNL     1      -0.155   9.830  23.061  0.00  0.00    +0.000 C 
ATOM     10  C   UNL     1      -0.367  10.352  20.677  0.00  0.00    +0.000 A 
ATOM     11  C   UNL     1      -0.935  11.062  19.636  0.00  0.00    +0.000 A 
ATOM     12  O   UNL     1      -0.409  10.633  18.453  0.00  0.00    +0.000 OA
ATOM     13  C   UNL     1       0.473   9.641  18.713  0.00  0.00    +0.000 A 
ATOM     14  C   UNL     1       1.196   8.948  17.749  0.00  0.00    +0.000 A 
ATOM     15  C   UNL     1       2.059   7.947  18.207  0.00  0.00    +0.000 A 
ATOM     16  C   UNL     1       2.178   7.674  19.568  0.00  0.00    +0.000 A 
ATOM     17  C   UNL     1       1.408   8.382  20.513  0.00  0.00    +0.000 A 
ATOM     18  C   UNL     1       0.541   9.409  20.080  0.00  0.00    +0.000 A 
ENDROOT
BRANCH   1  19
ATOM     19  N   UNL     1      -2.615  12.596  18.704  0.00  0.00    +0.000 N 
ATOM     20  H   UNL     1      -2.172  13.261  18.072  0.00  0.00    +0.000 HD
BRANCH  19  21
ATOM     21  C   UNL     1      -3.786  11.935  18.133  0.00  0.00    +0.000 C 
BRANCH  21  22
ATOM     22  C   UNL     1      -5.062  12.326  18.904  0.00  0.00    +0.000 C 
BRANCH  22  23
ATOM     23  N   UNL     1      -6.295  11.603  18.517  0.00  0.00    +0.000 NA
BRANCH  23  25
ATOM     24  C   UNL     1      -6.987   9.325  19.385  0.00  0.00    +0.000 C 
ATOM     25  C   UNL     1      -6.836  10.820  19.645  0.00  0.00    +0.000 C 
ENDBRANCH  23  25
BRANCH  23  26
ATOM     26  C   UNL     1      -7.277  12.548  17.936  0.00  0.00    +0.000 C 
ATOM     27  C   UNL     1      -6.807  13.362  16.730  0.00  0.00    +0.000 C 
ENDBRANCH  23  26
ENDBRANCH  22  23
ENDBRANCH  21  22
ENDBRANCH  19  21
ENDBRANCH   1  19
BRANCH  16  28
ATOM     28  O   UNL     1       2.978   6.707  20.115  0.00  0.00    +0.000 OA
BRANCH  28  29
ATOM     29  C   UNL     1       3.216   5.541  19.323  0.00  0.00    +0.000 C 
BRANCH  29  30
ATOM     30  C   UNL     1       4.731   5.268  19.239  0.00  0.00    +0.000 C 
BRANCH  30  31
ATOM     31  N   UNL     1       5.245   4.840  17.824  0.00  0.00    +0.000 N 
ATOM     32  C   UNL     1       4.535   3.569  17.371  0.00  0.00    +0.000 C 
ATOM     33  C   UNL     1       4.919   6.016  16.845  0.00  0.00    +0.000 C 
ATOM     34  C   UNL     1       5.605   5.834  15.483  0.00  0.00    +0.000 C 
ATOM     35  O   UNL     1       7.021   5.708  15.636  0.00  0.00    +0.000 OA
ATOM     36  C   UNL     1       7.362   4.560  16.411  0.00  0.00    +0.000 C 
ATOM     37  C   UNL     1       6.786   4.655  17.829  0.00  0.00    +0.000 C 
ENDBRANCH  30  31
ENDBRANCH  29  30
ENDBRANCH  28  29
ENDBRANCH  16  28
TORSDOF 10
ENDMDL
MODEL 7
REMARK VINA RESULT:      -7.2      2.493      9.274
REMARK  Name = 
REMARK  14 active torsions:
REMARK  status: ('A' for Active; 'I' for Inactive)
REMARK    1  A    between atoms: C_1  and  C_2
REMARK    2  A    between atoms: C_2  and  N_3
REMARK    3  A    between atoms: N_3  and  C_4
REMARK    4  A    between atoms: N_3  and  C_6
REMARK    5  A    between atoms: C_4  and  C_5
REMARK    6  A    between atoms: C_6  and  C_7
REMARK    7  A    between atoms: C_7  and  N_8
REMARK    8  A    between atoms: N_8  and  C_9
REMARK    9  A    between atoms: N_16  and  C_17
REMARK   10  A    between atoms: C_24  and  O_25
REMARK   11  A    between atoms: O_25  and  C_26
REMARK   12  A    between atoms: C_26  and  C_27
REMARK   13  A    between atoms: C_27  and  N_28
REMARK   14  A    between atoms: N_28  and  C_29
REMARK                            x       y       z     vdW  Elec       q    Type
REMARK                         _______ _______ _______ _____ _____    ______ ____
ROOT
ATOM      1  C   UNL     1      -0.303  11.934  19.392  0.00  0.00    +0.000 A 
ATOM      2  C   UNL     1      -0.886  12.252  20.644  0.00  0.00    +0.000 A 
ATOM      3  C   UNL     1      -1.648  13.444  20.788  0.00  0.00    +0.000 A 
ATOM      4  C   UNL     1      -2.261  13.791  21.996  0.00  0.00    +0.000 A 
ATOM      5  C   UNL     1      -2.147  12.955  23.087  0.00  0.00    +0.000 A 
ATOM      6  C   UNL     1      -1.419  11.774  22.980  0.00  0.00    +0.000 A 
ATOM      7  C   UNL     1      -0.776  11.390  21.777  0.00  0.00    +0.000 A 
ATOM      8  N   UNL     1      -0.073  10.220  21.679  0.00  0.00    +0.000 N 
ATOM      9  C   UNL     1       0.064   9.254  22.786  0.00  0.00    +0.000 C 
ATOM     10  C   UNL     1       0.553   9.886  20.471  0.00  0.00    +0.000 A 
ATOM     11  C   UNL     1       0.426  10.745  19.395  0.00  0.00    +0.000 A 
ATOM     12  O   UNL     1       1.109  10.239  18.327  0.00  0.00    +0.000 OA
ATOM     13  C   UNL     1       1.656   9.056  18.693  0.00  0.00    +0.000 A 
ATOM     14  C   UNL     1       2.412   8.241  17.860  0.00  0.00    +0.000 A 
ATOM     15  C   UNL     1       2.891   7.047  18.410  0.00  0.00    +0.000 A 
ATOM     16  C   UNL     1       2.615   6.711  19.735  0.00  0.00    +0.000 A 
ATOM     17  C   UNL     1       1.822   7.553  20.539  0.00  0.00    +0.000 A 
ATOM     18  C   UNL     1       1.340   8.772  20.014  0.00  0.00    +0.000 A 
ENDROOT
BRANCH   1  19
ATOM     19  N   UNL     1      -0.589  12.666  18.246  0.00  0.00    +0.000 N 
ATOM     20  H   UNL     1       0.100  13.302  17.848  0.00  0.00    +0.000 HD
BRANCH  19  21
ATOM     21  C   UNL     1      -1.614  12.243  17.295  0.00  0.00    +0.000 C 
BRANCH  21  22
ATOM     22  C   UNL     1      -2.561  11.211  17.939  0.00  0.00    +0.000 C 
BRANCH  22  23
ATOM     23  N   UNL     1      -3.634  10.687  17.062  0.00  0.00    +0.000 NA
BRANCH  23  25
ATOM     24  C   UNL     1      -4.977  11.814  18.892  0.00  0.00    +0.000 C 
ATOM     25  C   UNL     1      -4.970  11.050  17.573  0.00  0.00    +0.000 C 
ENDBRANCH  23  25
BRANCH  23  26
ATOM     26  C   UNL     1      -3.404  11.117  15.664  0.00  0.00    +0.000 C 
ATOM     27  C   UNL     1      -3.213  10.005  14.632  0.00  0.00    +0.000 C 
ENDBRANCH  23  26
ENDBRANCH  22  23
ENDBRANCH  21  22
ENDBRANCH  19  21
ENDBRANCH   1  19
BRANCH  16  28
ATOM     28  O   UNL     1       3.021   5.564  20.361  0.00  0.00    +0.000 OA
BRANCH  28  29
ATOM     29  C   UNL     1       2.015   4.805  21.036  0.00  0.00    +0.000 C 
BRANCH  29  30
ATOM     30  C   UNL     1       1.020   4.229  20.009  0.00  0.00    +0.000 C 
BRANCH  30  31
ATOM     31  N   UNL     1       1.599   3.099  19.094  0.00  0.00    +0.000 N 
ATOM     32  C   UNL     1       0.530   2.046  18.821  0.00  0.00    +0.000 C 
ATOM     33  C   UNL     1       2.038   3.778  17.754  0.00  0.00    +0.000 C 
ATOM     34  C   UNL     1       2.861   2.827  16.873  0.00  0.00    +0.000 C 
ATOM     35  O   UNL     1       4.011   2.346  17.574  0.00  0.00    +0.000 OA
ATOM     36  C   UNL     1       3.642   1.599  18.732  0.00  0.00    +0.000 C 
ATOM     37  C   UNL     1       2.865   2.467  19.730  0.00  0.00    +0.000 C 
ENDBRANCH  30  31
ENDBRANCH  29  30
ENDBRANCH  28  29
ENDBRANCH  16  28
TORSDOF 10
ENDMDL
MODEL 8
REMARK VINA RESULT:      -7.1      2.945      9.915
REMARK  Name = 
REMARK  14 active torsions:
REMARK  status: ('A' for Active; 'I' for Inactive)
REMARK    1  A    between atoms: C_1  and  C_2
REMARK    2  A    between atoms: C_2  and  N_3
REMARK    3  A    between atoms: N_3  and  C_4
REMARK    4  A    between atoms: N_3  and  C_6
REMARK    5  A    between atoms: C_4  and  C_5
REMARK    6  A    between atoms: C_6  and  C_7
REMARK    7  A    between atoms: C_7  and  N_8
REMARK    8  A    between atoms: N_8  and  C_9
REMARK    9  A    between atoms: N_16  and  C_17
REMARK   10  A    between atoms: C_24  and  O_25
REMARK   11  A    between atoms: O_25  and  C_26
REMARK   12  A    between atoms: C_26  and  C_27
REMARK   13  A    between atoms: C_27  and  N_28
REMARK   14  A    between atoms: N_28  and  C_29
REMARK                            x       y       z     vdW  Elec       q    Type
REMARK                         _______ _______ _______ _____ _____    ______ ____
ROOT
ATOM      1  C   UNL     1      -0.955  12.553  19.863  0.00  0.00    +0.000 A 
ATOM      2  C   UNL     1      -1.588  12.541  21.131  0.00  0.00    +0.000 A 
ATOM      3  C   UNL     1      -2.460  13.602  21.498  0.00  0.00    +0.000 A 
ATOM      4  C   UNL     1      -3.125  13.626  22.728  0.00  0.00    +0.000 A 
ATOM      5  C   UNL     1      -2.951  12.587  23.619  0.00  0.00    +0.000 A 
ATOM      6  C   UNL     1      -2.114  11.526  23.291  0.00  0.00    +0.000 A 
ATOM      7  C   UNL     1      -1.417  11.468  22.058  0.00  0.00    +0.000 A 
ATOM      8  N   UNL     1      -0.605  10.413  21.740  0.00  0.00    +0.000 N 
ATOM      9  C   UNL     1      -0.399   9.246  22.620  0.00  0.00    +0.000 C 
ATOM     10  C   UNL     1       0.070  10.404  20.512  0.00  0.00    +0.000 A 
ATOM     11  C   UNL     1      -0.118  11.460  19.640  0.00  0.00    +0.000 A 
ATOM     12  O   UNL     1       0.629  11.258  18.516  0.00  0.00    +0.000 OA
ATOM     13  C   UNL     1       1.278  10.077  18.641  0.00  0.00    +0.000 A 
ATOM     14  C   UNL     1       2.122   9.530  17.682  0.00  0.00    +0.000 A 
ATOM     15  C   UNL     1       2.701   8.292  17.983  0.00  0.00    +0.000 A 
ATOM     16  C   UNL     1       2.434   7.655  19.194  0.00  0.00    +0.000 A 
ATOM     17  C   UNL     1       1.550   8.231  20.129  0.00  0.00    +0.000 A 
ATOM     18  C   UNL     1       0.966   9.488  19.858  0.00  0.00    +0.000 A 
ENDROOT
BRANCH   1  19
ATOM     19  N   UNL     1      -1.288  13.487  18.890  0.00  0.00    +0.000 N 
ATOM     20  H   UNL     1      -2.255  13.778  18.756  0.00  0.00    +0.000 HD
BRANCH  19  21
ATOM     21  C   UNL     1      -0.311  14.440  18.367  0.00  0.00    +0.000 C 
BRANCH  21  22
ATOM     22  C   UNL     1       0.230  15.339  19.497  0.00  0.00    +0.000 C 
BRANCH  22  23
ATOM     23  N   UNL     1       1.594  15.020  19.976  0.00  0.00    +0.000 NA
BRANCH  23  25
ATOM     24  C   UNL     1       1.945  17.294  18.912  0.00  0.00    +0.000 C 
ATOM     25  C   UNL     1       2.544  16.101  19.648  0.00  0.00    +0.000 C 
ENDBRANCH  23  25
BRANCH  23  26
ATOM     26  C   UNL     1       1.561  14.687  21.418  0.00  0.00    +0.000 C 
ATOM     27  C   UNL     1       0.552  15.456  22.272  0.00  0.00    +0.000 C 
ENDBRANCH  23  26
ENDBRANCH  22  23
ENDBRANCH  21  22
ENDBRANCH  19  21
ENDBRANCH   1  19
BRANCH  16  28
ATOM     28  O   UNL     1       2.934   6.440  19.576  0.00  0.00    +0.000 OA
BRANCH  28  29
ATOM     29  C   UNL     1       3.760   5.756  18.631  0.00  0.00    +0.000 C 
BRANCH  29  30
ATOM     30  C   UNL     1       4.333   4.475  19.271  0.00  0.00    +0.000 C 
BRANCH  30  31
ATOM     31  N   UNL     1       3.298   3.319  19.472  0.00  0.00    +0.000 N 
ATOM     32  C   UNL     1       4.005   1.969  19.435  0.00  0.00    +0.000 C 
ATOM     33  C   UNL     1       2.635   3.539  20.872  0.00  0.00    +0.000 C 
ATOM     34  C   UNL     1       1.417   2.628  21.080  0.00  0.00    +0.000 C 
ATOM     35  O   UNL     1       0.447   2.826  20.047  0.00  0.00    +0.000 OA
ATOM     36  C   UNL     1       0.978   2.498  18.764  0.00  0.00    +0.000 C 
ATOM     37  C   UNL     1       2.170   3.396  18.409  0.00  0.00    +0.000 C 
ENDBRANCH  30  31
ENDBRANCH  29  30
ENDBRANCH  28  29
ENDBRANCH  16  28
TORSDOF 10
ENDMDL
MODEL 9
REMARK VINA RESULT:      -7.1      2.633     10.157
REMARK  Name = 
REMARK  14 active torsions:
REMARK  status: ('A' for Active; 'I' for Inactive)
REMARK    1  A    between atoms: C_1  and  C_2
REMARK    2  A    between atoms: C_2  and  N_3
REMARK    3  A    between atoms: N_3  and  C_4
REMARK    4  A    between atoms: N_3  and  C_6
REMARK    5  A    between atoms: C_4  and  C_5
REMARK    6  A    between atoms: C_6  and  C_7
REMARK    7  A    between atoms: C_7  and  N_8
REMARK    8  A    between atoms: N_8  and  C_9
REMARK    9  A    between atoms: N_16  and  C_17
REMARK   10  A    between atoms: C_24  and  O_25
REMARK   11  A    between atoms: O_25  and  C_26
REMARK   12  A    between atoms: C_26  and  C_27
REMARK   13  A    between atoms: C_27  and  N_28
REMARK   14  A    between atoms: N_28  and  C_29
REMARK                            x       y       z     vdW  Elec       q    Type
REMARK                         _______ _______ _______ _____ _____    ______ ____
ROOT
ATOM      1  C   UNL     1      -1.025  11.872  19.418  0.00  0.00    +0.000 A 
ATOM      2  C   UNL     1      -1.365  12.256  20.739  0.00  0.00    +0.000 A 
ATOM      3  C   UNL     1      -2.231  13.363  20.955  0.00  0.00    +0.000 A 
ATOM      4  C   UNL     1      -2.613  13.767  22.238  0.00  0.00    +0.000 A 
ATOM      5  C   UNL     1      -2.157  13.073  23.338  0.00  0.00    +0.000 A 
ATOM      6  C   UNL     1      -1.316  11.978  23.166  0.00  0.00    +0.000 A 
ATOM      7  C   UNL     1      -0.900  11.540  21.884  0.00  0.00    +0.000 A 
ATOM      8  N   UNL     1      -0.082  10.454  21.725  0.00  0.00    +0.000 N 
ATOM      9  C   UNL     1       0.416   9.636  22.847  0.00  0.00    +0.000 C 
ATOM     10  C   UNL     1       0.310  10.064  20.438  0.00  0.00    +0.000 A 
ATOM     11  C   UNL     1      -0.158  10.781  19.353  0.00  0.00    +0.000 A 
ATOM     12  O   UNL     1       0.343  10.242  18.203  0.00  0.00    +0.000 OA
ATOM     13  C   UNL     1       1.109   9.176  18.530  0.00  0.00    +0.000 A 
ATOM     14  C   UNL     1       1.773   8.367  17.616  0.00  0.00    +0.000 A 
ATOM     15  C   UNL     1       2.515   7.302  18.139  0.00  0.00    +0.000 A 
ATOM     16  C   UNL     1       2.576   7.082  19.515  0.00  0.00    +0.000 A 
ATOM     17  C   UNL     1       1.866   7.912  20.407  0.00  0.00    +0.000 A 
ATOM     18  C   UNL     1       1.124   9.003  19.906  0.00  0.00    +0.000 A 
ENDROOT
BRANCH   1  19
ATOM     19  N   UNL     1      -1.645  12.438  18.311  0.00  0.00    +0.000 N 
ATOM     20  H   UNL     1      -1.155  13.116  17.728  0.00  0.00    +0.000 HD
BRANCH  19  21
ATOM     21  C   UNL     1      -2.766  11.788  17.636  0.00  0.00    +0.000 C 
BRANCH  21  22
ATOM     22  C   UNL     1      -3.807  11.295  18.662  0.00  0.00    +0.000 C 
BRANCH  22  23
ATOM     23  N   UNL     1      -5.194  11.765  18.446  0.00  0.00    +0.000 NA
BRANCH  23  25
ATOM     24  C   UNL     1      -5.804  12.145  20.877  0.00  0.00    +0.000 C 
ATOM     25  C   UNL     1      -5.601  12.732  19.484  0.00  0.00    +0.000 C 
ENDBRANCH  23  25
BRANCH  23  26
ATOM     26  C   UNL     1      -5.347  12.285  17.069  0.00  0.00    +0.000 C 
ATOM     27  C   UNL     1      -6.554  13.190  16.813  0.00  0.00    +0.000 C 
ENDBRANCH  23  26
ENDBRANCH  22  23
ENDBRANCH  21  22
ENDBRANCH  19  21
ENDBRANCH   1  19
BRANCH  16  28
ATOM     28  O   UNL     1       3.257   6.063  20.124  0.00  0.00    +0.000 OA
BRANCH  28  29
ATOM     29  C   UNL     1       3.713   4.999  19.285  0.00  0.00    +0.000 C 
BRANCH  29  30
ATOM     30  C   UNL     1       5.230   5.135  19.048  0.00  0.00    +0.000 C 
BRANCH  30  31
ATOM     31  N   UNL     1       5.646   5.354  17.555  0.00  0.00    +0.000 N 
ATOM     32  C   UNL     1       5.728   6.845  17.247  0.00  0.00    +0.000 C 
ATOM     33  C   UNL     1       7.050   4.689  17.371  0.00  0.00    +0.000 C 
ATOM     34  C   UNL     1       7.454   4.603  15.892  0.00  0.00    +0.000 C 
ATOM     35  O   UNL     1       6.475   3.887  15.135  0.00  0.00    +0.000 OA
ATOM     36  C   UNL     1       5.209   4.544  15.166  0.00  0.00    +0.000 C 
ATOM     37  C   UNL     1       4.662   4.632  16.596  0.00  0.00    +0.000 C 
ENDBRANCH  30  31
ENDBRANCH  29  30
ENDBRANCH  28  29
ENDBRANCH  16  28
TORSDOF 10
ENDMDL
