MODEL 1
REMARK VINA RESULT:      -7.5      0.000      0.000
REMARK  Name = 
REMARK  3 active torsions:
REMARK  status: ('A' for Active; 'I' for Inactive)
REMARK    1  A    between atoms: C_1  and  C_2
REMARK    2  A    between atoms: C_2  and  C_13
REMARK    3  A    between atoms: N_3  and  C_4
REMARK                            x       y       z     vdW  Elec       q    Type
REMARK                         _______ _______ _______ _____ _____    ______ ____
ROOT
ATOM      1  C   UNL     1       3.719   3.466  17.263  0.00  0.00    +0.000 A 
ATOM      2  N   UNL     1       2.570   4.003  17.612  0.00  0.00    +0.000 NA
ATOM      3  C   UNL     1       2.373   3.669  18.924  0.00  0.00    +0.000 A 
ATOM      4  C   UNL     1       1.276   3.938  19.750  0.00  0.00    +0.000 A 
ATOM      5  C   UNL     1       1.311   3.487  21.075  0.00  0.00    +0.000 A 
ATOM      6  C   UNL     1       2.418   2.785  21.561  0.00  0.00    +0.000 A 
ATOM      7  C   UNL     1       3.524   2.508  20.745  0.00  0.00    +0.000 A 
ATOM      8  C   UNL     1       3.458   2.966  19.427  0.00  0.00    +0.000 A 
ATOM      9  N   UNL     1       4.319   2.889  18.362  0.00  0.00    +0.000 N 
ATOM     10  H   UNL     1       5.235   2.475  18.349  0.00  0.00    +0.000 HD
ENDROOT
BRANCH   1  13
ATOM     11  C   UNL     1       5.265   5.802  16.540  0.00  0.00    +0.000 C 
ATOM     12  C   UNL     1       5.119   4.499  15.762  0.00  0.00    +0.000 C 
ATOM     13  N   UNL     1       4.376   3.476  16.081  0.00  0.00    +0.000 NA
BRANCH  12  14
ATOM     14  C   UNL     1       5.926   4.417  14.494  0.00  0.00    +0.000 A 
ATOM     15  C   UNL     1       7.085   5.194  14.367  0.00  0.00    +0.000 A 
ATOM     16  C   UNL     1       7.823   5.169  13.179  0.00  0.00    +0.000 A 
ATOM     17  C   UNL     1       7.413   4.362  12.120  0.00  0.00    +0.000 A 
ATOM     18  C   UNL     1       6.269   3.577  12.240  0.00  0.00    +0.000 A 
ATOM     19  C   UNL     1       5.526   3.606  13.423  0.00  0.00    +0.000 A 
ENDBRANCH  12  14
ENDBRANCH   1  13
TORSDOF 2
ENDMDL
MODEL 2
REMARK VINA RESULT:      -7.4      0.079      1.141
REMARK  Name = 
REMARK  3 active torsions:
REMARK  status: ('A' for Active; 'I' for Inactive)
REMARK    1  A    between atoms: C_1  and  C_2
REMARK    2  A    between atoms: C_2  and  C_13
REMARK    3  A    between atoms: N_3  and  C_4
REMARK                            x       y       z     vdW  Elec       q    Type
REMARK                         _______ _______ _______ _____ _____    ______ ____
ROOT
ATOM      1  C   UNL     1       3.748   3.521  17.259  0.00  0.00    +0.000 A 
ATOM      2  N   UNL     1       2.619   4.087  17.627  0.00  0.00    +0.000 NA
ATOM      3  C   UNL     1       2.420   3.733  18.934  0.00  0.00    +0.000 A 
ATOM      4  C   UNL     1       1.337   4.020  19.772  0.00  0.00    +0.000 A 
ATOM      5  C   UNL     1       1.366   3.540  21.087  0.00  0.00    +0.000 A 
ATOM      6  C   UNL     1       2.453   2.794  21.551  0.00  0.00    +0.000 A 
ATOM      7  C   UNL     1       3.545   2.499  20.723  0.00  0.00    +0.000 A 
ATOM      8  C   UNL     1       3.485   2.986  19.415  0.00  0.00    +0.000 A 
ATOM      9  N   UNL     1       4.336   2.904  18.342  0.00  0.00    +0.000 N 
ATOM     10  H   UNL     1       5.239   2.461  18.315  0.00  0.00    +0.000 HD
ENDROOT
BRANCH   1  13
ATOM     11  C   UNL     1       5.200   5.900  16.484  0.00  0.00    +0.000 C 
ATOM     12  C   UNL     1       5.100   4.579  15.731  0.00  0.00    +0.000 C 
ATOM     13  N   UNL     1       4.398   3.534  16.074  0.00  0.00    +0.000 NA
BRANCH  12  14
ATOM     14  C   UNL     1       5.902   4.504  14.460  0.00  0.00    +0.000 A 
ATOM     15  C   UNL     1       5.463   3.676  13.419  0.00  0.00    +0.000 A 
ATOM     16  C   UNL     1       6.218   3.555  12.249  0.00  0.00    +0.000 A 
ATOM     17  C   UNL     1       7.407   4.267  12.108  0.00  0.00    +0.000 A 
ATOM     18  C   UNL     1       7.847   5.102  13.132  0.00  0.00    +0.000 A 
ATOM     19  C   UNL     1       7.098   5.219  14.305  0.00  0.00    +0.000 A 
ENDBRANCH  12  14
ENDBRANCH   1  13
TORSDOF 2
ENDMDL
MODEL 3
REMARK VINA RESULT:      -7.4      0.907      1.455
REMARK  Name = 
REMARK  3 active torsions:
REMARK  status: ('A' for Active; 'I' for Inactive)
REMARK    1  A    between atoms: C_1  and  C_2
REMARK    2  A    between atoms: C_2  and  C_13
REMARK    3  A    between atoms: N_3  and  C_4
REMARK                            x       y       z     vdW  Elec       q    Type
REMARK                         _______ _______ _______ _____ _____    ______ ____
ROOT
ATOM      1  C   UNL     1       3.973   3.894  17.196  0.00  0.00    +0.000 A 
ATOM      2  N   UNL     1       3.847   2.840  17.972  0.00  0.00    +0.000 NA
ATOM      3  C   UNL     1       3.256   3.280  19.126  0.00  0.00    +0.000 A 
ATOM      4  C   UNL     1       2.960   2.570  20.295  0.00  0.00    +0.000 A 
ATOM      5  C   UNL     1       2.345   3.251  21.352  0.00  0.00    +0.000 A 
ATOM      6  C   UNL     1       2.032   4.609  21.240  0.00  0.00    +0.000 A 
ATOM      7  C   UNL     1       2.322   5.333  20.076  0.00  0.00    +0.000 A 
ATOM      8  C   UNL     1       2.941   4.629  19.040  0.00  0.00    +0.000 A 
ATOM      9  N   UNL     1       3.367   4.984  17.786  0.00  0.00    +0.000 N 
ATOM     10  H   UNL     1       3.280   5.885  17.346  0.00  0.00    +0.000 HD
ENDROOT
BRANCH   1  13
ATOM     11  C   UNL     1       6.763   4.609  16.933  0.00  0.00    +0.000 C 
ATOM     12  C   UNL     1       5.770   4.294  15.821  0.00  0.00    +0.000 C 
ATOM     13  N   UNL     1       4.501   4.023  15.958  0.00  0.00    +0.000 NA
BRANCH  12  14
ATOM     14  C   UNL     1       6.340   4.311  14.428  0.00  0.00    +0.000 A 
ATOM     15  C   UNL     1       7.383   5.196  14.125  0.00  0.00    +0.000 A 
ATOM     16  C   UNL     1       7.896   5.261  12.826  0.00  0.00    +0.000 A 
ATOM     17  C   UNL     1       7.377   4.438  11.828  0.00  0.00    +0.000 A 
ATOM     18  C   UNL     1       6.349   3.546  12.123  0.00  0.00    +0.000 A 
ATOM     19  C   UNL     1       5.831   3.483  13.418  0.00  0.00    +0.000 A 
ENDBRANCH  12  14
ENDBRANCH   1  13
TORSDOF 2
ENDMDL
MODEL 4
REMARK VINA RESULT:      -7.4      0.884      1.841
REMARK  Name = 
REMARK  3 active torsions:
REMARK  status: ('A' for Active; 'I' for Inactive)
REMARK    1  A    between atoms: C_1  and  C_2
REMARK    2  A    between atoms: C_2  and  C_13
REMARK    3  A    between atoms: N_3  and  C_4
REMARK                            x       y       z     vdW  Elec       q    Type
REMARK                         _______ _______ _______ _____ _____    ______ ____
ROOT
ATOM      1  C   UNL     1       3.954   3.906  17.173  0.00  0.00    +0.000 A 
ATOM      2  N   UNL     1       3.855   2.844  17.940  0.00  0.00    +0.000 NA
ATOM      3  C   UNL     1       3.252   3.259  19.096  0.00  0.00    +0.000 A 
ATOM      4  C   UNL     1       2.974   2.533  20.260  0.00  0.00    +0.000 A 
ATOM      5  C   UNL     1       2.340   3.190  21.321  0.00  0.00    +0.000 A 
ATOM      6  C   UNL     1       1.992   4.540  21.220  0.00  0.00    +0.000 A 
ATOM      7  C   UNL     1       2.264   5.280  20.061  0.00  0.00    +0.000 A 
ATOM      8  C   UNL     1       2.902   4.600  19.021  0.00  0.00    +0.000 A 
ATOM      9  N   UNL     1       3.320   4.975  17.769  0.00  0.00    +0.000 N 
ATOM     10  H   UNL     1       3.210   5.877  17.337  0.00  0.00    +0.000 HD
ENDROOT
BRANCH   1  13
ATOM     11  C   UNL     1       6.749   4.606  16.917  0.00  0.00    +0.000 C 
ATOM     12  C   UNL     1       5.750   4.323  15.801  0.00  0.00    +0.000 C 
ATOM     13  N   UNL     1       4.480   4.058  15.936  0.00  0.00    +0.000 NA
BRANCH  12  14
ATOM     14  C   UNL     1       6.317   4.365  14.407  0.00  0.00    +0.000 A 
ATOM     15  C   UNL     1       5.797   3.508  13.429  0.00  0.00    +0.000 A 
ATOM     16  C   UNL     1       6.341   3.498  12.141  0.00  0.00    +0.000 A 
ATOM     17  C   UNL     1       7.398   4.348  11.822  0.00  0.00    +0.000 A 
ATOM     18  C   UNL     1       7.914   5.212  12.784  0.00  0.00    +0.000 A 
ATOM     19  C   UNL     1       7.377   5.220  14.074  0.00  0.00    +0.000 A 
ENDBRANCH  12  14
ENDBRANCH   1  13
TORSDOF 2
ENDMDL
MODEL 5
REMARK VINA RESULT:      -7.3      1.021      1.545
REMARK  Name = 
REMARK  3 active torsions:
REMARK  status: ('A' for Active; 'I' for Inactive)
REMARK    1  A    between atoms: C_1  and  C_2
REMARK    2  A    between atoms: C_2  and  C_13
REMARK    3  A    between atoms: N_3  and  C_4
REMARK                            x       y       z     vdW  Elec       q    Type
REMARK                         _______ _______ _______ _____ _____    ______ ____
ROOT
ATOM      1  C   UNL     1       3.807   4.155  17.206  0.00  0.00    +0.000 A 
ATOM      2  N   UNL     1       3.701   5.014  18.196  0.00  0.00    +0.000 NA
ATOM      3  C   UNL     1       3.033   4.364  19.198  0.00  0.00    +0.000 A 
ATOM      4  C   UNL     1       2.609   4.852  20.440  0.00  0.00    +0.000 A 
ATOM      5  C   UNL     1       1.935   3.982  21.304  0.00  0.00    +0.000 A 
ATOM      6  C   UNL     1       1.693   2.655  20.935  0.00  0.00    +0.000 A 
ATOM      7  C   UNL     1       2.111   2.152  19.695  0.00  0.00    +0.000 A 
ATOM      8  C   UNL     1       2.776   3.046  18.852  0.00  0.00    +0.000 A 
ATOM      9  N   UNL     1       3.319   2.927  17.597  0.00  0.00    +0.000 N 
ATOM     10  H   UNL     1       3.357   2.099  17.028  0.00  0.00    +0.000 HD
ENDROOT
BRANCH   1  13
ATOM     11  C   UNL     1       6.676   4.469  16.995  0.00  0.00    +0.000 C 
ATOM     12  C   UNL     1       5.659   4.375  15.863  0.00  0.00    +0.000 C 
ATOM     13  N   UNL     1       4.363   4.284  15.980  0.00  0.00    +0.000 NA
BRANCH  12  14
ATOM     14  C   UNL     1       6.242   4.397  14.476  0.00  0.00    +0.000 A 
ATOM     15  C   UNL     1       5.690   3.573  13.486  0.00  0.00    +0.000 A 
ATOM     16  C   UNL     1       6.246   3.542  12.204  0.00  0.00    +0.000 A 
ATOM     17  C   UNL     1       7.348   4.340  11.901  0.00  0.00    +0.000 A 
ATOM     18  C   UNL     1       7.897   5.171  12.874  0.00  0.00    +0.000 A 
ATOM     19  C   UNL     1       7.348   5.198  14.158  0.00  0.00    +0.000 A 
ENDBRANCH  12  14
ENDBRANCH   1  13
TORSDOF 2
ENDMDL
MODEL 6
REMARK VINA RESULT:      -7.2      0.450      1.336
REMARK  Name = 
REMARK  3 active torsions:
REMARK  status: ('A' for Active; 'I' for Inactive)
REMARK    1  A    between atoms: C_1  and  C_2
REMARK    2  A    between atoms: C_2  and  C_13
REMARK    3  A    between atoms: N_3  and  C_4
REMARK                            x       y       z     vdW  Elec       q    Type
REMARK                         _______ _______ _______ _____ _____    ______ ____
ROOT
ATOM      1  C   UNL     1       4.048   3.251  17.459  0.00  0.00    +0.000 A 
ATOM      2  N   UNL     1       4.524   3.199  18.683  0.00  0.00    +0.000 NA
ATOM      3  C   UNL     1       3.439   3.202  19.518  0.00  0.00    +0.000 A 
ATOM      4  C   UNL     1       3.398   3.223  20.916  0.00  0.00    +0.000 A 
ATOM      5  C   UNL     1       2.149   3.221  21.548  0.00  0.00    +0.000 A 
ATOM      6  C   UNL     1       0.970   3.198  20.798  0.00  0.00    +0.000 A 
ATOM      7  C   UNL     1       0.994   3.177  19.396  0.00  0.00    +0.000 A 
ATOM      8  C   UNL     1       2.255   3.185  18.794  0.00  0.00    +0.000 A 
ATOM      9  N   UNL     1       2.672   3.172  17.487  0.00  0.00    +0.000 N 
ATOM     10  H   UNL     1       2.094   3.126  16.665  0.00  0.00    +0.000 HD
ENDROOT
BRANCH   1  13
ATOM     11  C   UNL     1       5.014   5.788  16.459  0.00  0.00    +0.000 C 
ATOM     12  C   UNL     1       5.169   4.412  15.823  0.00  0.00    +0.000 C 
ATOM     13  N   UNL     1       4.682   3.286  16.265  0.00  0.00    +0.000 NA
BRANCH  12  14
ATOM     14  C   UNL     1       5.969   4.383  14.548  0.00  0.00    +0.000 A 
ATOM     15  C   UNL     1       7.129   5.163  14.448  0.00  0.00    +0.000 A 
ATOM     16  C   UNL     1       7.861   5.187  13.257  0.00  0.00    +0.000 A 
ATOM     17  C   UNL     1       7.445   4.426  12.166  0.00  0.00    +0.000 A 
ATOM     18  C   UNL     1       6.301   3.638  12.260  0.00  0.00    +0.000 A 
ATOM     19  C   UNL     1       5.564   3.617  13.446  0.00  0.00    +0.000 A 
ENDBRANCH  12  14
ENDBRANCH   1  13
TORSDOF 2
ENDMDL
MODEL 7
REMARK VINA RESULT:      -6.7      1.151      7.210
REMARK  Name = 
REMARK  3 active torsions:
REMARK  status: ('A' for Active; 'I' for Inactive)
REMARK    1  A    between atoms: C_1  and  C_2
REMARK    2  A    between atoms: C_2  and  C_13
REMARK    3  A    between atoms: N_3  and  C_4
REMARK                            x       y       z     vdW  Elec       q    Type
REMARK                         _______ _______ _______ _____ _____    ______ ____
ROOT
ATOM      1  C   UNL     1       5.582   4.124  16.364  0.00  0.00    +0.000 A 
ATOM      2  N   UNL     1       6.558   4.970  16.118  0.00  0.00    +0.000 NA
ATOM      3  C   UNL     1       6.848   4.846  14.786  0.00  0.00    +0.000 A 
ATOM      4  C   UNL     1       7.848   5.474  14.036  0.00  0.00    +0.000 A 
ATOM      5  C   UNL     1       7.943   5.179  12.671  0.00  0.00    +0.000 A 
ATOM      6  C   UNL     1       7.058   4.278  12.071  0.00  0.00    +0.000 A 
ATOM      7  C   UNL     1       6.051   3.641  12.810  0.00  0.00    +0.000 A 
ATOM      8  C   UNL     1       5.984   3.951  14.171  0.00  0.00    +0.000 A 
ATOM      9  N   UNL     1       5.161   3.540  15.189  0.00  0.00    +0.000 N 
ATOM     10  H   UNL     1       4.381   2.909  15.122  0.00  0.00    +0.000 HD
ENDROOT
BRANCH   1  13
ATOM     11  C   UNL     1       3.661   6.022  17.402  0.00  0.00    +0.000 C 
ATOM     12  C   UNL     1       4.026   4.656  17.970  0.00  0.00    +0.000 C 
ATOM     13  N   UNL     1       4.932   3.835  17.514  0.00  0.00    +0.000 NA
BRANCH  12  14
ATOM     14  C   UNL     1       3.245   4.238  19.187  0.00  0.00    +0.000 A 
ATOM     15  C   UNL     1       3.650   3.108  19.908  0.00  0.00    +0.000 A 
ATOM     16  C   UNL     1       2.911   2.675  21.013  0.00  0.00    +0.000 A 
ATOM     17  C   UNL     1       1.772   3.373  21.408  0.00  0.00    +0.000 A 
ATOM     18  C   UNL     1       1.367   4.505  20.705  0.00  0.00    +0.000 A 
ATOM     19  C   UNL     1       2.100   4.936  19.596  0.00  0.00    +0.000 A 
ENDBRANCH  12  14
ENDBRANCH   1  13
TORSDOF 2
ENDMDL
MODEL 8
REMARK VINA RESULT:      -6.7      1.185      7.212
REMARK  Name = 
REMARK  3 active torsions:
REMARK  status: ('A' for Active; 'I' for Inactive)
REMARK    1  A    between atoms: C_1  and  C_2
REMARK    2  A    between atoms: C_2  and  C_13
REMARK    3  A    between atoms: N_3  and  C_4
REMARK                            x       y       z     vdW  Elec       q    Type
REMARK                         _______ _______ _______ _____ _____    ______ ____
ROOT
ATOM      1  C   UNL     1       5.616   4.117  16.301  0.00  0.00    +0.000 A 
ATOM      2  N   UNL     1       6.571   4.983  16.041  0.00  0.00    +0.000 NA
ATOM      3  C   UNL     1       6.857   4.853  14.709  0.00  0.00    +0.000 A 
ATOM      4  C   UNL     1       7.838   5.497  13.947  0.00  0.00    +0.000 A 
ATOM      5  C   UNL     1       7.934   5.191  12.585  0.00  0.00    +0.000 A 
ATOM      6  C   UNL     1       7.067   4.263  11.999  0.00  0.00    +0.000 A 
ATOM      7  C   UNL     1       6.079   3.610  12.749  0.00  0.00    +0.000 A 
ATOM      8  C   UNL     1       6.012   3.932  14.107  0.00  0.00    +0.000 A 
ATOM      9  N   UNL     1       5.203   3.512  15.133  0.00  0.00    +0.000 N 
ATOM     10  H   UNL     1       4.438   2.862  15.077  0.00  0.00    +0.000 HD
ENDROOT
BRANCH   1  13
ATOM     11  C   UNL     1       3.771   6.050  17.411  0.00  0.00    +0.000 C 
ATOM     12  C   UNL     1       4.106   4.662  17.945  0.00  0.00    +0.000 C 
ATOM     13  N   UNL     1       4.979   3.825  17.457  0.00  0.00    +0.000 NA
BRANCH  12  14
ATOM     14  C   UNL     1       3.334   4.243  19.167  0.00  0.00    +0.000 A 
ATOM     15  C   UNL     1       2.292   5.056  19.633  0.00  0.00    +0.000 A 
ATOM     16  C   UNL     1       1.594   4.711  20.793  0.00  0.00    +0.000 A 
ATOM     17  C   UNL     1       1.926   3.549  21.488  0.00  0.00    +0.000 A 
ATOM     18  C   UNL     1       2.952   2.729  21.028  0.00  0.00    +0.000 A 
ATOM     19  C   UNL     1       3.656   3.075  19.872  0.00  0.00    +0.000 A 
ENDBRANCH  12  14
ENDBRANCH   1  13
TORSDOF 2
ENDMDL
MODEL 9
REMARK VINA RESULT:      -6.6      4.841      6.459
REMARK  Name = 
REMARK  3 active torsions:
REMARK  status: ('A' for Active; 'I' for Inactive)
REMARK    1  A    between atoms: C_1  and  C_2
REMARK    2  A    between atoms: C_2  and  C_13
REMARK    3  A    between atoms: N_3  and  C_4
REMARK                            x       y       z     vdW  Elec       q    Type
REMARK                         _______ _______ _______ _____ _____    ______ ____
ROOT
ATOM      1  C   UNL     1       1.575   8.343  20.164  0.00  0.00    +0.000 A 
ATOM      2  N   UNL     1       1.274   8.168  21.432  0.00  0.00    +0.000 NA
ATOM      3  C   UNL     1       0.432   9.192  21.772  0.00  0.00    +0.000 A 
ATOM      4  C   UNL     1      -0.126   9.502  23.018  0.00  0.00    +0.000 A 
ATOM      5  C   UNL     1      -0.969  10.615  23.113  0.00  0.00    +0.000 A 
ATOM      6  C   UNL     1      -1.249  11.397  21.989  0.00  0.00    +0.000 A 
ATOM      7  C   UNL     1      -0.698  11.099  20.735  0.00  0.00    +0.000 A 
ATOM      8  C   UNL     1       0.144   9.986  20.672  0.00  0.00    +0.000 A 
ATOM      9  N   UNL     1       0.849   9.398  19.653  0.00  0.00    +0.000 N 
ATOM     10  H   UNL     1       0.866   9.675  18.686  0.00  0.00    +0.000 HD
ENDROOT
BRANCH   1  13
ATOM     11  C   UNL     1       1.696   5.469  20.467  0.00  0.00    +0.000 C 
ATOM     12  C   UNL     1       2.404   6.331  19.428  0.00  0.00    +0.000 C 
ATOM     13  N   UNL     1       2.376   7.631  19.339  0.00  0.00    +0.000 NA
BRANCH  12  14
ATOM     14  C   UNL     1       3.217   5.572  18.414  0.00  0.00    +0.000 A 
ATOM     15  C   UNL     1       4.086   6.274  17.567  0.00  0.00    +0.000 A 
ATOM     16  C   UNL     1       4.815   5.595  16.586  0.00  0.00    +0.000 A 
ATOM     17  C   UNL     1       4.687   4.214  16.453  0.00  0.00    +0.000 A 
ATOM     18  C   UNL     1       3.836   3.505  17.296  0.00  0.00    +0.000 A 
ATOM     19  C   UNL     1       3.101   4.182  18.273  0.00  0.00    +0.000 A 
ENDBRANCH  12  14
ENDBRANCH   1  13
TORSDOF 2
ENDMDL
