MODEL 1
REMARK VINA RESULT:      -9.4      0.000      0.000
REMARK  Name = 
REMARK  8 active torsions:
REMARK  status: ('A' for Active; 'I' for Inactive)
REMARK    1  A    between atoms: C_1  and  C_2
REMARK    2  A    between atoms: C_4  and  C_5
REMARK    3  A    between atoms: C_5  and  O_6
REMARK    4  A    between atoms: O_6  and  C_7
REMARK    5  A    between atoms: C_10  and  S_11
REMARK    6  A    between atoms: S_11  and  N_14
REMARK    7  A    between atoms: C_17  and  C_18
REMARK    8  A    between atoms: N_20  and  O_21
REMARK                            x       y       z     vdW  Elec       q    Type
REMARK                         _______ _______ _______ _____ _____    ______ ____
ROOT
ATOM      1  C   UNL     1       1.814   7.829  19.731  0.00  0.00    +0.000 A 
ATOM      2  C   UNL     1       2.113   7.560  18.391  0.00  0.00    +0.000 A 
ATOM      3  C   UNL     1       2.410   6.259  17.974  0.00  0.00    +0.000 A 
ATOM      4  C   UNL     1       2.452   5.230  18.918  0.00  0.00    +0.000 A 
ATOM      5  C   UNL     1       2.207   5.499  20.269  0.00  0.00    +0.000 A 
ATOM      6  C   UNL     1       1.868   6.799  20.671  0.00  0.00    +0.000 A 
ENDROOT
BRANCH   4   7
ATOM      7  S   UNL     1       2.727   3.543  18.406  0.00  0.00    +0.000 S 
ATOM      8  O   UNL     1       2.532   2.708  19.579  0.00  0.00    +0.000 OA
ATOM      9  O   UNL     1       1.970   3.307  17.194  0.00  0.00    +0.000 OA
BRANCH   7  10
ATOM     10  N   UNL     1       4.375   3.481  17.992  0.00  0.00    +0.000 NA
ATOM     11  C   UNL     1       5.321   4.251  18.817  0.00  0.00    +0.000 C 
ATOM     12  C   UNL     1       5.573   5.531  18.047  0.00  0.00    +0.000 C 
ATOM     13  C   UNL     1       5.494   5.123  16.577  0.00  0.00    +0.000 C 
ATOM     14  C   UNL     1       4.704   3.807  16.564  0.00  0.00    +0.000 C 
BRANCH  13  15
ATOM     15  C   UNL     1       6.879   5.035  15.954  0.00  0.00    +0.000 C 
ATOM     16  O   UNL     1       7.858   4.518  16.482  0.00  0.00    +0.000 OA
ATOM     17  N   UNL     1       6.938   5.577  14.687  0.00  0.00    +0.000 N 
ATOM     18  H   UNL     1       6.183   6.076  14.227  0.00  0.00    +0.000 HD
BRANCH  17  19
ATOM     19  O   UNL     1       8.190   5.588  14.042  0.00  0.00    +0.000 OA
ATOM     20  H   UNL     1       8.815   5.420  14.777  0.00  0.00    +0.000 HD
ENDBRANCH  17  19
ENDBRANCH  13  15
ENDBRANCH   7  10
ENDBRANCH   4   7
BRANCH   1  21
ATOM     21  O   UNL     1       1.510   9.133  20.005  0.00  0.00    +0.000 OA
BRANCH  21  22
ATOM     22  C   UNL     1       1.044   9.925  18.910  0.00  0.00    +0.000 C 
BRANCH  22  26
ATOM     23  C   UNL     1      -1.115  12.986  22.256  0.00  0.00    +0.000 C 
ATOM     24  C   UNL     1      -1.166  12.211  20.972  0.00  0.00    +0.000 A 
ATOM     25  C   UNL     1      -0.078  11.464  20.548  0.00  0.00    +0.000 A 
ATOM     26  C   UNL     1      -0.164  10.722  19.363  0.00  0.00    +0.000 A 
ATOM     27  C   UNL     1      -1.375  10.737  18.642  0.00  0.00    +0.000 A 
ATOM     28  C   UNL     1      -2.403  11.567  19.113  0.00  0.00    +0.000 A 
ATOM     29  N   UNL     1      -2.315  12.277  20.265  0.00  0.00    +0.000 NA
ATOM     30  C   UNL     1      -3.714  11.695  18.374  0.00  0.00    +0.000 C 
ATOM     31  C   UNL     1      -3.630  11.240  16.920  0.00  0.00    +0.000 C 
ATOM     32  C   UNL     1      -2.986   9.864  16.860  0.00  0.00    +0.000 C 
ATOM     33  C   UNL     1      -1.546   9.939  17.370  0.00  0.00    +0.000 C 
ENDBRANCH  22  26
ENDBRANCH  21  22
ENDBRANCH   1  21
TORSDOF 7
ENDMDL
MODEL 2
REMARK VINA RESULT:      -9.2      1.331      1.714
REMARK  Name = 
REMARK  8 active torsions:
REMARK  status: ('A' for Active; 'I' for Inactive)
REMARK    1  A    between atoms: C_1  and  C_2
REMARK    2  A    between atoms: C_4  and  C_5
REMARK    3  A    between atoms: C_5  and  O_6
REMARK    4  A    between atoms: O_6  and  C_7
REMARK    5  A    between atoms: C_10  and  S_11
REMARK    6  A    between atoms: S_11  and  N_14
REMARK    7  A    between atoms: C_17  and  C_18
REMARK    8  A    between atoms: N_20  and  O_21
REMARK                            x       y       z     vdW  Elec       q    Type
REMARK                         _______ _______ _______ _____ _____    ______ ____
ROOT
ATOM      1  C   UNL     1       1.107   9.426  19.939  0.00  0.00    +0.000 A 
ATOM      2  C   UNL     1       1.579   9.226  18.638  0.00  0.00    +0.000 A 
ATOM      3  C   UNL     1       2.168   8.012  18.272  0.00  0.00    +0.000 A 
ATOM      4  C   UNL     1       2.324   7.009  19.232  0.00  0.00    +0.000 A 
ATOM      5  C   UNL     1       1.904   7.220  20.550  0.00  0.00    +0.000 A 
ATOM      6  C   UNL     1       1.276   8.425  20.897  0.00  0.00    +0.000 A 
ENDROOT
BRANCH   4   7
ATOM      7  S   UNL     1       2.978   5.414  18.776  0.00  0.00    +0.000 S 
ATOM      8  O   UNL     1       3.074   4.630  19.997  0.00  0.00    +0.000 OA
ATOM      9  O   UNL     1       2.227   4.923  17.639  0.00  0.00    +0.000 OA
BRANCH   7  10
ATOM     10  N   UNL     1       4.559   5.732  18.238  0.00  0.00    +0.000 NA
ATOM     11  C   UNL     1       4.763   6.886  17.346  0.00  0.00    +0.000 C 
ATOM     12  C   UNL     1       4.818   6.306  15.949  0.00  0.00    +0.000 C 
ATOM     13  C   UNL     1       5.471   4.937  16.121  0.00  0.00    +0.000 C 
ATOM     14  C   UNL     1       5.279   4.579  17.601  0.00  0.00    +0.000 C 
BRANCH  13  15
ATOM     15  C   UNL     1       6.920   4.955  15.658  0.00  0.00    +0.000 C 
ATOM     16  O   UNL     1       7.872   4.528  16.303  0.00  0.00    +0.000 OA
ATOM     17  N   UNL     1       7.078   5.484  14.393  0.00  0.00    +0.000 N 
ATOM     18  H   UNL     1       6.342   5.913  13.841  0.00  0.00    +0.000 HD
BRANCH  17  19
ATOM     19  O   UNL     1       8.390   5.590  13.892  0.00  0.00    +0.000 OA
ATOM     20  H   UNL     1       8.919   5.760  14.699  0.00  0.00    +0.000 HD
ENDBRANCH  17  19
ENDBRANCH  13  15
ENDBRANCH   7  10
ENDBRANCH   4   7
BRANCH   1  21
ATOM     21  O   UNL     1       0.524  10.642  20.162  0.00  0.00    +0.000 OA
BRANCH  21  22
ATOM     22  C   UNL     1       0.122  11.381  19.006  0.00  0.00    +0.000 C 
BRANCH  22  26
ATOM     23  C   UNL     1      -3.821  13.331  21.432  0.00  0.00    +0.000 C 
ATOM     24  C   UNL     1      -3.242  12.600  20.256  0.00  0.00    +0.000 A 
ATOM     25  C   UNL     1      -1.881  12.346  20.174  0.00  0.00    +0.000 A 
ATOM     26  C   UNL     1      -1.371  11.632  19.083  0.00  0.00    +0.000 A 
ATOM     27  C   UNL     1      -2.269  11.166  18.100  0.00  0.00    +0.000 A 
ATOM     28  C   UNL     1      -3.620  11.519  18.233  0.00  0.00    +0.000 A 
ATOM     29  N   UNL     1      -4.107  12.205  19.297  0.00  0.00    +0.000 NA
ATOM     30  C   UNL     1      -4.646  11.117  17.200  0.00  0.00    +0.000 C 
ATOM     31  C   UNL     1      -4.026  10.734  15.858  0.00  0.00    +0.000 C 
ATOM     32  C   UNL     1      -2.911   9.727  16.089  0.00  0.00    +0.000 C 
ATOM     33  C   UNL     1      -1.791  10.366  16.910  0.00  0.00    +0.000 C 
ENDBRANCH  22  26
ENDBRANCH  21  22
ENDBRANCH   1  21
TORSDOF 7
ENDMDL
MODEL 3
REMARK VINA RESULT:      -9.1      0.826      2.487
REMARK  Name = 
REMARK  8 active torsions:
REMARK  status: ('A' for Active; 'I' for Inactive)
REMARK    1  A    between atoms: C_1  and  C_2
REMARK    2  A    between atoms: C_4  and  C_5
REMARK    3  A    between atoms: C_5  and  O_6
REMARK    4  A    between atoms: O_6  and  C_7
REMARK    5  A    between atoms: C_10  and  S_11
REMARK    6  A    between atoms: S_11  and  N_14
REMARK    7  A    between atoms: C_17  and  C_18
REMARK    8  A    between atoms: N_20  and  O_21
REMARK                            x       y       z     vdW  Elec       q    Type
REMARK                         _______ _______ _______ _____ _____    ______ ____
ROOT
ATOM      1  C   UNL     1       1.808   8.002  19.535  0.00  0.00    +0.000 A 
ATOM      2  C   UNL     1       2.067   7.666  18.202  0.00  0.00    +0.000 A 
ATOM      3  C   UNL     1       2.365   6.348  17.843  0.00  0.00    +0.000 A 
ATOM      4  C   UNL     1       2.447   5.369  18.836  0.00  0.00    +0.000 A 
ATOM      5  C   UNL     1       2.242   5.705  20.179  0.00  0.00    +0.000 A 
ATOM      6  C   UNL     1       1.903   7.021  20.525  0.00  0.00    +0.000 A 
ENDROOT
BRANCH   4   7
ATOM      7  S   UNL     1       2.724   3.661  18.403  0.00  0.00    +0.000 S 
ATOM      8  O   UNL     1       2.522   2.880  19.612  0.00  0.00    +0.000 OA
ATOM      9  O   UNL     1       1.972   3.371  17.199  0.00  0.00    +0.000 OA
BRANCH   7  10
ATOM     10  N   UNL     1       4.373   3.580  18.000  0.00  0.00    +0.000 NA
ATOM     11  C   UNL     1       5.317   4.379  18.799  0.00  0.00    +0.000 C 
ATOM     12  C   UNL     1       5.576   5.627  17.982  0.00  0.00    +0.000 C 
ATOM     13  C   UNL     1       5.503   5.163  16.529  0.00  0.00    +0.000 C 
ATOM     14  C   UNL     1       4.710   3.850  16.562  0.00  0.00    +0.000 C 
BRANCH  13  15
ATOM     15  C   UNL     1       6.891   5.048  15.917  0.00  0.00    +0.000 C 
ATOM     16  O   UNL     1       7.860   4.528  16.459  0.00  0.00    +0.000 OA
ATOM     17  N   UNL     1       6.965   5.570  14.641  0.00  0.00    +0.000 N 
ATOM     18  H   UNL     1       6.220   6.071  14.169  0.00  0.00    +0.000 HD
BRANCH  17  19
ATOM     19  O   UNL     1       8.221   5.556  14.005  0.00  0.00    +0.000 OA
ATOM     20  H   UNL     1       8.356   4.605  13.808  0.00  0.00    +0.000 HD
ENDBRANCH  17  19
ENDBRANCH  13  15
ENDBRANCH   7  10
ENDBRANCH   4   7
BRANCH   1  21
ATOM     21  O   UNL     1       1.500   9.315  19.752  0.00  0.00    +0.000 OA
BRANCH  21  22
ATOM     22  C   UNL     1       0.555   9.589  20.789  0.00  0.00    +0.000 C 
BRANCH  22  26
ATOM     23  C   UNL     1      -2.306  11.091  16.943  0.00  0.00    +0.000 C 
ATOM     24  C   UNL     1      -1.897  11.190  18.384  0.00  0.00    +0.000 A 
ATOM     25  C   UNL     1      -0.906  10.370  18.901  0.00  0.00    +0.000 A 
ATOM     26  C   UNL     1      -0.520  10.507  20.240  0.00  0.00    +0.000 A 
ATOM     27  C   UNL     1      -1.140  11.500  21.025  0.00  0.00    +0.000 A 
ATOM     28  C   UNL     1      -2.174  12.244  20.437  0.00  0.00    +0.000 A 
ATOM     29  N   UNL     1      -2.537  12.111  19.137  0.00  0.00    +0.000 NA
ATOM     30  C   UNL     1      -2.937  13.288  21.217  0.00  0.00    +0.000 C 
ATOM     31  C   UNL     1      -2.803  13.123  22.728  0.00  0.00    +0.000 C 
ATOM     32  C   UNL     1      -1.333  12.991  23.092  0.00  0.00    +0.000 C 
ATOM     33  C   UNL     1      -0.754  11.720  22.470  0.00  0.00    +0.000 C 
ENDBRANCH  22  26
ENDBRANCH  21  22
ENDBRANCH   1  21
TORSDOF 7
ENDMDL
MODEL 4
REMARK VINA RESULT:      -9.0      1.472      2.026
REMARK  Name = 
REMARK  8 active torsions:
REMARK  status: ('A' for Active; 'I' for Inactive)
REMARK    1  A    between atoms: C_1  and  C_2
REMARK    2  A    between atoms: C_4  and  C_5
REMARK    3  A    between atoms: C_5  and  O_6
REMARK    4  A    between atoms: O_6  and  C_7
REMARK    5  A    between atoms: C_10  and  S_11
REMARK    6  A    between atoms: S_11  and  N_14
REMARK    7  A    between atoms: C_17  and  C_18
REMARK    8  A    between atoms: N_20  and  O_21
REMARK                            x       y       z     vdW  Elec       q    Type
REMARK                         _______ _______ _______ _____ _____    ______ ____
ROOT
ATOM      1  C   UNL     1       1.267   8.680  19.769  0.00  0.00    +0.000 A 
ATOM      2  C   UNL     1       1.415   7.652  20.707  0.00  0.00    +0.000 A 
ATOM      3  C   UNL     1       2.275   6.578  20.458  0.00  0.00    +0.000 A 
ATOM      4  C   UNL     1       2.957   6.514  19.240  0.00  0.00    +0.000 A 
ATOM      5  C   UNL     1       2.774   7.509  18.274  0.00  0.00    +0.000 A 
ATOM      6  C   UNL     1       1.942   8.604  18.549  0.00  0.00    +0.000 A 
ENDROOT
BRANCH   4   7
ATOM      7  S   UNL     1       4.138   5.213  18.932  0.00  0.00    +0.000 S 
ATOM      8  O   UNL     1       5.362   5.581  19.624  0.00  0.00    +0.000 OA
ATOM      9  O   UNL     1       3.492   3.943  19.193  0.00  0.00    +0.000 OA
BRANCH   7  10
ATOM     10  N   UNL     1       4.440   5.291  17.261  0.00  0.00    +0.000 NA
ATOM     11  C   UNL     1       4.054   4.134  16.437  0.00  0.00    +0.000 C 
ATOM     12  C   UNL     1       5.328   3.340  16.239  0.00  0.00    +0.000 C 
ATOM     13  C   UNL     1       6.436   4.390  16.188  0.00  0.00    +0.000 C 
ATOM     14  C   UNL     1       5.848   5.634  16.866  0.00  0.00    +0.000 C 
BRANCH  13  15
ATOM     15  C   UNL     1       6.917   4.615  14.762  0.00  0.00    +0.000 C 
ATOM     16  O   UNL     1       7.727   5.468  14.417  0.00  0.00    +0.000 OA
ATOM     17  N   UNL     1       6.368   3.726  13.859  0.00  0.00    +0.000 N 
ATOM     18  H   UNL     1       5.646   3.046  14.071  0.00  0.00    +0.000 HD
BRANCH  17  19
ATOM     19  O   UNL     1       6.713   3.882  12.503  0.00  0.00    +0.000 OA
ATOM     20  H   UNL     1       7.326   4.646  12.520  0.00  0.00    +0.000 HD
ENDBRANCH  17  19
ENDBRANCH  13  15
ENDBRANCH   7  10
ENDBRANCH   4   7
BRANCH   1  21
ATOM     21  O   UNL     1       0.422   9.686  20.143  0.00  0.00    +0.000 OA
BRANCH  21  22
ATOM     22  C   UNL     1       0.306  10.792  19.245  0.00  0.00    +0.000 C 
BRANCH  22  26
ATOM     23  C   UNL     1      -3.303  13.443  21.521  0.00  0.00    +0.000 C 
ATOM     24  C   UNL     1      -2.828  12.597  20.375  0.00  0.00    +0.000 A 
ATOM     25  C   UNL     1      -1.530  12.113  20.337  0.00  0.00    +0.000 A 
ATOM     26  C   UNL     1      -1.123  11.297  19.274  0.00  0.00    +0.000 A 
ATOM     27  C   UNL     1      -2.063  10.970  18.275  0.00  0.00    +0.000 A 
ATOM     28  C   UNL     1      -3.336  11.552  18.362  0.00  0.00    +0.000 A 
ATOM     29  N   UNL     1      -3.724  12.335  19.399  0.00  0.00    +0.000 NA
ATOM     30  C   UNL     1      -4.389  11.309  17.307  0.00  0.00    +0.000 C 
ATOM     31  C   UNL     1      -3.810  10.795  15.991  0.00  0.00    +0.000 C 
ATOM     32  C   UNL     1      -2.891   9.617  16.271  0.00  0.00    +0.000 C 
ATOM     33  C   UNL     1      -1.699  10.073  17.113  0.00  0.00    +0.000 C 
ENDBRANCH  22  26
ENDBRANCH  21  22
ENDBRANCH   1  21
TORSDOF 7
ENDMDL
MODEL 5
REMARK VINA RESULT:      -8.9      1.458      2.064
REMARK  Name = 
REMARK  8 active torsions:
REMARK  status: ('A' for Active; 'I' for Inactive)
REMARK    1  A    between atoms: C_1  and  C_2
REMARK    2  A    between atoms: C_4  and  C_5
REMARK    3  A    between atoms: C_5  and  O_6
REMARK    4  A    between atoms: O_6  and  C_7
REMARK    5  A    between atoms: C_10  and  S_11
REMARK    6  A    between atoms: S_11  and  N_14
REMARK    7  A    between atoms: C_17  and  C_18
REMARK    8  A    between atoms: N_20  and  O_21
REMARK                            x       y       z     vdW  Elec       q    Type
REMARK                         _______ _______ _______ _____ _____    ______ ____
ROOT
ATOM      1  C   UNL     1       1.005   9.506  19.922  0.00  0.00    +0.000 A 
ATOM      2  C   UNL     1       1.046   8.506  20.901  0.00  0.00    +0.000 A 
ATOM      3  C   UNL     1       1.592   7.251  20.615  0.00  0.00    +0.000 A 
ATOM      4  C   UNL     1       2.059   6.984  19.326  0.00  0.00    +0.000 A 
ATOM      5  C   UNL     1       1.973   7.959  18.326  0.00  0.00    +0.000 A 
ATOM      6  C   UNL     1       1.463   9.229  18.633  0.00  0.00    +0.000 A 
ENDROOT
BRANCH   4   7
ATOM      7  S   UNL     1       2.854   5.431  18.955  0.00  0.00    +0.000 S 
ATOM      8  O   UNL     1       3.756   5.143  20.057  0.00  0.00    +0.000 OA
ATOM      9  O   UNL     1       1.833   4.480  18.566  0.00  0.00    +0.000 OA
BRANCH   7  10
ATOM     10  N   UNL     1       3.800   5.747  17.578  0.00  0.00    +0.000 NA
ATOM     11  C   UNL     1       4.168   4.609  16.720  0.00  0.00    +0.000 C 
ATOM     12  C   UNL     1       5.579   4.240  17.129  0.00  0.00    +0.000 C 
ATOM     13  C   UNL     1       6.231   5.566  17.516  0.00  0.00    +0.000 C 
ATOM     14  C   UNL     1       5.066   6.518  17.817  0.00  0.00    +0.000 C 
BRANCH  13  15
ATOM     15  C   UNL     1       7.180   6.051  16.431  0.00  0.00    +0.000 C 
ATOM     16  O   UNL     1       7.889   7.048  16.508  0.00  0.00    +0.000 OA
ATOM     17  N   UNL     1       7.201   5.228  15.322  0.00  0.00    +0.000 N 
ATOM     18  H   UNL     1       6.591   4.431  15.173  0.00  0.00    +0.000 HD
BRANCH  17  19
ATOM     19  O   UNL     1       8.013   5.617  14.239  0.00  0.00    +0.000 OA
ATOM     20  H   UNL     1       7.638   6.485  13.986  0.00  0.00    +0.000 HD
ENDBRANCH  17  19
ENDBRANCH  13  15
ENDBRANCH   7  10
ENDBRANCH   4   7
BRANCH   1  21
ATOM     21  O   UNL     1       0.476  10.696  20.334  0.00  0.00    +0.000 OA
BRANCH  21  22
ATOM     22  C   UNL     1       0.111  11.623  19.310  0.00  0.00    +0.000 C 
BRANCH  22  26
ATOM     23  C   UNL     1      -3.992  13.411  21.592  0.00  0.00    +0.000 C 
ATOM     24  C   UNL     1      -3.342  12.701  20.440  0.00  0.00    +0.000 A 
ATOM     25  C   UNL     1      -1.970  12.506  20.405  0.00  0.00    +0.000 A 
ATOM     26  C   UNL     1      -1.394  11.811  19.335  0.00  0.00    +0.000 A 
ATOM     27  C   UNL     1      -2.237  11.304  18.325  0.00  0.00    +0.000 A 
ATOM     28  C   UNL     1      -3.606  11.599  18.410  0.00  0.00    +0.000 A 
ATOM     29  N   UNL     1      -4.157  12.268  19.454  0.00  0.00    +0.000 NA
ATOM     30  C   UNL     1      -4.578  11.152  17.344  0.00  0.00    +0.000 C 
ATOM     31  C   UNL     1      -3.897  10.791  16.026  0.00  0.00    +0.000 C 
ATOM     32  C   UNL     1      -2.748   9.833  16.299  0.00  0.00    +0.000 C 
ATOM     33  C   UNL     1      -1.685  10.522  17.155  0.00  0.00    +0.000 C 
ENDBRANCH  22  26
ENDBRANCH  21  22
ENDBRANCH   1  21
TORSDOF 7
ENDMDL
MODEL 6
REMARK VINA RESULT:      -8.9      4.313     11.000
REMARK  Name = 
REMARK  8 active torsions:
REMARK  status: ('A' for Active; 'I' for Inactive)
REMARK    1  A    between atoms: C_1  and  C_2
REMARK    2  A    between atoms: C_4  and  C_5
REMARK    3  A    between atoms: C_5  and  O_6
REMARK    4  A    between atoms: O_6  and  C_7
REMARK    5  A    between atoms: C_10  and  S_11
REMARK    6  A    between atoms: S_11  and  N_14
REMARK    7  A    between atoms: C_17  and  C_18
REMARK    8  A    between atoms: N_20  and  O_21
REMARK                            x       y       z     vdW  Elec       q    Type
REMARK                         _______ _______ _______ _____ _____    ______ ____
ROOT
ATOM      1  C   UNL     1       0.577   8.869  21.525  0.00  0.00    +0.000 A 
ATOM      2  C   UNL     1       0.382   9.703  20.418  0.00  0.00    +0.000 A 
ATOM      3  C   UNL     1      -0.279  10.927  20.556  0.00  0.00    +0.000 A 
ATOM      4  C   UNL     1      -0.787  11.295  21.804  0.00  0.00    +0.000 A 
ATOM      5  C   UNL     1      -0.644  10.444  22.905  0.00  0.00    +0.000 A 
ATOM      6  C   UNL     1       0.057   9.237  22.767  0.00  0.00    +0.000 A 
ENDROOT
BRANCH   4   7
ATOM      7  S   UNL     1      -1.545  12.893  22.037  0.00  0.00    +0.000 S 
ATOM      8  O   UNL     1      -1.161  13.355  23.361  0.00  0.00    +0.000 OA
ATOM      9  O   UNL     1      -1.276  13.699  20.864  0.00  0.00    +0.000 OA
BRANCH   7  10
ATOM     10  N   UNL     1      -3.216  12.579  22.060  0.00  0.00    +0.000 NA
ATOM     11  C   UNL     1      -4.089  13.441  21.247  0.00  0.00    +0.000 C 
ATOM     12  C   UNL     1      -4.659  14.459  22.214  0.00  0.00    +0.000 C 
ATOM     13  C   UNL     1      -4.800  13.705  23.534  0.00  0.00    +0.000 C 
ATOM     14  C   UNL     1      -3.849  12.505  23.420  0.00  0.00    +0.000 C 
BRANCH  13  15
ATOM     15  C   UNL     1      -6.251  13.337  23.807  0.00  0.00    +0.000 C 
ATOM     16  O   UNL     1      -7.120  14.121  24.172  0.00  0.00    +0.000 OA
ATOM     17  N   UNL     1      -6.525  12.005  23.571  0.00  0.00    +0.000 N 
ATOM     18  H   UNL     1      -5.837  11.298  23.335  0.00  0.00    +0.000 HD
BRANCH  17  19
ATOM     19  O   UNL     1      -7.832  11.554  23.841  0.00  0.00    +0.000 OA
ATOM     20  H   UNL     1      -7.690  10.623  24.111  0.00  0.00    +0.000 HD
ENDBRANCH  17  19
ENDBRANCH  13  15
ENDBRANCH   7  10
ENDBRANCH   4   7
BRANCH   1  21
ATOM     21  O   UNL     1       1.264   7.716  21.266  0.00  0.00    +0.000 OA
BRANCH  21  22
ATOM     22  C   UNL     1       1.897   7.622  19.988  0.00  0.00    +0.000 C 
BRANCH  22  26
ATOM     23  C   UNL     1       2.063   2.837  21.509  0.00  0.00    +0.000 C 
ATOM     24  C   UNL     1       2.459   3.915  20.543  0.00  0.00    +0.000 A 
ATOM     25  C   UNL     1       2.006   5.216  20.701  0.00  0.00    +0.000 A 
ATOM     26  C   UNL     1       2.418   6.210  19.805  0.00  0.00    +0.000 A 
ATOM     27  C   UNL     1       3.310   5.860  18.770  0.00  0.00    +0.000 A 
ATOM     28  C   UNL     1       3.670   4.510  18.649  0.00  0.00    +0.000 A 
ATOM     29  N   UNL     1       3.272   3.554  19.526  0.00  0.00    +0.000 NA
ATOM     30  C   UNL     1       4.572   4.030  17.537  0.00  0.00    +0.000 C 
ATOM     31  C   UNL     1       4.653   5.007  16.368  0.00  0.00    +0.000 C 
ATOM     32  C   UNL     1       4.962   6.399  16.897  0.00  0.00    +0.000 C 
ATOM     33  C   UNL     1       3.816   6.887  17.784  0.00  0.00    +0.000 C 
ENDBRANCH  22  26
ENDBRANCH  21  22
ENDBRANCH   1  21
TORSDOF 7
ENDMDL
MODEL 7
REMARK VINA RESULT:      -8.9      1.263      2.607
REMARK  Name = 
REMARK  8 active torsions:
REMARK  status: ('A' for Active; 'I' for Inactive)
REMARK    1  A    between atoms: C_1  and  C_2
REMARK    2  A    between atoms: C_4  and  C_5
REMARK    3  A    between atoms: C_5  and  O_6
REMARK    4  A    between atoms: O_6  and  C_7
REMARK    5  A    between atoms: C_10  and  S_11
REMARK    6  A    between atoms: S_11  and  N_14
REMARK    7  A    between atoms: C_17  and  C_18
REMARK    8  A    between atoms: N_20  and  O_21
REMARK                            x       y       z     vdW  Elec       q    Type
REMARK                         _______ _______ _______ _____ _____    ______ ____
ROOT
ATOM      1  C   UNL     1       1.836   7.850  19.929  0.00  0.00    +0.000 A 
ATOM      2  C   UNL     1       2.135   7.623  18.581  0.00  0.00    +0.000 A 
ATOM      3  C   UNL     1       2.332   6.324  18.103  0.00  0.00    +0.000 A 
ATOM      4  C   UNL     1       2.272   5.250  18.994  0.00  0.00    +0.000 A 
ATOM      5  C   UNL     1       2.028   5.471  20.353  0.00  0.00    +0.000 A 
ATOM      6  C   UNL     1       1.790   6.773  20.816  0.00  0.00    +0.000 A 
ENDROOT
BRANCH   4   7
ATOM      7  S   UNL     1       2.418   3.574  18.401  0.00  0.00    +0.000 S 
ATOM      8  O   UNL     1       2.161   2.700  19.534  0.00  0.00    +0.000 OA
ATOM      9  O   UNL     1       1.643   3.454  17.183  0.00  0.00    +0.000 OA
BRANCH   7  10
ATOM     10  N   UNL     1       4.055   3.406  17.976  0.00  0.00    +0.000 NA
ATOM     11  C   UNL     1       5.067   3.850  18.948  0.00  0.00    +0.000 C 
ATOM     12  C   UNL     1       5.488   5.230  18.485  0.00  0.00    +0.000 C 
ATOM     13  C   UNL     1       5.394   5.174  16.962  0.00  0.00    +0.000 C 
ATOM     14  C   UNL     1       4.453   4.001  16.656  0.00  0.00    +0.000 C 
BRANCH  13  15
ATOM     15  C   UNL     1       6.773   5.060  16.328  0.00  0.00    +0.000 C 
ATOM     16  O   UNL     1       7.774   4.630  16.890  0.00  0.00    +0.000 OA
ATOM     17  N   UNL     1       6.797   5.468  15.010  0.00  0.00    +0.000 N 
ATOM     18  H   UNL     1       6.022   5.894  14.513  0.00  0.00    +0.000 HD
BRANCH  17  19
ATOM     19  O   UNL     1       8.040   5.447  14.346  0.00  0.00    +0.000 OA
ATOM     20  H   UNL     1       8.646   5.840  15.007  0.00  0.00    +0.000 HD
ENDBRANCH  17  19
ENDBRANCH  13  15
ENDBRANCH   7  10
ENDBRANCH   4   7
BRANCH   1  21
ATOM     21  O   UNL     1       1.636   9.159  20.264  0.00  0.00    +0.000 OA
BRANCH  21  22
ATOM     22  C   UNL     1       0.316   9.519  20.679  0.00  0.00    +0.000 C 
BRANCH  22  26
ATOM     23  C   UNL     1      -2.605  10.560  16.727  0.00  0.00    +0.000 C 
ATOM     24  C   UNL     1      -1.673  11.006  17.816  0.00  0.00    +0.000 A 
ATOM     25  C   UNL     1      -1.138  10.094  18.713  0.00  0.00    +0.000 A 
ATOM     26  C   UNL     1      -0.244  10.531  19.698  0.00  0.00    +0.000 A 
ATOM     27  C   UNL     1       0.108  11.896  19.735  0.00  0.00    +0.000 A 
ATOM     28  C   UNL     1      -0.526  12.757  18.827  0.00  0.00    +0.000 A 
ATOM     29  N   UNL     1      -1.386  12.324  17.871  0.00  0.00    +0.000 NA
ATOM     30  C   UNL     1      -0.259  14.243  18.830  0.00  0.00    +0.000 C 
ATOM     31  C   UNL     1       0.356  14.738  20.137  0.00  0.00    +0.000 C 
ATOM     32  C   UNL     1       1.549  13.865  20.493  0.00  0.00    +0.000 C 
ATOM     33  C   UNL     1       1.088  12.431  20.754  0.00  0.00    +0.000 C 
ENDBRANCH  22  26
ENDBRANCH  21  22
ENDBRANCH   1  21
TORSDOF 7
ENDMDL
MODEL 8
REMARK VINA RESULT:      -8.7      1.574      1.987
REMARK  Name = 
REMARK  8 active torsions:
REMARK  status: ('A' for Active; 'I' for Inactive)
REMARK    1  A    between atoms: C_1  and  C_2
REMARK    2  A    between atoms: C_4  and  C_5
REMARK    3  A    between atoms: C_5  and  O_6
REMARK    4  A    between atoms: O_6  and  C_7
REMARK    5  A    between atoms: C_10  and  S_11
REMARK    6  A    between atoms: S_11  and  N_14
REMARK    7  A    between atoms: C_17  and  C_18
REMARK    8  A    between atoms: N_20  and  O_21
REMARK                            x       y       z     vdW  Elec       q    Type
REMARK                         _______ _______ _______ _____ _____    ______ ____
ROOT
ATOM      1  C   UNL     1       1.071   9.447  20.021  0.00  0.00    +0.000 A 
ATOM      2  C   UNL     1       1.613   9.105  18.777  0.00  0.00    +0.000 A 
ATOM      3  C   UNL     1       2.138   7.828  18.555  0.00  0.00    +0.000 A 
ATOM      4  C   UNL     1       2.160   6.904  19.602  0.00  0.00    +0.000 A 
ATOM      5  C   UNL     1       1.670   7.255  20.865  0.00  0.00    +0.000 A 
ATOM      6  C   UNL     1       1.106   8.523  21.067  0.00  0.00    +0.000 A 
ENDROOT
BRANCH   4   7
ATOM      7  S   UNL     1       2.729   5.237  19.325  0.00  0.00    +0.000 S 
ATOM      8  O   UNL     1       3.948   5.071  20.101  0.00  0.00    +0.000 OA
ATOM      9  O   UNL     1       1.607   4.338  19.507  0.00  0.00    +0.000 OA
BRANCH   7  10
ATOM     10  N   UNL     1       3.151   5.192  17.679  0.00  0.00    +0.000 NA
ATOM     11  C   UNL     1       3.028   3.906  16.973  0.00  0.00    +0.000 C 
ATOM     12  C   UNL     1       4.427   3.327  16.949  0.00  0.00    +0.000 C 
ATOM     13  C   UNL     1       5.348   4.541  16.846  0.00  0.00    +0.000 C 
ATOM     14  C   UNL     1       4.510   5.729  17.337  0.00  0.00    +0.000 C 
BRANCH  13  15
ATOM     15  C   UNL     1       5.901   4.696  15.437  0.00  0.00    +0.000 C 
ATOM     16  O   UNL     1       6.224   5.759  14.919  0.00  0.00    +0.000 OA
ATOM     17  N   UNL     1       6.041   3.492  14.776  0.00  0.00    +0.000 N 
ATOM     18  H   UNL     1       5.729   2.592  15.124  0.00  0.00    +0.000 HD
BRANCH  17  19
ATOM     19  O   UNL     1       6.500   3.532  13.445  0.00  0.00    +0.000 OA
ATOM     20  H   UNL     1       6.089   2.736  13.048  0.00  0.00    +0.000 HD
ENDBRANCH  17  19
ENDBRANCH  13  15
ENDBRANCH   7  10
ENDBRANCH   4   7
BRANCH   1  21
ATOM     21  O   UNL     1       0.562  10.712  20.102  0.00  0.00    +0.000 OA
BRANCH  21  22
ATOM     22  C   UNL     1       0.117  11.303  18.879  0.00  0.00    +0.000 C 
BRANCH  22  26
ATOM     23  C   UNL     1      -3.726  13.328  21.402  0.00  0.00    +0.000 C 
ATOM     24  C   UNL     1      -3.189  12.594  20.208  0.00  0.00    +0.000 A 
ATOM     25  C   UNL     1      -1.837  12.307  20.096  0.00  0.00    +0.000 A 
ATOM     26  C   UNL     1      -1.368  11.591  18.988  0.00  0.00    +0.000 A 
ATOM     27  C   UNL     1      -2.297  11.157  18.020  0.00  0.00    +0.000 A 
ATOM     28  C   UNL     1      -3.636  11.542  18.184  0.00  0.00    +0.000 A 
ATOM     29  N   UNL     1      -4.084  12.230  19.263  0.00  0.00    +0.000 NA
ATOM     30  C   UNL     1      -4.692  11.176  17.168  0.00  0.00    +0.000 C 
ATOM     31  C   UNL     1      -4.109  10.790  15.811  0.00  0.00    +0.000 C 
ATOM     32  C   UNL     1      -3.015   9.753  16.010  0.00  0.00    +0.000 C 
ATOM     33  C   UNL     1      -1.863  10.356  16.814  0.00  0.00    +0.000 C 
ENDBRANCH  22  26
ENDBRANCH  21  22
ENDBRANCH   1  21
TORSDOF 7
ENDMDL
MODEL 9
REMARK VINA RESULT:      -8.7      3.701     10.611
REMARK  Name = 
REMARK  8 active torsions:
REMARK  status: ('A' for Active; 'I' for Inactive)
REMARK    1  A    between atoms: C_1  and  C_2
REMARK    2  A    between atoms: C_4  and  C_5
REMARK    3  A    between atoms: C_5  and  O_6
REMARK    4  A    between atoms: O_6  and  C_7
REMARK    5  A    between atoms: C_10  and  S_11
REMARK    6  A    between atoms: S_11  and  N_14
REMARK    7  A    between atoms: C_17  and  C_18
REMARK    8  A    between atoms: N_20  and  O_21
REMARK                            x       y       z     vdW  Elec       q    Type
REMARK                         _______ _______ _______ _____ _____    ______ ____
ROOT
ATOM      1  C   UNL     1       1.535   8.519  19.971  0.00  0.00    +0.000 A 
ATOM      2  C   UNL     1       1.370   9.495  18.982  0.00  0.00    +0.000 A 
ATOM      3  C   UNL     1       0.731  10.705  19.273  0.00  0.00    +0.000 A 
ATOM      4  C   UNL     1       0.217  10.917  20.554  0.00  0.00    +0.000 A 
ATOM      5  C   UNL     1       0.330   9.926  21.535  0.00  0.00    +0.000 A 
ATOM      6  C   UNL     1       1.009   8.733  21.247  0.00  0.00    +0.000 A 
ENDROOT
BRANCH   4   7
ATOM      7  S   UNL     1      -0.512  12.486  20.988  0.00  0.00    +0.000 S 
ATOM      8  O   UNL     1       0.263  13.022  22.094  0.00  0.00    +0.000 OA
ATOM      9  O   UNL     1      -0.696  13.252  19.772  0.00  0.00    +0.000 OA
BRANCH   7  10
ATOM     10  N   UNL     1      -2.058  12.096  21.577  0.00  0.00    +0.000 NA
ATOM     11  C   UNL     1      -3.208  12.844  21.042  0.00  0.00    +0.000 C 
ATOM     12  C   UNL     1      -3.506  13.911  22.074  0.00  0.00    +0.000 C 
ATOM     13  C   UNL     1      -3.158  13.265  23.413  0.00  0.00    +0.000 C 
ATOM     14  C   UNL     1      -2.212  12.107  23.071  0.00  0.00    +0.000 C 
BRANCH  13  15
ATOM     15  C   UNL     1      -4.413  12.854  24.169  0.00  0.00    +0.000 C 
ATOM     16  O   UNL     1      -4.520  11.849  24.863  0.00  0.00    +0.000 OA
ATOM     17  N   UNL     1      -5.449  13.755  24.029  0.00  0.00    +0.000 N 
ATOM     18  H   UNL     1      -5.443  14.565  23.418  0.00  0.00    +0.000 HD
BRANCH  17  19
ATOM     19  O   UNL     1      -6.672  13.440  24.652  0.00  0.00    +0.000 OA
ATOM     20  H   UNL     1      -7.335  13.774  24.013  0.00  0.00    +0.000 HD
ENDBRANCH  17  19
ENDBRANCH  13  15
ENDBRANCH   7  10
ENDBRANCH   4   7
BRANCH   1  21
ATOM     21  O   UNL     1       2.201   7.396  19.570  0.00  0.00    +0.000 OA
BRANCH  21  22
ATOM     22  C   UNL     1       2.329   7.197  18.160  0.00  0.00    +0.000 C 
BRANCH  22  26
ATOM     23  C   UNL     1       6.882   5.590  16.776  0.00  0.00    +0.000 C 
ATOM     24  C   UNL     1       5.493   5.311  17.270  0.00  0.00    +0.000 A 
ATOM     25  C   UNL     1       4.592   6.342  17.486  0.00  0.00    +0.000 A 
ATOM     26  C   UNL     1       3.292   6.052  17.914  0.00  0.00    +0.000 A 
ATOM     27  C   UNL     1       2.924   4.702  18.092  0.00  0.00    +0.000 A 
ATOM     28  C   UNL     1       3.915   3.727  17.908  0.00  0.00    +0.000 A 
ATOM     29  N   UNL     1       5.172   4.017  17.486  0.00  0.00    +0.000 NA
ATOM     30  C   UNL     1       3.633   2.261  18.134  0.00  0.00    +0.000 C 
ATOM     31  C   UNL     1       2.390   2.015  18.985  0.00  0.00    +0.000 C 
ATOM     32  C   UNL     1       1.228   2.819  18.423  0.00  0.00    +0.000 C 
ATOM     33  C   UNL     1       1.529   4.314  18.527  0.00  0.00    +0.000 C 
ENDBRANCH  22  26
ENDBRANCH  21  22
ENDBRANCH   1  21
TORSDOF 7
ENDMDL
