MODEL 1
REMARK VINA RESULT:      -4.9      0.000      0.000
REMARK  Name = 
REMARK  6 active torsions:
REMARK  status: ('A' for Active; 'I' for Inactive)
REMARK    1  A    between atoms: N_1  and  C_2
REMARK    2  A    between atoms: C_2  and  C_3
REMARK    3  A    between atoms: C_2  and  C_9
REMARK    4  A    between atoms: C_3  and  S_4
REMARK    5  A    between atoms: S_4  and  C_5
REMARK    6  A    between atoms: C_9  and  O_11
REMARK                            x       y       z     vdW  Elec       q    Type
REMARK                         _______ _______ _______ _____ _____    ______ ____
ROOT
ATOM      1  C   UNK     1       6.796   5.611  18.969  0.00  0.00    +0.000 C 
ENDROOT
BRANCH   1   2
ATOM      2  N   UNK     1       7.739   5.407  20.096  0.00  0.00    +0.000 NA
ATOM      3  H   UNK     1       8.688   5.686  19.869  0.00  0.00    +0.000 HD
ATOM      4  H   UNK     1       7.781   4.411  20.323  0.00  0.00    +0.000 HD
ENDBRANCH   1   2
BRANCH   1   5
ATOM      5  C   UNK     1       7.493   5.273  17.641  0.00  0.00    +0.000 C 
ATOM      6  O   UNK     1       7.461   5.960  16.634  0.00  0.00    +0.000 OA
BRANCH   5   7
ATOM      7  O   UNK     1       8.157   4.090  17.686  0.00  0.00    +0.000 OA
ATOM      8  H   UNK     1       8.647   3.895  16.866  0.00  0.00    +0.000 HD
ENDBRANCH   5   7
ENDBRANCH   1   5
BRANCH   1   9
ATOM      9  C   UNK     1       5.510   4.767  19.102  0.00  0.00    +0.000 C 
BRANCH   9  10
ATOM     10  S   UNK     1       4.023   5.719  18.633  0.00  0.00    +0.000 S 
BRANCH  10  11
ATOM     11  C   UNK     1       2.720   4.694  19.159  0.00  0.00    +0.000 C 
ATOM     12 CL   UNK     1       1.880   5.078  20.624  0.00  0.00    +0.000 Cl
ATOM     13  C   UNK     1       2.446   3.583  18.465  0.00  0.00    +0.000 C 
ATOM     14 CL   UNK     1       1.254   2.413  18.861  0.00  0.00    +0.000 Cl
ENDBRANCH  10  11
ENDBRANCH   9  10
ENDBRANCH   1   9
TORSDOF 6
ENDMDL
MODEL 2
REMARK VINA RESULT:      -4.9      1.049      1.085
REMARK  Name = 
REMARK  6 active torsions:
REMARK  status: ('A' for Active; 'I' for Inactive)
REMARK    1  A    between atoms: N_1  and  C_2
REMARK    2  A    between atoms: C_2  and  C_3
REMARK    3  A    between atoms: C_2  and  C_9
REMARK    4  A    between atoms: C_3  and  S_4
REMARK    5  A    between atoms: S_4  and  C_5
REMARK    6  A    between atoms: C_9  and  O_11
REMARK                            x       y       z     vdW  Elec       q    Type
REMARK                         _______ _______ _______ _____ _____    ______ ____
ROOT
ATOM      1  C   UNK     1       6.697   5.648  18.769  0.00  0.00    +0.000 C 
ENDROOT
BRANCH   1   2
ATOM      2  N   UNK     1       7.650   5.581  19.903  0.00  0.00    +0.000 NA
ATOM      3  H   UNK     1       8.551   5.195  19.637  0.00  0.00    +0.000 HD
ATOM      4  H   UNK     1       7.274   4.960  20.623  0.00  0.00    +0.000 HD
ENDBRANCH   1   2
BRANCH   1   5
ATOM      5  C   UNK     1       7.439   5.372  17.451  0.00  0.00    +0.000 C 
ATOM      6  O   UNK     1       7.471   6.122  16.489  0.00  0.00    +0.000 OA
BRANCH   5   7
ATOM      7  O   UNK     1       8.065   4.167  17.446  0.00  0.00    +0.000 OA
ATOM      8  H   UNK     1       8.682   4.053  18.193  0.00  0.00    +0.000 HD
ENDBRANCH   5   7
ENDBRANCH   1   5
BRANCH   1   9
ATOM      9  C   UNK     1       5.523   4.656  18.911  0.00  0.00    +0.000 C 
BRANCH   9  10
ATOM     10  S   UNK     1       3.942   5.519  19.226  0.00  0.00    +0.000 S 
BRANCH  10  11
ATOM     11  C   UNK     1       2.754   4.297  18.877  0.00  0.00    +0.000 C 
ATOM     12 CL   UNK     1       1.634   4.552  17.581  0.00  0.00    +0.000 Cl
ATOM     13  C   UNK     1       2.676   3.221  19.669  0.00  0.00    +0.000 C 
ATOM     14 CL   UNK     1       1.533   1.948  19.533  0.00  0.00    +0.000 Cl
ENDBRANCH  10  11
ENDBRANCH   9  10
ENDBRANCH   1   9
TORSDOF 6
ENDMDL
MODEL 3
REMARK VINA RESULT:      -4.9      2.142      2.197
REMARK  Name = 
REMARK  6 active torsions:
REMARK  status: ('A' for Active; 'I' for Inactive)
REMARK    1  A    between atoms: N_1  and  C_2
REMARK    2  A    between atoms: C_2  and  C_3
REMARK    3  A    between atoms: C_2  and  C_9
REMARK    4  A    between atoms: C_3  and  S_4
REMARK    5  A    between atoms: S_4  and  C_5
REMARK    6  A    between atoms: C_9  and  O_11
REMARK                            x       y       z     vdW  Elec       q    Type
REMARK                         _______ _______ _______ _____ _____    ______ ____
ROOT
ATOM      1  C   UNK     1       7.036   4.831  18.279  0.00  0.00    +0.000 C 
ENDROOT
BRANCH   1   2
ATOM      2  N   UNK     1       8.021   4.112  17.435  0.00  0.00    +0.000 NA
ATOM      3  H   UNK     1       8.690   3.578  17.980  0.00  0.00    +0.000 HD
ATOM      4  H   UNK     1       8.565   4.792  16.900  0.00  0.00    +0.000 HD
ENDBRANCH   1   2
BRANCH   1   5
ATOM      5  C   UNK     1       7.758   5.887  19.133  0.00  0.00    +0.000 C 
ATOM      6  O   UNK     1       8.172   6.960  18.726  0.00  0.00    +0.000 OA
BRANCH   5   7
ATOM      7  O   UNK     1       7.914   5.497  20.424  0.00  0.00    +0.000 OA
ATOM      8  H   UNK     1       8.844   5.328  20.664  0.00  0.00    +0.000 HD
ENDBRANCH   5   7
ENDBRANCH   1   5
BRANCH   1   9
ATOM      9  C   UNK     1       5.923   5.514  17.455  0.00  0.00    +0.000 C 
BRANCH   9  10
ATOM     10  S   UNK     1       4.979   4.307  16.460  0.00  0.00    +0.000 S 
BRANCH  10  11
ATOM     11  C   UNK     1       3.505   4.122  17.364  0.00  0.00    +0.000 C 
ATOM     12 CL   UNK     1       2.692   5.534  17.953  0.00  0.00    +0.000 Cl
ATOM     13  C   UNK     1       3.071   2.891  17.657  0.00  0.00    +0.000 C 
ATOM     14 CL   UNK     1       1.686   2.503  18.594  0.00  0.00    +0.000 Cl
ENDBRANCH  10  11
ENDBRANCH   9  10
ENDBRANCH   1   9
TORSDOF 6
ENDMDL
MODEL 4
REMARK VINA RESULT:      -4.8      2.371      2.820
REMARK  Name = 
REMARK  6 active torsions:
REMARK  status: ('A' for Active; 'I' for Inactive)
REMARK    1  A    between atoms: N_1  and  C_2
REMARK    2  A    between atoms: C_2  and  C_3
REMARK    3  A    between atoms: C_2  and  C_9
REMARK    4  A    between atoms: C_3  and  S_4
REMARK    5  A    between atoms: S_4  and  C_5
REMARK    6  A    between atoms: C_9  and  O_11
REMARK                            x       y       z     vdW  Elec       q    Type
REMARK                         _______ _______ _______ _____ _____    ______ ____
ROOT
ATOM      1  C   UNK     1       7.087   4.720  18.302  0.00  0.00    +0.000 C 
ENDROOT
BRANCH   1   2
ATOM      2  N   UNK     1       7.954   4.281  17.182  0.00  0.00    +0.000 NA
ATOM      3  H   UNK     1       8.895   4.659  17.242  0.00  0.00    +0.000 HD
ATOM      4  H   UNK     1       7.565   4.622  16.301  0.00  0.00    +0.000 HD
ENDBRANCH   1   2
BRANCH   1   5
ATOM      5  C   UNK     1       7.804   5.810  19.116  0.00  0.00    +0.000 C 
ATOM      6  O   UNK     1       8.196   6.877  18.674  0.00  0.00    +0.000 OA
BRANCH   5   7
ATOM      7  O   UNK     1       7.982   5.459  20.415  0.00  0.00    +0.000 OA
ATOM      8  H   UNK     1       8.902   5.575  20.720  0.00  0.00    +0.000 HD
ENDBRANCH   5   7
ENDBRANCH   1   5
BRANCH   1   9
ATOM      9  C   UNK     1       5.718   5.253  17.829  0.00  0.00    +0.000 C 
BRANCH   9  10
ATOM     10  S   UNK     1       4.365   4.726  18.939  0.00  0.00    +0.000 S 
BRANCH  10  11
ATOM     11  C   UNK     1       3.010   5.657  18.373  0.00  0.00    +0.000 C 
ATOM     12 CL   UNK     1       1.621   4.834  17.746  0.00  0.00    +0.000 Cl
ATOM     13  C   UNK     1       3.099   6.993  18.356  0.00  0.00    +0.000 C 
ATOM     14 CL   UNK     1       1.904   8.078  17.772  0.00  0.00    +0.000 Cl
ENDBRANCH  10  11
ENDBRANCH   9  10
ENDBRANCH   1   9
TORSDOF 6
ENDMDL
MODEL 5
REMARK VINA RESULT:      -4.8      1.367      1.433
REMARK  Name = 
REMARK  6 active torsions:
REMARK  status: ('A' for Active; 'I' for Inactive)
REMARK    1  A    between atoms: N_1  and  C_2
REMARK    2  A    between atoms: C_2  and  C_3
REMARK    3  A    between atoms: C_2  and  C_9
REMARK    4  A    between atoms: C_3  and  S_4
REMARK    5  A    between atoms: S_4  and  C_5
REMARK    6  A    between atoms: C_9  and  O_11
REMARK                            x       y       z     vdW  Elec       q    Type
REMARK                         _______ _______ _______ _____ _____    ______ ____
ROOT
ATOM      1  C   UNK     1       6.330   5.361  18.322  0.00  0.00    +0.000 C 
ENDROOT
BRANCH   1   2
ATOM      2  N   UNK     1       6.076   4.012  18.883  0.00  0.00    +0.000 NA
ATOM      3  H   UNK     1       6.875   3.391  18.791  0.00  0.00    +0.000 HD
ATOM      4  H   UNK     1       5.311   3.572  18.368  0.00  0.00    +0.000 HD
ENDBRANCH   1   2
BRANCH   1   5
ATOM      5  C   UNK     1       7.341   5.261  17.168  0.00  0.00    +0.000 C 
ATOM      6  O   UNK     1       7.483   6.088  16.282  0.00  0.00    +0.000 OA
BRANCH   5   7
ATOM      7  O   UNK     1       8.078   4.123  17.216  0.00  0.00    +0.000 OA
ATOM      8  H   UNK     1       8.477   3.961  18.092  0.00  0.00    +0.000 HD
ENDBRANCH   5   7
ENDBRANCH   1   5
BRANCH   1   9
ATOM      9  C   UNK     1       5.046   6.054  17.818  0.00  0.00    +0.000 C 
BRANCH   9  10
ATOM     10  S   UNK     1       3.739   4.843  17.408  0.00  0.00    +0.000 S 
BRANCH  10  11
ATOM     11  C   UNK     1       2.634   4.995  18.742  0.00  0.00    +0.000 C 
ATOM     12 CL   UNK     1       2.612   6.464  19.659  0.00  0.00    +0.000 Cl
ATOM     13  C   UNK     1       1.880   3.944  19.085  0.00  0.00    +0.000 C 
ATOM     14 CL   UNK     1       0.787   3.873  20.407  0.00  0.00    +0.000 Cl
ENDBRANCH  10  11
ENDBRANCH   9  10
ENDBRANCH   1   9
TORSDOF 6
ENDMDL
MODEL 6
REMARK VINA RESULT:      -4.8      4.632      4.891
REMARK  Name = 
REMARK  6 active torsions:
REMARK  status: ('A' for Active; 'I' for Inactive)
REMARK    1  A    between atoms: N_1  and  C_2
REMARK    2  A    between atoms: C_2  and  C_3
REMARK    3  A    between atoms: C_2  and  C_9
REMARK    4  A    between atoms: C_3  and  S_4
REMARK    5  A    between atoms: S_4  and  C_5
REMARK    6  A    between atoms: C_9  and  O_11
REMARK                            x       y       z     vdW  Elec       q    Type
REMARK                         _______ _______ _______ _____ _____    ______ ____
ROOT
ATOM      1  C   UNK     1       7.242   5.132  17.946  0.00  0.00    +0.000 C 
ENDROOT
BRANCH   1   2
ATOM      2  N   UNK     1       8.193   4.031  17.656  0.00  0.00    +0.000 NA
ATOM      3  H   UNK     1       8.307   3.862  16.661  0.00  0.00    +0.000 HD
ATOM      4  H   UNK     1       7.830   3.161  18.053  0.00  0.00    +0.000 HD
ENDBRANCH   1   2
BRANCH   1   5
ATOM      5  C   UNK     1       7.857   6.089  18.980  0.00  0.00    +0.000 C 
ATOM      6  O   UNK     1       8.303   7.199  18.736  0.00  0.00    +0.000 OA
BRANCH   5   7
ATOM      7  O   UNK     1       7.876   5.564  20.231  0.00  0.00    +0.000 OA
ATOM      8  H   UNK     1       8.482   4.805  20.319  0.00  0.00    +0.000 HD
ENDBRANCH   5   7
ENDBRANCH   1   5
BRANCH   1   9
ATOM      9  C   UNK     1       6.844   5.929  16.685  0.00  0.00    +0.000 C 
BRANCH   9  10
ATOM     10  S   UNK     1       5.427   5.164  15.820  0.00  0.00    +0.000 S 
BRANCH  10  11
ATOM     11  C   UNK     1       6.134   4.602  14.333  0.00  0.00    +0.000 C 
ATOM     12 CL   UNK     1       7.647   5.267  13.812  0.00  0.00    +0.000 Cl
ATOM     13  C   UNK     1       5.457   3.728  13.580  0.00  0.00    +0.000 C 
ATOM     14 CL   UNK     1       5.951   3.112  12.056  0.00  0.00    +0.000 Cl
ENDBRANCH  10  11
ENDBRANCH   9  10
ENDBRANCH   1   9
TORSDOF 6
ENDMDL
MODEL 7
REMARK VINA RESULT:      -4.7      2.603      2.762
REMARK  Name = 
REMARK  6 active torsions:
REMARK  status: ('A' for Active; 'I' for Inactive)
REMARK    1  A    between atoms: N_1  and  C_2
REMARK    2  A    between atoms: C_2  and  C_3
REMARK    3  A    between atoms: C_2  and  C_9
REMARK    4  A    between atoms: C_3  and  S_4
REMARK    5  A    between atoms: S_4  and  C_5
REMARK    6  A    between atoms: C_9  and  O_11
REMARK                            x       y       z     vdW  Elec       q    Type
REMARK                         _______ _______ _______ _____ _____    ______ ____
ROOT
ATOM      1  C   UNK     1       5.948   3.983  15.918  0.00  0.00    +0.000 C 
ENDROOT
BRANCH   1   2
ATOM      2  N   UNK     1       5.649   4.178  14.478  0.00  0.00    +0.000 NA
ATOM      3  H   UNK     1       5.070   4.993  14.304  0.00  0.00    +0.000 HD
ATOM      4  H   UNK     1       5.122   3.373  14.132  0.00  0.00    +0.000 HD
ENDBRANCH   1   2
BRANCH   1   5
ATOM      5  C   UNK     1       7.191   4.800  16.305  0.00  0.00    +0.000 C 
ATOM      6  O   UNK     1       7.458   5.916  15.891  0.00  0.00    +0.000 OA
BRANCH   5   7
ATOM      7  O   UNK     1       8.004   4.138  17.168  0.00  0.00    +0.000 OA
ATOM      8  H   UNK     1       7.517   3.563  17.788  0.00  0.00    +0.000 HD
ENDBRANCH   5   7
ENDBRANCH   1   5
BRANCH   1   9
ATOM      9  C   UNK     1       4.771   4.378  16.835  0.00  0.00    +0.000 C 
BRANCH   9  10
ATOM     10  S   UNK     1       4.019   2.919  17.639  0.00  0.00    +0.000 S 
BRANCH  10  11
ATOM     11  C   UNK     1       2.652   3.595  18.475  0.00  0.00    +0.000 C 
ATOM     12 CL   UNK     1       1.851   4.978  17.807  0.00  0.00    +0.000 Cl
ATOM     13  C   UNK     1       2.296   3.084  19.660  0.00  0.00    +0.000 C 
ATOM     14 CL   UNK     1       1.028   3.655  20.666  0.00  0.00    +0.000 Cl
ENDBRANCH  10  11
ENDBRANCH   9  10
ENDBRANCH   1   9
TORSDOF 6
ENDMDL
MODEL 8
REMARK VINA RESULT:      -4.7      2.262      2.726
REMARK  Name = 
REMARK  6 active torsions:
REMARK  status: ('A' for Active; 'I' for Inactive)
REMARK    1  A    between atoms: N_1  and  C_2
REMARK    2  A    between atoms: C_2  and  C_3
REMARK    3  A    between atoms: C_2  and  C_9
REMARK    4  A    between atoms: C_3  and  S_4
REMARK    5  A    between atoms: S_4  and  C_5
REMARK    6  A    between atoms: C_9  and  O_11
REMARK                            x       y       z     vdW  Elec       q    Type
REMARK                         _______ _______ _______ _____ _____    ______ ____
ROOT
ATOM      1  C   UNK     1       5.736   5.279  15.749  0.00  0.00    +0.000 C 
ENDROOT
BRANCH   1   2
ATOM      2  N   UNK     1       5.284   6.629  15.332  0.00  0.00    +0.000 NA
ATOM      3  H   UNK     1       4.315   6.643  15.029  0.00  0.00    +0.000 HD
ATOM      4  H   UNK     1       5.839   6.936  14.531  0.00  0.00    +0.000 HD
ENDBRANCH   1   2
BRANCH   1   5
ATOM      5  C   UNK     1       7.131   5.372  16.388  0.00  0.00    +0.000 C 
ATOM      6  O   UNK     1       7.801   4.423  16.760  0.00  0.00    +0.000 OA
BRANCH   5   7
ATOM      7  O   UNK     1       7.559   6.653  16.522  0.00  0.00    +0.000 OA
ATOM      8  H   UNK     1       8.023   6.987  15.731  0.00  0.00    +0.000 HD
ENDBRANCH   5   7
ENDBRANCH   1   5
BRANCH   1   9
ATOM      9  C   UNK     1       4.765   4.599  16.738  0.00  0.00    +0.000 C 
BRANCH   9  10
ATOM     10  S   UNK     1       4.145   5.774  17.994  0.00  0.00    +0.000 S 
BRANCH  10  11
ATOM     11  C   UNK     1       2.754   4.955  18.642  0.00  0.00    +0.000 C 
ATOM     12 CL   UNK     1       1.514   4.411  17.561  0.00  0.00    +0.000 Cl
ATOM     13  C   UNK     1       2.629   4.835  19.969  0.00  0.00    +0.000 C 
ATOM     14 CL   UNK     1       1.303   4.128  20.799  0.00  0.00    +0.000 Cl
ENDBRANCH  10  11
ENDBRANCH   9  10
ENDBRANCH   1   9
TORSDOF 6
ENDMDL
MODEL 9
REMARK VINA RESULT:      -4.7      1.698      2.302
REMARK  Name = 
REMARK  6 active torsions:
REMARK  status: ('A' for Active; 'I' for Inactive)
REMARK    1  A    between atoms: N_1  and  C_2
REMARK    2  A    between atoms: C_2  and  C_3
REMARK    3  A    between atoms: C_2  and  C_9
REMARK    4  A    between atoms: C_3  and  S_4
REMARK    5  A    between atoms: S_4  and  C_5
REMARK    6  A    between atoms: C_9  and  O_11
REMARK                            x       y       z     vdW  Elec       q    Type
REMARK                         _______ _______ _______ _____ _____    ______ ____
ROOT
ATOM      1  C   UNK     1       7.233   5.257  17.968  0.00  0.00    +0.000 C 
ENDROOT
BRANCH   1   2
ATOM      2  N   UNK     1       8.095   4.086  17.672  0.00  0.00    +0.000 NA
ATOM      3  H   UNK     1       8.441   4.084  16.718  0.00  0.00    +0.000 HD
ATOM      4  H   UNK     1       7.546   3.230  17.779  0.00  0.00    +0.000 HD
ENDBRANCH   1   2
BRANCH   1   5
ATOM      5  C   UNK     1       7.107   6.138  16.714  0.00  0.00    +0.000 C 
ATOM      6  O   UNK     1       7.511   5.842  15.601  0.00  0.00    +0.000 OA
BRANCH   5   7
ATOM      7  O   UNK     1       6.499   7.324  16.968  0.00  0.00    +0.000 OA
ATOM      8  H   UNK     1       5.552   7.328  16.733  0.00  0.00    +0.000 HD
ENDBRANCH   5   7
ENDBRANCH   1   5
BRANCH   1   9
ATOM      9  C   UNK     1       5.824   4.859  18.456  0.00  0.00    +0.000 C 
BRANCH   9  10
ATOM     10  S   UNK     1       4.849   4.059  17.133  0.00  0.00    +0.000 S 
BRANCH  10  11
ATOM     11  C   UNK     1       3.546   3.308  18.007  0.00  0.00    +0.000 C 
ATOM     12 CL   UNK     1       3.524   1.585  18.178  0.00  0.00    +0.000 Cl
ATOM     13  C   UNK     1       2.543   4.070  18.460  0.00  0.00    +0.000 C 
ATOM     14 CL   UNK     1       1.141   3.512  19.278  0.00  0.00    +0.000 Cl
ENDBRANCH  10  11
ENDBRANCH   9  10
ENDBRANCH   1   9
TORSDOF 6
ENDMDL
