MODEL 1
REMARK VINA RESULT:      -7.1      0.000      0.000
REMARK  Name = 
REMARK  5 active torsions:
REMARK  status: ('A' for Active; 'I' for Inactive)
REMARK    1  A    between atoms: C_1  and  N_2
REMARK    2  A    between atoms: N_2  and  C_3
REMARK    3  A    between atoms: N_2  and  C_4
REMARK    4  A    between atoms: C_4  and  C_5
REMARK    5  A    between atoms: C_5  and  N_6
REMARK                            x       y       z     vdW  Elec       q    Type
REMARK                         _______ _______ _______ _____ _____    ______ ____
ROOT
ATOM      1  C   UNL     1       4.138   3.392  18.680  0.00  0.00    +0.000 C 
ENDROOT
BRANCH   1   2
ATOM      2  N   UNL     1       5.234   3.928  19.472  0.00  0.00    +0.000 N 
ATOM      3  C   UNL     1       5.981   4.924  18.875  0.00  0.00    +0.000 A 
ATOM      4  N   UNL     1       5.622   5.430  17.682  0.00  0.00    +0.000 NA
ATOM      5  C   UNL     1       6.410   6.394  17.159  0.00  0.00    +0.000 A 
ATOM      6  C   UNL     1       7.512   6.889  17.801  0.00  0.00    +0.000 A 
ATOM      7  F   UNL     1       8.261   7.865  17.276  0.00  0.00    +0.000 F 
ATOM      8  C   UNL     1       7.799   6.317  19.012  0.00  0.00    +0.000 A 
ATOM      9  N   UNL     1       7.074   5.319  19.552  0.00  0.00    +0.000 NA
ATOM     10  H   UNL     1       5.900   3.267  19.853  0.00  0.00    +0.000 HD
ENDBRANCH   1   2
BRANCH   1  11
ATOM     11  C   UNL     1       2.697   3.762  19.191  0.00  0.00    +0.000 C 
ATOM     12  C   UNL     1       1.854   4.497  18.119  0.00  0.00    +0.000 C 
ATOM     13  C   UNL     1       2.256   5.966  18.174  0.00  0.00    +0.000 C 
ATOM     14  C   UNL     1       2.739   6.210  19.599  0.00  0.00    +0.000 C 
ATOM     15  C   UNL     1       2.736   4.848  20.298  0.00  0.00    +0.000 C 
BRANCH  11  17
ATOM     16  C   UNL     1       1.569   2.611  21.087  0.00  0.00    +0.000 C 
ATOM     17  N   UNL     1       1.949   2.553  19.671  0.00  0.00    +0.000 NA
ATOM     18  C   UNL     1       0.774   2.211  18.867  0.00  0.00    +0.000 C 
ENDBRANCH  11  17
ENDBRANCH   1  11
TORSDOF 3
ENDMDL
MODEL 2
REMARK VINA RESULT:      -6.9      2.996      6.017
REMARK  Name = 
REMARK  5 active torsions:
REMARK  status: ('A' for Active; 'I' for Inactive)
REMARK    1  A    between atoms: C_1  and  N_2
REMARK    2  A    between atoms: N_2  and  C_3
REMARK    3  A    between atoms: N_2  and  C_4
REMARK    4  A    between atoms: C_4  and  C_5
REMARK    5  A    between atoms: C_5  and  N_6
REMARK                            x       y       z     vdW  Elec       q    Type
REMARK                         _______ _______ _______ _____ _____    ______ ____
ROOT
ATOM      1  C   UNL     1       5.197   4.332  18.011  0.00  0.00    +0.000 C 
ENDROOT
BRANCH   1   2
ATOM      2  N   UNL     1       3.830   4.798  18.179  0.00  0.00    +0.000 N 
ATOM      3  C   UNL     1       3.103   4.192  19.186  0.00  0.00    +0.000 A 
ATOM      4  N   UNL     1       3.688   3.314  20.021  0.00  0.00    +0.000 NA
ATOM      5  C   UNL     1       2.909   2.757  20.972  0.00  0.00    +0.000 A 
ATOM      6  C   UNL     1       1.588   3.073  21.138  0.00  0.00    +0.000 A 
ATOM      7  F   UNL     1       0.843   2.530  22.107  0.00  0.00    +0.000 F 
ATOM      8  C   UNL     1       1.080   3.980  20.245  0.00  0.00    +0.000 A 
ATOM      9  N   UNL     1       1.802   4.525  19.248  0.00  0.00    +0.000 NA
ATOM     10  H   UNL     1       3.232   4.795  17.361  0.00  0.00    +0.000 HD
ENDBRANCH   1   2
BRANCH   1  11
ATOM     11  C   UNL     1       6.154   5.321  17.247  0.00  0.00    +0.000 C 
ATOM     12  C   UNL     1       5.437   6.078  16.102  0.00  0.00    +0.000 C 
ATOM     13  C   UNL     1       5.427   5.146  14.895  0.00  0.00    +0.000 C 
ATOM     14  C   UNL     1       6.636   4.234  15.067  0.00  0.00    +0.000 C 
ATOM     15  C   UNL     1       7.239   4.566  16.435  0.00  0.00    +0.000 C 
BRANCH  11  17
ATOM     16  C   UNL     1       7.612   5.698  19.228  0.00  0.00    +0.000 C 
ATOM     17  N   UNL     1       6.791   6.310  18.177  0.00  0.00    +0.000 NA
ATOM     18  C   UNL     1       7.563   7.359  17.508  0.00  0.00    +0.000 C 
ENDBRANCH  11  17
ENDBRANCH   1  11
TORSDOF 3
ENDMDL
MODEL 3
REMARK VINA RESULT:      -6.8      2.904      5.961
REMARK  Name = 
REMARK  5 active torsions:
REMARK  status: ('A' for Active; 'I' for Inactive)
REMARK    1  A    between atoms: C_1  and  N_2
REMARK    2  A    between atoms: N_2  and  C_3
REMARK    3  A    between atoms: N_2  and  C_4
REMARK    4  A    between atoms: C_4  and  C_5
REMARK    5  A    between atoms: C_5  and  N_6
REMARK                            x       y       z     vdW  Elec       q    Type
REMARK                         _______ _______ _______ _____ _____    ______ ____
ROOT
ATOM      1  C   UNL     1       5.586   5.231  18.464  0.00  0.00    +0.000 C 
ENDROOT
BRANCH   1   2
ATOM      2  N   UNL     1       5.343   3.810  18.654  0.00  0.00    +0.000 N 
ATOM      3  C   UNL     1       4.021   3.413  18.624  0.00  0.00    +0.000 A 
ATOM      4  N   UNL     1       3.048   4.289  18.316  0.00  0.00    +0.000 NA
ATOM      5  C   UNL     1       1.779   3.827  18.318  0.00  0.00    +0.000 A 
ATOM      6  C   UNL     1       1.459   2.522  18.578  0.00  0.00    +0.000 A 
ATOM      7  F   UNL     1       0.197   2.080  18.544  0.00  0.00    +0.000 F 
ATOM      8  C   UNL     1       2.515   1.701  18.876  0.00  0.00    +0.000 A 
ATOM      9  N   UNL     1       3.791   2.125  18.937  0.00  0.00    +0.000 NA
ATOM     10  H   UNL     1       5.749   3.374  19.473  0.00  0.00    +0.000 HD
ENDBRANCH   1   2
BRANCH   1  11
ATOM     11  C   UNL     1       6.593   5.591  17.310  0.00  0.00    +0.000 C 
ATOM     12  C   UNL     1       5.926   6.393  16.164  0.00  0.00    +0.000 C 
ATOM     13  C   UNL     1       5.240   5.378  15.257  0.00  0.00    +0.000 C 
ATOM     14  C   UNL     1       6.020   4.079  15.425  0.00  0.00    +0.000 C 
ATOM     15  C   UNL     1       7.052   4.332  16.527  0.00  0.00    +0.000 C 
BRANCH  11  17
ATOM     16  C   UNL     1       7.694   7.800  17.622  0.00  0.00    +0.000 C 
ATOM     17  N   UNL     1       7.781   6.350  17.823  0.00  0.00    +0.000 NA
ATOM     18  C   UNL     1       8.118   6.072  19.221  0.00  0.00    +0.000 C 
ENDBRANCH  11  17
ENDBRANCH   1  11
TORSDOF 3
ENDMDL
MODEL 4
REMARK VINA RESULT:      -6.8      0.975      2.475
REMARK  Name = 
REMARK  5 active torsions:
REMARK  status: ('A' for Active; 'I' for Inactive)
REMARK    1  A    between atoms: C_1  and  N_2
REMARK    2  A    between atoms: N_2  and  C_3
REMARK    3  A    between atoms: N_2  and  C_4
REMARK    4  A    between atoms: C_4  and  C_5
REMARK    5  A    between atoms: C_5  and  N_6
REMARK                            x       y       z     vdW  Elec       q    Type
REMARK                         _______ _______ _______ _____ _____    ______ ____
ROOT
ATOM      1  C   UNL     1       4.019   3.628  18.663  0.00  0.00    +0.000 C 
ENDROOT
BRANCH   1   2
ATOM      2  N   UNL     1       5.199   4.052  19.399  0.00  0.00    +0.000 N 
ATOM      3  C   UNL     1       5.959   5.041  18.806  0.00  0.00    +0.000 A 
ATOM      4  N   UNL     1       5.544   5.640  17.675  0.00  0.00    +0.000 NA
ATOM      5  C   UNL     1       6.347   6.590  17.150  0.00  0.00    +0.000 A 
ATOM      6  C   UNL     1       7.521   6.982  17.733  0.00  0.00    +0.000 A 
ATOM      7  F   UNL     1       8.286   7.946  17.210  0.00  0.00    +0.000 F 
ATOM      8  C   UNL     1       7.861   6.321  18.884  0.00  0.00    +0.000 A 
ATOM      9  N   UNL     1       7.120   5.333  19.419  0.00  0.00    +0.000 NA
ATOM     10  H   UNL     1       5.851   3.334  19.690  0.00  0.00    +0.000 HD
ENDBRANCH   1   2
BRANCH   1  11
ATOM     11  C   UNL     1       2.650   4.164  19.224  0.00  0.00    +0.000 C 
ATOM     12  C   UNL     1       2.218   3.449  20.528  0.00  0.00    +0.000 C 
ATOM     13  C   UNL     1       1.544   2.145  20.114  0.00  0.00    +0.000 C 
ATOM     14  C   UNL     1       0.981   2.396  18.719  0.00  0.00    +0.000 C 
ATOM     15  C   UNL     1       1.459   3.789  18.302  0.00  0.00    +0.000 C 
BRANCH  11  17
ATOM     16  C   UNL     1       2.352   6.442  18.269  0.00  0.00    +0.000 C 
ATOM     17  N   UNL     1       2.685   5.646  19.456  0.00  0.00    +0.000 NA
ATOM     18  C   UNL     1       1.874   6.100  20.588  0.00  0.00    +0.000 C 
ENDBRANCH  11  17
ENDBRANCH   1  11
TORSDOF 3
ENDMDL
MODEL 5
REMARK VINA RESULT:      -6.8      2.963      5.943
REMARK  Name = 
REMARK  5 active torsions:
REMARK  status: ('A' for Active; 'I' for Inactive)
REMARK    1  A    between atoms: C_1  and  N_2
REMARK    2  A    between atoms: N_2  and  C_3
REMARK    3  A    between atoms: N_2  and  C_4
REMARK    4  A    between atoms: C_4  and  C_5
REMARK    5  A    between atoms: C_5  and  N_6
REMARK                            x       y       z     vdW  Elec       q    Type
REMARK                         _______ _______ _______ _____ _____    ______ ____
ROOT
ATOM      1  C   UNL     1       5.707   4.519  18.189  0.00  0.00    +0.000 C 
ENDROOT
BRANCH   1   2
ATOM      2  N   UNL     1       4.608   5.287  18.752  0.00  0.00    +0.000 N 
ATOM      3  C   UNL     1       3.725   4.586  19.550  0.00  0.00    +0.000 A 
ATOM      4  N   UNL     1       3.959   3.299  19.865  0.00  0.00    +0.000 NA
ATOM      5  C   UNL     1       3.044   2.679  20.640  0.00  0.00    +0.000 A 
ATOM      6  C   UNL     1       1.934   3.307  21.135  0.00  0.00    +0.000 A 
ATOM      7  F   UNL     1       1.056   2.680  21.926  0.00  0.00    +0.000 F 
ATOM      8  C   UNL     1       1.781   4.618  20.767  0.00  0.00    +0.000 A 
ATOM      9  N   UNL     1       2.638   5.266  19.955  0.00  0.00    +0.000 NA
ATOM     10  H   UNL     1       4.039   5.827  18.111  0.00  0.00    +0.000 HD
ENDBRANCH   1   2
BRANCH   1  11
ATOM     11  C   UNL     1       6.589   5.284  17.135  0.00  0.00    +0.000 C 
ATOM     12  C   UNL     1       5.756   6.223  16.227  0.00  0.00    +0.000 C 
ATOM     13  C   UNL     1       5.171   5.358  15.117  0.00  0.00    +0.000 C 
ATOM     14  C   UNL     1       6.133   4.186  14.955  0.00  0.00    +0.000 C 
ATOM     15  C   UNL     1       7.178   4.326  16.066  0.00  0.00    +0.000 C 
BRANCH  11  17
ATOM     16  C   UNL     1       7.582   7.520  17.589  0.00  0.00    +0.000 C 
ATOM     17  N   UNL     1       7.685   6.070  17.792  0.00  0.00    +0.000 NA
ATOM     18  C   UNL     1       7.858   5.791  19.219  0.00  0.00    +0.000 C 
ENDBRANCH  11  17
ENDBRANCH   1  11
TORSDOF 3
ENDMDL
MODEL 6
REMARK VINA RESULT:      -6.7      1.182      2.638
REMARK  Name = 
REMARK  5 active torsions:
REMARK  status: ('A' for Active; 'I' for Inactive)
REMARK    1  A    between atoms: C_1  and  N_2
REMARK    2  A    between atoms: N_2  and  C_3
REMARK    3  A    between atoms: N_2  and  C_4
REMARK    4  A    between atoms: C_4  and  C_5
REMARK    5  A    between atoms: C_5  and  N_6
REMARK                            x       y       z     vdW  Elec       q    Type
REMARK                         _______ _______ _______ _____ _____    ______ ____
ROOT
ATOM      1  C   UNL     1       4.050   2.923  19.125  0.00  0.00    +0.000 C 
ENDROOT
BRANCH   1   2
ATOM      2  N   UNL     1       4.841   3.300  17.965  0.00  0.00    +0.000 N 
ATOM      3  C   UNL     1       5.782   4.290  18.170  0.00  0.00    +0.000 A 
ATOM      4  N   UNL     1       6.011   4.774  19.404  0.00  0.00    +0.000 NA
ATOM      5  C   UNL     1       6.939   5.749  19.521  0.00  0.00    +0.000 A 
ATOM      6  C   UNL     1       7.662   6.224  18.461  0.00  0.00    +0.000 A 
ATOM      7  F   UNL     1       8.597   7.169  18.607  0.00  0.00    +0.000 F 
ATOM      8  C   UNL     1       7.365   5.669  17.244  0.00  0.00    +0.000 A 
ATOM      9  N   UNL     1       6.414   4.732  17.068  0.00  0.00    +0.000 NA
ATOM     10  H   UNL     1       4.341   3.558  17.123  0.00  0.00    +0.000 HD
ENDBRANCH   1   2
BRANCH   1  11
ATOM     11  C   UNL     1       2.701   3.713  19.302  0.00  0.00    +0.000 C 
ATOM     12  C   UNL     1       2.660   4.537  20.613  0.00  0.00    +0.000 C 
ATOM     13  C   UNL     1       2.251   3.578  21.725  0.00  0.00    +0.000 C 
ATOM     14  C   UNL     1       1.431   2.486  21.048  0.00  0.00    +0.000 C 
ATOM     15  C   UNL     1       1.499   2.761  19.544  0.00  0.00    +0.000 C 
BRANCH  11  17
ATOM     16  C   UNL     1       1.183   4.305  17.422  0.00  0.00    +0.000 C 
ATOM     17  N   UNL     1       2.426   4.616  18.136  0.00  0.00    +0.000 NA
ATOM     18  C   UNL     1       2.458   6.044  18.457  0.00  0.00    +0.000 C 
ENDBRANCH  11  17
ENDBRANCH   1  11
TORSDOF 3
ENDMDL
MODEL 7
REMARK VINA RESULT:      -6.7      0.773      1.285
REMARK  Name = 
REMARK  5 active torsions:
REMARK  status: ('A' for Active; 'I' for Inactive)
REMARK    1  A    between atoms: C_1  and  N_2
REMARK    2  A    between atoms: N_2  and  C_3
REMARK    3  A    between atoms: N_2  and  C_4
REMARK    4  A    between atoms: C_4  and  C_5
REMARK    5  A    between atoms: C_5  and  N_6
REMARK                            x       y       z     vdW  Elec       q    Type
REMARK                         _______ _______ _______ _____ _____    ______ ____
ROOT
ATOM      1  C   UNL     1       4.119   3.247  18.856  0.00  0.00    +0.000 C 
ENDROOT
BRANCH   1   2
ATOM      2  N   UNL     1       4.702   3.954  17.728  0.00  0.00    +0.000 N 
ATOM      3  C   UNL     1       5.736   4.821  18.026  0.00  0.00    +0.000 A 
ATOM      4  N   UNL     1       6.230   4.897  19.275  0.00  0.00    +0.000 NA
ATOM      5  C   UNL     1       7.232   5.776  19.489  0.00  0.00    +0.000 A 
ATOM      6  C   UNL     1       7.775   6.546  18.497  0.00  0.00    +0.000 A 
ATOM      7  F   UNL     1       8.788   7.389  18.727  0.00  0.00    +0.000 F 
ATOM      8  C   UNL     1       7.213   6.399  17.256  0.00  0.00    +0.000 A 
ATOM      9  N   UNL     1       6.179   5.574  17.003  0.00  0.00    +0.000 NA
ATOM     10  H   UNL     1       4.072   4.466  17.122  0.00  0.00    +0.000 HD
ENDBRANCH   1   2
BRANCH   1  11
ATOM     11  C   UNL     1       2.661   3.693  19.247  0.00  0.00    +0.000 C 
ATOM     12  C   UNL     1       1.932   4.425  18.093  0.00  0.00    +0.000 C 
ATOM     13  C   UNL     1       2.393   5.878  18.132  0.00  0.00    +0.000 C 
ATOM     14  C   UNL     1       2.780   6.150  19.581  0.00  0.00    +0.000 C 
ATOM     15  C   UNL     1       2.666   4.814  20.319  0.00  0.00    +0.000 C 
BRANCH  11  17
ATOM     16  C   UNL     1       1.378   2.639  21.100  0.00  0.00    +0.000 C 
ATOM     17  N   UNL     1       1.828   2.533  19.707  0.00  0.00    +0.000 NA
ATOM     18  C   UNL     1       0.681   2.234  18.847  0.00  0.00    +0.000 C 
ENDBRANCH  11  17
ENDBRANCH   1  11
TORSDOF 3
ENDMDL
MODEL 8
REMARK VINA RESULT:      -6.7      2.864      5.816
REMARK  Name = 
REMARK  5 active torsions:
REMARK  status: ('A' for Active; 'I' for Inactive)
REMARK    1  A    between atoms: C_1  and  N_2
REMARK    2  A    between atoms: N_2  and  C_3
REMARK    3  A    between atoms: N_2  and  C_4
REMARK    4  A    between atoms: C_4  and  C_5
REMARK    5  A    between atoms: C_5  and  N_6
REMARK                            x       y       z     vdW  Elec       q    Type
REMARK                         _______ _______ _______ _____ _____    ______ ____
ROOT
ATOM      1  C   UNL     1       5.186   5.901  18.034  0.00  0.00    +0.000 C 
ENDROOT
BRANCH   1   2
ATOM      2  N   UNL     1       4.953   4.789  18.941  0.00  0.00    +0.000 N 
ATOM      3  C   UNL     1       3.730   4.157  18.823  0.00  0.00    +0.000 A 
ATOM      4  N   UNL     1       2.876   4.494  17.840  0.00  0.00    +0.000 NA
ATOM      5  C   UNL     1       1.696   3.839  17.798  0.00  0.00    +0.000 A 
ATOM      6  C   UNL     1       1.363   2.842  18.673  0.00  0.00    +0.000 A 
ATOM      7  F   UNL     1       0.200   2.185  18.593  0.00  0.00    +0.000 F 
ATOM      8  C   UNL     1       2.296   2.563  19.637  0.00  0.00    +0.000 A 
ATOM      9  N   UNL     1       3.464   3.223  19.753  0.00  0.00    +0.000 NA
ATOM     10  H   UNL     1       5.086   4.959  19.931  0.00  0.00    +0.000 HD
ENDBRANCH   1   2
BRANCH   1  11
ATOM     11  C   UNL     1       6.569   5.877  17.285  0.00  0.00    +0.000 C 
ATOM     12  C   UNL     1       7.591   4.922  17.950  0.00  0.00    +0.000 C 
ATOM     13  C   UNL     1       8.224   5.689  19.105  0.00  0.00    +0.000 C 
ATOM     14  C   UNL     1       8.132   7.162  18.724  0.00  0.00    +0.000 C 
ATOM     15  C   UNL     1       7.327   7.224  17.424  0.00  0.00    +0.000 C 
BRANCH  11  17
ATOM     16  C   UNL     1       6.431   4.067  15.584  0.00  0.00    +0.000 C 
ATOM     17  N   UNL     1       6.413   5.512  15.838  0.00  0.00    +0.000 NA
ATOM     18  C   UNL     1       5.243   6.104  15.187  0.00  0.00    +0.000 C 
ENDBRANCH  11  17
ENDBRANCH   1  11
TORSDOF 3
ENDMDL
MODEL 9
REMARK VINA RESULT:      -6.7      2.965      5.993
REMARK  Name = 
REMARK  5 active torsions:
REMARK  status: ('A' for Active; 'I' for Inactive)
REMARK    1  A    between atoms: C_1  and  N_2
REMARK    2  A    between atoms: N_2  and  C_3
REMARK    3  A    between atoms: N_2  and  C_4
REMARK    4  A    between atoms: C_4  and  C_5
REMARK    5  A    between atoms: C_5  and  N_6
REMARK                            x       y       z     vdW  Elec       q    Type
REMARK                         _______ _______ _______ _____ _____    ______ ____
ROOT
ATOM      1  C   UNL     1       5.950   4.440  18.097  0.00  0.00    +0.000 C 
ENDROOT
BRANCH   1   2
ATOM      2  N   UNL     1       4.750   4.999  18.700  0.00  0.00    +0.000 N 
ATOM      3  C   UNL     1       3.615   4.216  18.629  0.00  0.00    +0.000 A 
ATOM      4  N   UNL     1       3.674   2.967  18.134  0.00  0.00    +0.000 NA
ATOM      5  C   UNL     1       2.519   2.267  18.088  0.00  0.00    +0.000 A 
ATOM      6  C   UNL     1       1.329   2.758  18.551  0.00  0.00    +0.000 A 
ATOM      7  F   UNL     1       0.204   2.035  18.523  0.00  0.00    +0.000 F 
ATOM      8  C   UNL     1       1.366   4.036  19.043  0.00  0.00    +0.000 A 
ATOM      9  N   UNL     1       2.480   4.792  19.063  0.00  0.00    +0.000 NA
ATOM     10  H   UNL     1       4.470   5.927  18.406  0.00  0.00    +0.000 HD
ENDBRANCH   1   2
BRANCH   1  11
ATOM     11  C   UNL     1       6.688   5.380  17.074  0.00  0.00    +0.000 C 
ATOM     12  C   UNL     1       5.715   6.322  16.320  0.00  0.00    +0.000 C 
ATOM     13  C   UNL     1       5.129   5.518  15.166  0.00  0.00    +0.000 C 
ATOM     14  C   UNL     1       6.173   4.460  14.826  0.00  0.00    +0.000 C 
ATOM     15  C   UNL     1       7.278   4.587  15.878  0.00  0.00    +0.000 C 
BRANCH  11  17
ATOM     16  C   UNL     1       7.611   7.643  17.541  0.00  0.00    +0.000 C 
ATOM     17  N   UNL     1       7.757   6.196  17.739  0.00  0.00    +0.000 NA
ATOM     18  C   UNL     1       7.933   5.916  19.165  0.00  0.00    +0.000 C 
ENDBRANCH  11  17
ENDBRANCH   1  11
TORSDOF 3
ENDMDL
