MODEL 1
REMARK VINA RESULT:      -7.0      0.000      0.000
REMARK  Name = 
REMARK  7 active torsions:
REMARK  status: ('A' for Active; 'I' for Inactive)
REMARK    1  A    between atoms: C_1  and  C_2
REMARK    2  A    between atoms: C_2  and  N_3
REMARK    3  A    between atoms: N_3  and  C_4
REMARK    4  A    between atoms: C_4  and  C_5
REMARK    5  A    between atoms: C_6  and  C_8
REMARK    6  A    between atoms: C_10  and  N_11
REMARK    7  A    between atoms: C_13  and  C_14
REMARK                            x       y       z     vdW  Elec       q    Type
REMARK                         _______ _______ _______ _____ _____    ______ ____
ROOT
ATOM      1  C   UNL     1       5.567   4.030  18.198  0.00  0.00    +0.000 C 
ATOM      2  C   UNL     1       5.725   5.509  18.509  0.00  0.00    +0.000 C 
ATOM      3  C   UNL     1       7.233   5.693  18.399  0.00  0.00    +0.000 C 
ATOM      4  C   UNL     1       7.645   4.713  17.292  0.00  0.00    +0.000 C 
ATOM      5  N   UNL     1       6.479   3.853  17.047  0.00  0.00    +0.000 NA
ATOM      6  H   UNL     1       6.736   2.878  16.906  0.00  0.00    +0.000 HD
ENDROOT
BRANCH   3   7
ATOM      7  N   UNL     1       7.625   7.067  18.229  0.00  0.00    +0.000 N 
ATOM      8  C   UNL     1       8.440   7.828  19.000  0.00  0.00    +0.000 A 
ATOM      9  C   UNL     1       8.503   9.035  18.339  0.00  0.00    +0.000 A 
ATOM     10  N   UNL     1       7.738   8.964  17.204  0.00  0.00    +0.000 NA
ATOM     11  N   UNL     1       7.206   7.749  17.143  0.00  0.00    +0.000 NA
BRANCH   9  12
ATOM     12  C   UNL     1       9.265  10.190  18.776  0.00  0.00    +0.000 A 
ATOM     13  C   UNL     1       9.938  10.993  17.859  0.00  0.00    +0.000 A 
ATOM     14  C   UNL     1      10.666  12.081  18.343  0.00  0.00    +0.000 A 
ATOM     15  C   UNL     1      10.701  12.330  19.706  0.00  0.00    +0.000 A 
ATOM     16  C   UNL     1       9.999  11.483  20.549  0.00  0.00    +0.000 A 
ATOM     17  N   UNL     1       9.281  10.423  20.113  0.00  0.00    +0.000 NA
ENDBRANCH   9  12
ENDBRANCH   3   7
BRANCH   1  19
ATOM     18  N   UNL     1       3.403   2.840  18.724  0.00  0.00    +0.000 N 
ATOM     19  C   UNL     1       4.120   3.642  17.817  0.00  0.00    +0.000 C 
ATOM     20  O   UNL     1       3.629   3.995  16.741  0.00  0.00    +0.000 OA
BRANCH  18  22
ATOM     21  C   UNL     1       0.951   3.326  18.610  0.00  0.00    +0.000 C 
ATOM     22  C   UNL     1       2.085   2.361  18.291  0.00  0.00    +0.000 C 
ENDBRANCH  18  22
BRANCH  18  23
ATOM     23  C   UNL     1       3.930   2.518  20.053  0.00  0.00    +0.000 C 
ATOM     24  C   UNL     1       3.011   2.629  21.258  0.00  0.00    +0.000 C 
ENDBRANCH  18  23
ENDBRANCH   1  19
TORSDOF 5
ENDMDL
MODEL 2
REMARK VINA RESULT:      -6.7      5.181      7.095
REMARK  Name = 
REMARK  7 active torsions:
REMARK  status: ('A' for Active; 'I' for Inactive)
REMARK    1  A    between atoms: C_1  and  C_2
REMARK    2  A    between atoms: C_2  and  N_3
REMARK    3  A    between atoms: N_3  and  C_4
REMARK    4  A    between atoms: C_4  and  C_5
REMARK    5  A    between atoms: C_6  and  C_8
REMARK    6  A    between atoms: C_10  and  N_11
REMARK    7  A    between atoms: C_13  and  C_14
REMARK                            x       y       z     vdW  Elec       q    Type
REMARK                         _______ _______ _______ _____ _____    ______ ____
ROOT
ATOM      1  C   UNL     1       5.340   4.478  15.941  0.00  0.00    +0.000 C 
ATOM      2  C   UNL     1       4.497   5.560  16.595  0.00  0.00    +0.000 C 
ATOM      3  C   UNL     1       3.640   4.750  17.559  0.00  0.00    +0.000 C 
ATOM      4  C   UNL     1       4.562   3.604  17.999  0.00  0.00    +0.000 C 
ATOM      5  N   UNL     1       5.720   3.636  17.096  0.00  0.00    +0.000 NA
ATOM      6  H   UNL     1       6.019   2.706  16.811  0.00  0.00    +0.000 HD
ENDROOT
BRANCH   3   7
ATOM      7  N   UNL     1       3.053   5.548  18.603  0.00  0.00    +0.000 N 
ATOM      8  C   UNL     1       2.625   6.834  18.561  0.00  0.00    +0.000 A 
ATOM      9  C   UNL     1       2.109   7.061  19.817  0.00  0.00    +0.000 A 
ATOM     10  N   UNL     1       2.235   5.920  20.566  0.00  0.00    +0.000 NA
ATOM     11  N   UNL     1       2.812   4.994  19.809  0.00  0.00    +0.000 NA
BRANCH   9  12
ATOM     12  C   UNL     1       1.518   8.309  20.267  0.00  0.00    +0.000 A 
ATOM     13  C   UNL     1       1.170   8.496  21.601  0.00  0.00    +0.000 A 
ATOM     14  C   UNL     1       0.593   9.713  21.969  0.00  0.00    +0.000 A 
ATOM     15  C   UNL     1       0.383  10.690  21.008  0.00  0.00    +0.000 A 
ATOM     16  C   UNL     1       0.763  10.421  19.702  0.00  0.00    +0.000 A 
ATOM     17  N   UNL     1       1.329   9.256  19.314  0.00  0.00    +0.000 NA
ENDBRANCH   9  12
ENDBRANCH   3   7
BRANCH   1  19
ATOM     18  N   UNL     1       6.780   4.689  13.878  0.00  0.00    +0.000 N 
ATOM     19  C   UNL     1       6.594   5.034  15.229  0.00  0.00    +0.000 C 
ATOM     20  O   UNL     1       7.416   5.725  15.837  0.00  0.00    +0.000 OA
BRANCH  18  22
ATOM     21  C   UNL     1       7.852   5.930  11.988  0.00  0.00    +0.000 C 
ATOM     22  C   UNL     1       8.041   5.104  13.253  0.00  0.00    +0.000 C 
ENDBRANCH  18  22
BRANCH  18  23
ATOM     23  C   UNL     1       5.753   3.974  13.115  0.00  0.00    +0.000 C 
ATOM     24  C   UNL     1       6.178   2.884  12.146  0.00  0.00    +0.000 C 
ENDBRANCH  18  23
ENDBRANCH   1  19
TORSDOF 5
ENDMDL
MODEL 3
REMARK VINA RESULT:      -6.7      0.941      1.274
REMARK  Name = 
REMARK  7 active torsions:
REMARK  status: ('A' for Active; 'I' for Inactive)
REMARK    1  A    between atoms: C_1  and  C_2
REMARK    2  A    between atoms: C_2  and  N_3
REMARK    3  A    between atoms: N_3  and  C_4
REMARK    4  A    between atoms: C_4  and  C_5
REMARK    5  A    between atoms: C_6  and  C_8
REMARK    6  A    between atoms: C_10  and  N_11
REMARK    7  A    between atoms: C_13  and  C_14
REMARK                            x       y       z     vdW  Elec       q    Type
REMARK                         _______ _______ _______ _____ _____    ______ ____
ROOT
ATOM      1  C   UNL     1       5.319   4.279  18.237  0.00  0.00    +0.000 C 
ATOM      2  C   UNL     1       5.572   5.754  18.499  0.00  0.00    +0.000 C 
ATOM      3  C   UNL     1       7.093   5.827  18.447  0.00  0.00    +0.000 C 
ATOM      4  C   UNL     1       7.476   4.776  17.395  0.00  0.00    +0.000 C 
ATOM      5  N   UNL     1       6.261   3.991  17.133  0.00  0.00    +0.000 NA
ATOM      6  H   UNL     1       6.452   2.996  17.040  0.00  0.00    +0.000 HD
ENDROOT
BRANCH   3   7
ATOM      7  N   UNL     1       7.589   7.162  18.242  0.00  0.00    +0.000 N 
ATOM      8  C   UNL     1       8.398   7.907  19.036  0.00  0.00    +0.000 A 
ATOM      9  C   UNL     1       8.590   9.070  18.326  0.00  0.00    +0.000 A 
ATOM     10  N   UNL     1       7.906   8.991  17.141  0.00  0.00    +0.000 NA
ATOM     11  N   UNL     1       7.297   7.812  17.097  0.00  0.00    +0.000 NA
BRANCH   9  12
ATOM     12  C   UNL     1       9.397  10.195  18.764  0.00  0.00    +0.000 A 
ATOM     13  C   UNL     1       9.490  10.528  20.112  0.00  0.00    +0.000 A 
ATOM     14  C   UNL     1      10.270  11.629  20.469  0.00  0.00    +0.000 A 
ATOM     15  C   UNL     1      10.924  12.353  19.483  0.00  0.00    +0.000 A 
ATOM     16  C   UNL     1      10.780  11.950  18.166  0.00  0.00    +0.000 A 
ATOM     17  N   UNL     1      10.037  10.886  17.787  0.00  0.00    +0.000 NA
ENDBRANCH   9  12
ENDBRANCH   3   7
BRANCH   1  19
ATOM     18  N   UNL     1       2.866   4.070  18.797  0.00  0.00    +0.000 N 
ATOM     19  C   UNL     1       3.864   3.979  17.810  0.00  0.00    +0.000 C 
ATOM     20  O   UNL     1       3.599   3.639  16.654  0.00  0.00    +0.000 OA
BRANCH  18  22
ATOM     21  C   UNL     1       1.219   2.188  18.731  0.00  0.00    +0.000 C 
ATOM     22  C   UNL     1       1.513   3.648  18.416  0.00  0.00    +0.000 C 
ENDBRANCH  18  22
BRANCH  18  23
ATOM     23  C   UNL     1       3.151   4.590  20.137  0.00  0.00    +0.000 C 
ATOM     24  C   UNL     1       2.204   4.252  21.276  0.00  0.00    +0.000 C 
ENDBRANCH  18  23
ENDBRANCH   1  19
TORSDOF 5
ENDMDL
MODEL 4
REMARK VINA RESULT:      -6.7      0.814      1.228
REMARK  Name = 
REMARK  7 active torsions:
REMARK  status: ('A' for Active; 'I' for Inactive)
REMARK    1  A    between atoms: C_1  and  C_2
REMARK    2  A    between atoms: C_2  and  N_3
REMARK    3  A    between atoms: N_3  and  C_4
REMARK    4  A    between atoms: C_4  and  C_5
REMARK    5  A    between atoms: C_6  and  C_8
REMARK    6  A    between atoms: C_10  and  N_11
REMARK    7  A    between atoms: C_13  and  C_14
REMARK                            x       y       z     vdW  Elec       q    Type
REMARK                         _______ _______ _______ _____ _____    ______ ____
ROOT
ATOM      1  C   UNL     1       5.570   4.119  18.432  0.00  0.00    +0.000 C 
ATOM      2  C   UNL     1       5.849   5.575  18.768  0.00  0.00    +0.000 C 
ATOM      3  C   UNL     1       7.318   5.708  18.385  0.00  0.00    +0.000 C 
ATOM      4  C   UNL     1       7.472   4.767  17.181  0.00  0.00    +0.000 C 
ATOM      5  N   UNL     1       6.244   3.963  17.125  0.00  0.00    +0.000 NA
ATOM      6  H   UNL     1       6.426   2.988  16.900  0.00  0.00    +0.000 HD
ENDROOT
BRANCH   3   7
ATOM      7  N   UNL     1       7.732   7.074  18.199  0.00  0.00    +0.000 N 
ATOM      8  C   UNL     1       8.441   7.875  19.032  0.00  0.00    +0.000 A 
ATOM      9  C   UNL     1       8.594   9.047  18.326  0.00  0.00    +0.000 A 
ATOM     10  N   UNL     1       7.985   8.917  17.105  0.00  0.00    +0.000 NA
ATOM     11  N   UNL     1       7.463   7.698  17.035  0.00  0.00    +0.000 NA
BRANCH   9  12
ATOM     12  C   UNL     1       9.295  10.226  18.801  0.00  0.00    +0.000 A 
ATOM     13  C   UNL     1       9.446  10.469  20.164  0.00  0.00    +0.000 A 
ATOM     14  C   UNL     1      10.118  11.627  20.558  0.00  0.00    +0.000 A 
ATOM     15  C   UNL     1      10.611  12.494  19.595  0.00  0.00    +0.000 A 
ATOM     16  C   UNL     1      10.420  12.173  18.260  0.00  0.00    +0.000 A 
ATOM     17  N   UNL     1       9.779  11.058  17.845  0.00  0.00    +0.000 NA
ENDBRANCH   9  12
ENDBRANCH   3   7
BRANCH   1  19
ATOM     18  N   UNL     1       3.507   2.922  19.261  0.00  0.00    +0.000 N 
ATOM     19  C   UNL     1       4.061   3.803  18.315  0.00  0.00    +0.000 C 
ATOM     20  O   UNL     1       3.381   4.280  17.402  0.00  0.00    +0.000 OA
BRANCH  18  22
ATOM     21  C   UNL     1       1.142   3.153  20.046  0.00  0.00    +0.000 C 
ATOM     22  C   UNL     1       2.110   2.520  19.057  0.00  0.00    +0.000 C 
ENDBRANCH  18  22
BRANCH  18  23
ATOM     23  C   UNL     1       4.273   2.448  20.417  0.00  0.00    +0.000 C 
ATOM     24  C   UNL     1       4.994   1.114  20.327  0.00  0.00    +0.000 C 
ENDBRANCH  18  23
ENDBRANCH   1  19
TORSDOF 5
ENDMDL
MODEL 5
REMARK VINA RESULT:      -6.7      5.045      6.921
REMARK  Name = 
REMARK  7 active torsions:
REMARK  status: ('A' for Active; 'I' for Inactive)
REMARK    1  A    between atoms: C_1  and  C_2
REMARK    2  A    between atoms: C_2  and  N_3
REMARK    3  A    between atoms: N_3  and  C_4
REMARK    4  A    between atoms: C_4  and  C_5
REMARK    5  A    between atoms: C_6  and  C_8
REMARK    6  A    between atoms: C_10  and  N_11
REMARK    7  A    between atoms: C_13  and  C_14
REMARK                            x       y       z     vdW  Elec       q    Type
REMARK                         _______ _______ _______ _____ _____    ______ ____
ROOT
ATOM      1  C   UNL     1       5.683   4.556  16.099  0.00  0.00    +0.000 C 
ATOM      2  C   UNL     1       4.676   5.624  16.490  0.00  0.00    +0.000 C 
ATOM      3  C   UNL     1       3.970   4.972  17.672  0.00  0.00    +0.000 C 
ATOM      4  C   UNL     1       5.072   4.143  18.349  0.00  0.00    +0.000 C 
ATOM      5  N   UNL     1       6.204   4.119  17.413  0.00  0.00    +0.000 NA
ATOM      6  H   UNL     1       6.652   3.206  17.365  0.00  0.00    +0.000 HD
ENDROOT
BRANCH   3   7
ATOM      7  N   UNL     1       3.264   5.914  18.500  0.00  0.00    +0.000 N 
ATOM      8  C   UNL     1       2.807   7.152  18.191  0.00  0.00    +0.000 A 
ATOM      9  C   UNL     1       2.167   7.572  19.336  0.00  0.00    +0.000 A 
ATOM     10  N   UNL     1       2.252   6.586  20.284  0.00  0.00    +0.000 NA
ATOM     11  N   UNL     1       2.925   5.569  19.759  0.00  0.00    +0.000 NA
BRANCH   9  12
ATOM     12  C   UNL     1       1.502   8.852  19.501  0.00  0.00    +0.000 A 
ATOM     13  C   UNL     1       1.351   9.725  18.428  0.00  0.00    +0.000 A 
ATOM     14  C   UNL     1       0.716  10.947  18.655  0.00  0.00    +0.000 A 
ATOM     15  C   UNL     1       0.259  11.256  19.927  0.00  0.00    +0.000 A 
ATOM     16  C   UNL     1       0.447  10.327  20.938  0.00  0.00    +0.000 A 
ATOM     17  N   UNL     1       1.053   9.133  20.751  0.00  0.00    +0.000 NA
ENDBRANCH   9  12
ENDBRANCH   3   7
BRANCH   1  19
ATOM     18  N   UNL     1       6.917   4.593  13.896  0.00  0.00    +0.000 N 
ATOM     19  C   UNL     1       6.824   5.095  15.207  0.00  0.00    +0.000 C 
ATOM     20  O   UNL     1       7.642   5.910  15.644  0.00  0.00    +0.000 OA
BRANCH  18  22
ATOM     21  C   UNL     1       7.760   6.036  12.034  0.00  0.00    +0.000 C 
ATOM     22  C   UNL     1       8.083   5.005  13.107  0.00  0.00    +0.000 C 
ENDBRANCH  18  22
BRANCH  18  23
ATOM     23  C   UNL     1       5.884   3.721  13.329  0.00  0.00    +0.000 C 
ATOM     24  C   UNL     1       6.159   3.010  12.014  0.00  0.00    +0.000 C 
ENDBRANCH  18  23
ENDBRANCH   1  19
TORSDOF 5
ENDMDL
MODEL 6
REMARK VINA RESULT:      -6.7      4.165      6.769
REMARK  Name = 
REMARK  7 active torsions:
REMARK  status: ('A' for Active; 'I' for Inactive)
REMARK    1  A    between atoms: C_1  and  C_2
REMARK    2  A    between atoms: C_2  and  N_3
REMARK    3  A    between atoms: N_3  and  C_4
REMARK    4  A    between atoms: C_4  and  C_5
REMARK    5  A    between atoms: C_6  and  C_8
REMARK    6  A    between atoms: C_10  and  N_11
REMARK    7  A    between atoms: C_13  and  C_14
REMARK                            x       y       z     vdW  Elec       q    Type
REMARK                         _______ _______ _______ _____ _____    ______ ____
ROOT
ATOM      1  C   UNL     1       4.005   5.773  19.224  0.00  0.00    +0.000 C 
ATOM      2  C   UNL     1       4.106   5.558  17.723  0.00  0.00    +0.000 C 
ATOM      3  C   UNL     1       5.554   5.942  17.448  0.00  0.00    +0.000 C 
ATOM      4  C   UNL     1       6.300   5.499  18.714  0.00  0.00    +0.000 C 
ATOM      5  N   UNL     1       5.269   5.181  19.711  0.00  0.00    +0.000 NA
ATOM      6  H   UNL     1       5.514   5.509  20.643  0.00  0.00    +0.000 HD
ENDROOT
BRANCH   3   7
ATOM      7  N   UNL     1       6.045   5.436  16.193  0.00  0.00    +0.000 N 
ATOM      8  C   UNL     1       5.447   4.592  15.316  0.00  0.00    +0.000 A 
ATOM      9  C   UNL     1       6.342   4.497  14.274  0.00  0.00    +0.000 A 
ATOM     10  N   UNL     1       7.433   5.279  14.548  0.00  0.00    +0.000 NA
ATOM     11  N   UNL     1       7.239   5.856  15.728  0.00  0.00    +0.000 NA
BRANCH   9  12
ATOM     12  C   UNL     1       6.149   3.701  13.076  0.00  0.00    +0.000 A 
ATOM     13  C   UNL     1       4.872   3.430  12.593  0.00  0.00    +0.000 A 
ATOM     14  C   UNL     1       4.752   2.646  11.444  0.00  0.00    +0.000 A 
ATOM     15  C   UNL     1       5.894   2.164  10.822  0.00  0.00    +0.000 A 
ATOM     16  C   UNL     1       7.126   2.485  11.367  0.00  0.00    +0.000 A 
ATOM     17  N   UNL     1       7.277   3.245  12.475  0.00  0.00    +0.000 NA
ENDBRANCH   9  12
ENDBRANCH   3   7
BRANCH   1  19
ATOM     18  N   UNL     1       2.695   3.670  19.706  0.00  0.00    +0.000 N 
ATOM     19  C   UNL     1       2.786   5.065  19.857  0.00  0.00    +0.000 C 
ATOM     20  O   UNL     1       1.910   5.709  20.442  0.00  0.00    +0.000 OA
BRANCH  18  22
ATOM     21  C   UNL     1       1.541   2.582  21.642  0.00  0.00    +0.000 C 
ATOM     22  C   UNL     1       1.466   3.027  20.188  0.00  0.00    +0.000 C 
ENDBRANCH  18  22
BRANCH  18  23
ATOM     23  C   UNL     1       3.786   2.884  19.123  0.00  0.00    +0.000 C 
ATOM     24  C   UNL     1       3.451   1.769  18.146  0.00  0.00    +0.000 C 
ENDBRANCH  18  23
ENDBRANCH   1  19
TORSDOF 5
ENDMDL
MODEL 7
REMARK VINA RESULT:      -6.6      4.146      7.074
REMARK  Name = 
REMARK  7 active torsions:
REMARK  status: ('A' for Active; 'I' for Inactive)
REMARK    1  A    between atoms: C_1  and  C_2
REMARK    2  A    between atoms: C_2  and  N_3
REMARK    3  A    between atoms: N_3  and  C_4
REMARK    4  A    between atoms: C_4  and  C_5
REMARK    5  A    between atoms: C_6  and  C_8
REMARK    6  A    between atoms: C_10  and  N_11
REMARK    7  A    between atoms: C_13  and  C_14
REMARK                            x       y       z     vdW  Elec       q    Type
REMARK                         _______ _______ _______ _____ _____    ______ ____
ROOT
ATOM      1  C   UNL     1       4.911   5.226  19.021  0.00  0.00    +0.000 C 
ATOM      2  C   UNL     1       4.820   5.020  17.519  0.00  0.00    +0.000 C 
ATOM      3  C   UNL     1       6.159   5.571  17.044  0.00  0.00    +0.000 C 
ATOM      4  C   UNL     1       7.126   5.223  18.185  0.00  0.00    +0.000 C 
ATOM      5  N   UNL     1       6.294   4.788  19.314  0.00  0.00    +0.000 NA
ATOM      6  H   UNL     1       6.629   5.145  20.206  0.00  0.00    +0.000 HD
ENDROOT
BRANCH   3   7
ATOM      7  N   UNL     1       6.521   5.123  15.726  0.00  0.00    +0.000 N 
ATOM      8  C   UNL     1       5.947   4.162  14.960  0.00  0.00    +0.000 A 
ATOM      9  C   UNL     1       6.662   4.196  13.783  0.00  0.00    +0.000 A 
ATOM     10  N   UNL     1       7.627   5.165  13.873  0.00  0.00    +0.000 NA
ATOM     11  N   UNL     1       7.528   5.733  15.069  0.00  0.00    +0.000 NA
BRANCH   9  12
ATOM     12  C   UNL     1       6.421   3.344  12.633  0.00  0.00    +0.000 A 
ATOM     13  C   UNL     1       5.125   3.062  12.209  0.00  0.00    +0.000 A 
ATOM     14  C   UNL     1       4.959   2.225  11.104  0.00  0.00    +0.000 A 
ATOM     15  C   UNL     1       6.074   1.701  10.468  0.00  0.00    +0.000 A 
ATOM     16  C   UNL     1       7.327   2.035  10.954  0.00  0.00    +0.000 A 
ATOM     17  N   UNL     1       7.523   2.847  12.017  0.00  0.00    +0.000 NA
ENDBRANCH   9  12
ENDBRANCH   3   7
BRANCH   1  19
ATOM     18  N   UNL     1       2.731   5.031  20.279  0.00  0.00    +0.000 N 
ATOM     19  C   UNL     1       3.888   4.380  19.813  0.00  0.00    +0.000 C 
ATOM     20  O   UNL     1       4.099   3.189  20.054  0.00  0.00    +0.000 OA
BRANCH  18  22
ATOM     21  C   UNL     1       0.855   3.378  20.383  0.00  0.00    +0.000 C 
ATOM     22  C   UNL     1       1.836   4.256  21.147  0.00  0.00    +0.000 C 
ENDBRANCH  18  22
BRANCH  18  23
ATOM     23  C   UNL     1       2.413   6.410  19.896  0.00  0.00    +0.000 C 
ATOM     24  C   UNL     1       1.417   7.196  20.731  0.00  0.00    +0.000 C 
ENDBRANCH  18  23
ENDBRANCH   1  19
TORSDOF 5
ENDMDL
MODEL 8
REMARK VINA RESULT:      -6.6      4.152      7.041
REMARK  Name = 
REMARK  7 active torsions:
REMARK  status: ('A' for Active; 'I' for Inactive)
REMARK    1  A    between atoms: C_1  and  C_2
REMARK    2  A    between atoms: C_2  and  N_3
REMARK    3  A    between atoms: N_3  and  C_4
REMARK    4  A    between atoms: C_4  and  C_5
REMARK    5  A    between atoms: C_6  and  C_8
REMARK    6  A    between atoms: C_10  and  N_11
REMARK    7  A    between atoms: C_13  and  C_14
REMARK                            x       y       z     vdW  Elec       q    Type
REMARK                         _______ _______ _______ _____ _____    ______ ____
ROOT
ATOM      1  C   UNL     1       5.015   5.257  19.048  0.00  0.00    +0.000 C 
ATOM      2  C   UNL     1       4.898   5.090  17.542  0.00  0.00    +0.000 C 
ATOM      3  C   UNL     1       6.255   5.591  17.065  0.00  0.00    +0.000 C 
ATOM      4  C   UNL     1       7.218   5.173  18.186  0.00  0.00    +0.000 C 
ATOM      5  N   UNL     1       6.379   4.751  19.315  0.00  0.00    +0.000 NA
ATOM      6  H   UNL     1       6.739   5.073  20.211  0.00  0.00    +0.000 HD
ENDROOT
BRANCH   3   7
ATOM      7  N   UNL     1       6.583   5.157  15.732  0.00  0.00    +0.000 N 
ATOM      8  C   UNL     1       6.043   4.150  15.002  0.00  0.00    +0.000 A 
ATOM      9  C   UNL     1       6.693   4.222  13.791  0.00  0.00    +0.000 A 
ATOM     10  N   UNL     1       7.589   5.259  13.826  0.00  0.00    +0.000 NA
ATOM     11  N   UNL     1       7.510   5.830  15.022  0.00  0.00    +0.000 NA
BRANCH   9  12
ATOM     12  C   UNL     1       6.457   3.344  12.660  0.00  0.00    +0.000 A 
ATOM     13  C   UNL     1       7.517   2.743  11.986  0.00  0.00    +0.000 A 
ATOM     14  C   UNL     1       7.226   1.920  10.897  0.00  0.00    +0.000 A 
ATOM     15  C   UNL     1       5.906   1.727  10.518  0.00  0.00    +0.000 A 
ATOM     16  C   UNL     1       4.912   2.361  11.246  0.00  0.00    +0.000 A 
ATOM     17  N   UNL     1       5.160   3.160  12.309  0.00  0.00    +0.000 NA
ENDBRANCH   9  12
ENDBRANCH   3   7
BRANCH   1  19
ATOM     18  N   UNL     1       2.760   5.089  20.173  0.00  0.00    +0.000 N 
ATOM     19  C   UNL     1       3.962   4.441  19.832  0.00  0.00    +0.000 C 
ATOM     20  O   UNL     1       4.187   3.277  20.175  0.00  0.00    +0.000 OA
BRANCH  18  22
ATOM     21  C   UNL     1       0.766   3.581  20.268  0.00  0.00    +0.000 C 
ATOM     22  C   UNL     1       1.830   4.353  21.036  0.00  0.00    +0.000 C 
ENDBRANCH  18  22
BRANCH  18  23
ATOM     23  C   UNL     1       2.434   6.426  19.668  0.00  0.00    +0.000 C 
ATOM     24  C   UNL     1       1.763   7.422  20.598  0.00  0.00    +0.000 C 
ENDBRANCH  18  23
ENDBRANCH   1  19
TORSDOF 5
ENDMDL
MODEL 9
REMARK VINA RESULT:      -6.6      4.181      6.749
REMARK  Name = 
REMARK  7 active torsions:
REMARK  status: ('A' for Active; 'I' for Inactive)
REMARK    1  A    between atoms: C_1  and  C_2
REMARK    2  A    between atoms: C_2  and  N_3
REMARK    3  A    between atoms: N_3  and  C_4
REMARK    4  A    between atoms: C_4  and  C_5
REMARK    5  A    between atoms: C_6  and  C_8
REMARK    6  A    between atoms: C_10  and  N_11
REMARK    7  A    between atoms: C_13  and  C_14
REMARK                            x       y       z     vdW  Elec       q    Type
REMARK                         _______ _______ _______ _____ _____    ______ ____
ROOT
ATOM      1  C   UNL     1       4.170   5.857  19.263  0.00  0.00    +0.000 C 
ATOM      2  C   UNL     1       4.246   5.706  17.752  0.00  0.00    +0.000 C 
ATOM      3  C   UNL     1       5.729   5.934  17.489  0.00  0.00    +0.000 C 
ATOM      4  C   UNL     1       6.419   5.345  18.728  0.00  0.00    +0.000 C 
ATOM      5  N   UNL     1       5.357   5.099  19.714  0.00  0.00    +0.000 NA
ATOM      6  H   UNL     1       5.637   5.350  20.660  0.00  0.00    +0.000 HD
ENDROOT
BRANCH   3   7
ATOM      7  N   UNL     1       6.160   5.437  16.209  0.00  0.00    +0.000 N 
ATOM      8  C   UNL     1       5.531   4.581  15.366  0.00  0.00    +0.000 A 
ATOM      9  C   UNL     1       6.367   4.504  14.275  0.00  0.00    +0.000 A 
ATOM     10  N   UNL     1       7.456   5.309  14.488  0.00  0.00    +0.000 NA
ATOM     11  N   UNL     1       7.317   5.882  15.677  0.00  0.00    +0.000 NA
BRANCH   9  12
ATOM     12  C   UNL     1       6.125   3.703  13.089  0.00  0.00    +0.000 A 
ATOM     13  C   UNL     1       7.176   3.100  12.404  0.00  0.00    +0.000 A 
ATOM     14  C   UNL     1       6.879   2.355  11.262  0.00  0.00    +0.000 A 
ATOM     15  C   UNL     1       5.562   2.237  10.844  0.00  0.00    +0.000 A 
ATOM     16  C   UNL     1       4.577   2.868  11.587  0.00  0.00    +0.000 A 
ATOM     17  N   UNL     1       4.829   3.592  12.700  0.00  0.00    +0.000 NA
ENDBRANCH   9  12
ENDBRANCH   3   7
BRANCH   1  19
ATOM     18  N   UNL     1       2.664   3.881  19.714  0.00  0.00    +0.000 N 
ATOM     19  C   UNL     1       2.877   5.263  19.867  0.00  0.00    +0.000 C 
ATOM     20  O   UNL     1       2.049   5.985  20.429  0.00  0.00    +0.000 OA
BRANCH  18  22
ATOM     21  C   UNL     1       1.447   2.604  21.489  0.00  0.00    +0.000 C 
ATOM     22  C   UNL     1       1.371   3.353  20.166  0.00  0.00    +0.000 C 
ENDBRANCH  18  22
BRANCH  18  23
ATOM     23  C   UNL     1       3.694   2.998  19.158  0.00  0.00    +0.000 C 
ATOM     24  C   UNL     1       3.308   2.009  18.070  0.00  0.00    +0.000 C 
ENDBRANCH  18  23
ENDBRANCH   1  19
TORSDOF 5
ENDMDL
