MODEL 1
REMARK VINA RESULT:      -4.9      0.000      0.000
REMARK  Name = 
REMARK  1 active torsions:
REMARK  status: ('A' for Active; 'I' for Inactive)
REMARK    1  A    between atoms: O_1  and  C_2
REMARK                            x       y       z     vdW  Elec       q    Type
REMARK                         _______ _______ _______ _____ _____    ______ ____
ROOT
ATOM      1  C   UNL     1       3.535   2.022  18.369  0.00  0.00    +0.000 A 
ATOM      2  C   UNL     1       2.515   2.421  19.222  0.00  0.00    +0.000 A 
ATOM      3  C   UNL     1       2.133   3.768  19.255  0.00  0.00    +0.000 A 
ATOM      4 CL   UNL     1       0.853   4.195  20.340  0.00  0.00    +0.000 Cl
ATOM      5  C   UNL     1       2.772   4.714  18.435  0.00  0.00    +0.000 A 
ATOM      6 CL   UNL     1       2.299   6.383  18.480  0.00  0.00    +0.000 Cl
ATOM      7  C   UNL     1       3.800   4.285  17.581  0.00  0.00    +0.000 A 
ATOM      8 CL   UNL     1       4.649   5.368  16.533  0.00  0.00    +0.000 Cl
ATOM      9  C   UNL     1       4.179   2.940  17.550  0.00  0.00    +0.000 A 
ENDROOT
BRANCH   1  10
ATOM     10  O   UNL     1       3.939   0.723  18.303  0.00  0.00    +0.000 OA
ATOM     11  H   UNL     1       3.191   0.134  18.505  0.00  0.00    +0.000 HD
ENDBRANCH   1  10
TORSDOF 1
ENDMDL
MODEL 2
REMARK VINA RESULT:      -4.9      0.042      2.897
REMARK  Name = 
REMARK  1 active torsions:
REMARK  status: ('A' for Active; 'I' for Inactive)
REMARK    1  A    between atoms: O_1  and  C_2
REMARK                            x       y       z     vdW  Elec       q    Type
REMARK                         _______ _______ _______ _____ _____    ______ ____
ROOT
ATOM      1  C   UNL     1       3.558   2.055  18.334  0.00  0.00    +0.000 A 
ATOM      2  C   UNL     1       4.198   2.986  17.527  0.00  0.00    +0.000 A 
ATOM      3  C   UNL     1       3.805   4.329  17.580  0.00  0.00    +0.000 A 
ATOM      4 CL   UNL     1       4.648   5.435  16.549  0.00  0.00    +0.000 Cl
ATOM      5  C   UNL     1       2.773   4.739  18.440  0.00  0.00    +0.000 A 
ATOM      6 CL   UNL     1       2.286   6.403  18.503  0.00  0.00    +0.000 Cl
ATOM      7  C   UNL     1       2.141   3.779  19.247  0.00  0.00    +0.000 A 
ATOM      8 CL   UNL     1       0.860   4.180  20.339  0.00  0.00    +0.000 Cl
ATOM      9  C   UNL     1       2.536   2.439  19.192  0.00  0.00    +0.000 A 
ENDROOT
BRANCH   1  10
ATOM     10  O   UNL     1       3.907   0.738  18.316  0.00  0.00    +0.000 OA
ATOM     11  H   UNL     1       3.314   0.249  17.720  0.00  0.00    +0.000 HD
ENDBRANCH   1  10
TORSDOF 1
ENDMDL
MODEL 3
REMARK VINA RESULT:      -4.9      2.861      4.549
REMARK  Name = 
REMARK  1 active torsions:
REMARK  status: ('A' for Active; 'I' for Inactive)
REMARK    1  A    between atoms: O_1  and  C_2
REMARK                            x       y       z     vdW  Elec       q    Type
REMARK                         _______ _______ _______ _____ _____    ______ ____
ROOT
ATOM      1  C   UNL     1       2.401   6.165  19.873  0.00  0.00    +0.000 A 
ATOM      2  C   UNL     1       3.073   5.828  18.706  0.00  0.00    +0.000 A 
ATOM      3  C   UNL     1       3.211   4.479  18.356  0.00  0.00    +0.000 A 
ATOM      4 CL   UNL     1       4.058   4.131  16.887  0.00  0.00    +0.000 Cl
ATOM      5  C   UNL     1       2.676   3.469  19.174  0.00  0.00    +0.000 A 
ATOM      6 CL   UNL     1       2.849   1.798  18.740  0.00  0.00    +0.000 Cl
ATOM      7  C   UNL     1       2.001   3.835  20.349  0.00  0.00    +0.000 A 
ATOM      8 CL   UNL     1       1.306   2.671  21.423  0.00  0.00    +0.000 Cl
ATOM      9  C   UNL     1       1.864   5.183  20.695  0.00  0.00    +0.000 A 
ENDROOT
BRANCH   1  10
ATOM     10  O   UNL     1       2.243   7.464  20.253  0.00  0.00    +0.000 OA
ATOM     11  H   UNL     1       1.880   7.981  19.514  0.00  0.00    +0.000 HD
ENDBRANCH   1  10
TORSDOF 1
ENDMDL
MODEL 4
REMARK VINA RESULT:      -4.8      2.861      3.541
REMARK  Name = 
REMARK  1 active torsions:
REMARK  status: ('A' for Active; 'I' for Inactive)
REMARK    1  A    between atoms: O_1  and  C_2
REMARK                            x       y       z     vdW  Elec       q    Type
REMARK                         _______ _______ _______ _____ _____    ______ ____
ROOT
ATOM      1  C   UNL     1       2.384   6.146  19.889  0.00  0.00    +0.000 A 
ATOM      2  C   UNL     1       1.859   5.163  20.716  0.00  0.00    +0.000 A 
ATOM      3  C   UNL     1       2.006   3.815  20.363  0.00  0.00    +0.000 A 
ATOM      4 CL   UNL     1       1.329   2.643  21.443  0.00  0.00    +0.000 Cl
ATOM      5  C   UNL     1       2.677   3.454  19.183  0.00  0.00    +0.000 A 
ATOM      6 CL   UNL     1       2.856   1.784  18.747  0.00  0.00    +0.000 Cl
ATOM      7  C   UNL     1       3.199   4.466  18.363  0.00  0.00    +0.000 A 
ATOM      8 CL   UNL     1       4.041   4.127  16.890  0.00  0.00    +0.000 Cl
ATOM      9  C   UNL     1       3.052   5.810  18.718  0.00  0.00    +0.000 A 
ENDROOT
BRANCH   1  10
ATOM     10  O   UNL     1       2.266   7.469  20.191  0.00  0.00    +0.000 OA
ATOM     11  H   UNL     1       2.912   7.708  20.878  0.00  0.00    +0.000 HD
ENDBRANCH   1  10
TORSDOF 1
ENDMDL
MODEL 5
REMARK VINA RESULT:      -4.8      2.383      3.062
REMARK  Name = 
REMARK  1 active torsions:
REMARK  status: ('A' for Active; 'I' for Inactive)
REMARK    1  A    between atoms: O_1  and  C_2
REMARK                            x       y       z     vdW  Elec       q    Type
REMARK                         _______ _______ _______ _____ _____    ______ ____
ROOT
ATOM      1  C   UNL     1       1.908   3.222  21.169  0.00  0.00    +0.000 A 
ATOM      2  C   UNL     1       1.914   4.602  21.018  0.00  0.00    +0.000 A 
ATOM      3  C   UNL     1       2.435   5.163  19.845  0.00  0.00    +0.000 A 
ATOM      4 CL   UNL     1       2.408   6.890  19.723  0.00  0.00    +0.000 Cl
ATOM      5  C   UNL     1       2.949   4.344  18.826  0.00  0.00    +0.000 A 
ATOM      6 CL   UNL     1       3.596   5.042  17.375  0.00  0.00    +0.000 Cl
ATOM      7  C   UNL     1       2.932   2.951  19.003  0.00  0.00    +0.000 A 
ATOM      8 CL   UNL     1       3.540   1.855  17.810  0.00  0.00    +0.000 Cl
ATOM      9  C   UNL     1       2.411   2.393  20.174  0.00  0.00    +0.000 A 
ENDROOT
BRANCH   1  10
ATOM     10  O   UNL     1       1.412   2.632  22.292  0.00  0.00    +0.000 OA
ATOM     11  H   UNL     1       2.046   2.729  23.023  0.00  0.00    +0.000 HD
ENDBRANCH   1  10
TORSDOF 1
ENDMDL
MODEL 6
REMARK VINA RESULT:      -4.8      1.920      3.504
REMARK  Name = 
REMARK  1 active torsions:
REMARK  status: ('A' for Active; 'I' for Inactive)
REMARK    1  A    between atoms: O_1  and  C_2
REMARK                            x       y       z     vdW  Elec       q    Type
REMARK                         _______ _______ _______ _____ _____    ______ ____
ROOT
ATOM      1  C   UNL     1       4.611   3.914  18.971  0.00  0.00    +0.000 A 
ATOM      2  C   UNL     1       5.032   4.574  17.824  0.00  0.00    +0.000 A 
ATOM      3  C   UNL     1       4.444   5.797  17.479  0.00  0.00    +0.000 A 
ATOM      4 CL   UNL     1       5.018   6.565  16.038  0.00  0.00    +0.000 Cl
ATOM      5  C   UNL     1       3.435   6.357  18.280  0.00  0.00    +0.000 A 
ATOM      6 CL   UNL     1       2.705   7.871  17.848  0.00  0.00    +0.000 Cl
ATOM      7  C   UNL     1       3.026   5.671  19.435  0.00  0.00    +0.000 A 
ATOM      8 CL   UNL     1       1.794   6.275  20.488  0.00  0.00    +0.000 Cl
ATOM      9  C   UNL     1       3.617   4.451  19.778  0.00  0.00    +0.000 A 
ENDROOT
BRANCH   1  10
ATOM     10  O   UNL     1       5.155   2.723  19.347  0.00  0.00    +0.000 OA
ATOM     11  H   UNL     1       4.575   1.994  19.066  0.00  0.00    +0.000 HD
ENDBRANCH   1  10
TORSDOF 1
ENDMDL
MODEL 7
REMARK VINA RESULT:      -4.8      1.453      3.213
REMARK  Name = 
REMARK  1 active torsions:
REMARK  status: ('A' for Active; 'I' for Inactive)
REMARK    1  A    between atoms: O_1  and  C_2
REMARK                            x       y       z     vdW  Elec       q    Type
REMARK                         _______ _______ _______ _____ _____    ______ ____
ROOT
ATOM      1  C   UNL     1       4.496   3.017  19.519  0.00  0.00    +0.000 A 
ATOM      2  C   UNL     1       5.139   3.986  18.762  0.00  0.00    +0.000 A 
ATOM      3  C   UNL     1       4.505   5.214  18.533  0.00  0.00    +0.000 A 
ATOM      4 CL   UNL     1       5.366   6.377  17.583  0.00  0.00    +0.000 Cl
ATOM      5  C   UNL     1       3.228   5.470  19.062  0.00  0.00    +0.000 A 
ATOM      6 CL   UNL     1       2.444   6.991  18.775  0.00  0.00    +0.000 Cl
ATOM      7  C   UNL     1       2.599   4.474  19.825  0.00  0.00    +0.000 A 
ATOM      8 CL   UNL     1       1.029   4.689  20.520  0.00  0.00    +0.000 Cl
ATOM      9  C   UNL     1       3.234   3.249  20.052  0.00  0.00    +0.000 A 
ENDROOT
BRANCH   1  10
ATOM     10  O   UNL     1       5.074   1.809  19.768  0.00  0.00    +0.000 OA
ATOM     11  H   UNL     1       5.312   1.745  20.709  0.00  0.00    +0.000 HD
ENDBRANCH   1  10
TORSDOF 1
ENDMDL
MODEL 8
REMARK VINA RESULT:      -4.8      1.868      1.958
REMARK  Name = 
REMARK  1 active torsions:
REMARK  status: ('A' for Active; 'I' for Inactive)
REMARK    1  A    between atoms: O_1  and  C_2
REMARK                            x       y       z     vdW  Elec       q    Type
REMARK                         _______ _______ _______ _____ _____    ______ ____
ROOT
ATOM      1  C   UNL     1       4.542   3.859  19.040  0.00  0.00    +0.000 A 
ATOM      2  C   UNL     1       3.541   4.389  19.843  0.00  0.00    +0.000 A 
ATOM      3  C   UNL     1       2.961   5.616  19.498  0.00  0.00    +0.000 A 
ATOM      4 CL   UNL     1       1.717   6.217  20.542  0.00  0.00    +0.000 Cl
ATOM      5  C   UNL     1       3.382   6.311  18.352  0.00  0.00    +0.000 A 
ATOM      6 CL   UNL     1       2.663   7.833  17.929  0.00  0.00    +0.000 Cl
ATOM      7  C   UNL     1       4.395   5.754  17.556  0.00  0.00    +0.000 A 
ATOM      8 CL   UNL     1       4.985   6.528  16.126  0.00  0.00    +0.000 Cl
ATOM      9  C   UNL     1       4.973   4.528  17.902  0.00  0.00    +0.000 A 
ENDROOT
BRANCH   1  10
ATOM     10  O   UNL     1       5.135   2.669  19.335  0.00  0.00    +0.000 OA
ATOM     11  H   UNL     1       5.348   2.194  18.513  0.00  0.00    +0.000 HD
ENDBRANCH   1  10
TORSDOF 1
ENDMDL
MODEL 9
REMARK VINA RESULT:      -4.8      2.378      3.314
REMARK  Name = 
REMARK  1 active torsions:
REMARK  status: ('A' for Active; 'I' for Inactive)
REMARK    1  A    between atoms: O_1  and  C_2
REMARK                            x       y       z     vdW  Elec       q    Type
REMARK                         _______ _______ _______ _____ _____    ______ ____
ROOT
ATOM      1  C   UNL     1       1.922   3.157  21.156  0.00  0.00    +0.000 A 
ATOM      2  C   UNL     1       2.433   2.358  20.142  0.00  0.00    +0.000 A 
ATOM      3  C   UNL     1       2.945   2.958  18.985  0.00  0.00    +0.000 A 
ATOM      4 CL   UNL     1       3.568   1.901  17.764  0.00  0.00    +0.000 Cl
ATOM      5  C   UNL     1       2.944   4.355  18.843  0.00  0.00    +0.000 A 
ATOM      6 CL   UNL     1       3.577   5.096  17.407  0.00  0.00    +0.000 Cl
ATOM      7  C   UNL     1       2.422   5.142  19.882  0.00  0.00    +0.000 A 
ATOM      8 CL   UNL     1       2.376   6.870  19.806  0.00  0.00    +0.000 Cl
ATOM      9  C   UNL     1       1.913   4.541  21.037  0.00  0.00    +0.000 A 
ENDROOT
BRANCH   1  10
ATOM     10  O   UNL     1       1.414   2.618  22.299  0.00  0.00    +0.000 OA
ATOM     11  H   UNL     1       0.708   3.190  22.647  0.00  0.00    +0.000 HD
ENDBRANCH   1  10
TORSDOF 1
ENDMDL
