MODEL 1
REMARK VINA RESULT:      -3.8      0.000      0.000
REMARK  Name = 
REMARK  5 active torsions:
REMARK  status: ('A' for Active; 'I' for Inactive)
REMARK    1  A    between atoms: C_1  and  C_2
REMARK    2  A    between atoms: C_2  and  C_3
REMARK    3  A    between atoms: C_2  and  C_4
REMARK    4  A    between atoms: C_2  and  N_5
REMARK    5  A    between atoms: N_5  and  O_6
REMARK                            x       y       z     vdW  Elec       q    Type
REMARK                         _______ _______ _______ _____ _____    ______ ____
ROOT
ATOM      1  C   UNL     1       5.622   6.071  17.760  0.00  0.00    +0.000 C 
ATOM      2  C   UNL     1       6.971   5.677  18.381  0.00  0.00    +0.000 C 
ATOM      3  C   UNL     1       7.627   4.552  17.563  0.00  0.00    +0.000 C 
ATOM      4  C   UNL     1       7.901   6.902  18.377  0.00  0.00    +0.000 C 
ENDROOT
BRANCH   2   5
ATOM      5  N   UNL     1       6.816   5.258  19.790  0.00  0.00    +0.000 NA
ATOM      6  H   UNL     1       6.740   4.238  19.834  0.00  0.00    +0.000 HD
BRANCH   5   7
ATOM      7  O   UNL     1       8.084   5.498  20.462  0.00  0.00    +0.000 OA
ATOM      8  H   UNL     1       8.323   4.598  20.762  0.00  0.00    +0.000 HD
ENDBRANCH   5   7
ENDBRANCH   2   5
TORSDOF 2
ENDMDL
MODEL 2
REMARK VINA RESULT:      -3.7      1.097      1.943
REMARK  Name = 
REMARK  5 active torsions:
REMARK  status: ('A' for Active; 'I' for Inactive)
REMARK    1  A    between atoms: C_1  and  C_2
REMARK    2  A    between atoms: C_2  and  C_3
REMARK    3  A    between atoms: C_2  and  C_4
REMARK    4  A    between atoms: C_2  and  N_5
REMARK    5  A    between atoms: N_5  and  O_6
REMARK                            x       y       z     vdW  Elec       q    Type
REMARK                         _______ _______ _______ _____ _____    ______ ____
ROOT
ATOM      1  C   UNL     1       7.597   4.558  17.370  0.00  0.00    +0.000 C 
ATOM      2  C   UNL     1       7.548   5.468  18.607  0.00  0.00    +0.000 C 
ATOM      3  C   UNL     1       7.717   6.939  18.195  0.00  0.00    +0.000 C 
ATOM      4  C   UNL     1       6.186   5.297  19.300  0.00  0.00    +0.000 C 
ENDROOT
BRANCH   2   5
ATOM      5  N   UNL     1       8.584   5.093  19.594  0.00  0.00    +0.000 NA
ATOM      6  H   UNL     1       9.397   5.705  19.480  0.00  0.00    +0.000 HD
BRANCH   5   7
ATOM      7  O   UNL     1       8.096   5.479  20.910  0.00  0.00    +0.000 OA
ATOM      8  H   UNL     1       8.923   5.747  21.357  0.00  0.00    +0.000 HD
ENDBRANCH   5   7
ENDBRANCH   2   5
TORSDOF 2
ENDMDL
MODEL 3
REMARK VINA RESULT:      -3.7      2.469      2.889
REMARK  Name = 
REMARK  5 active torsions:
REMARK  status: ('A' for Active; 'I' for Inactive)
REMARK    1  A    between atoms: C_1  and  C_2
REMARK    2  A    between atoms: C_2  and  C_3
REMARK    3  A    between atoms: C_2  and  C_4
REMARK    4  A    between atoms: C_2  and  N_5
REMARK    5  A    between atoms: N_5  and  O_6
REMARK                            x       y       z     vdW  Elec       q    Type
REMARK                         _______ _______ _______ _____ _____    ______ ____
ROOT
ATOM      1  C   UNL     1       7.720   7.952  17.529  0.00  0.00    +0.000 C 
ATOM      2  C   UNL     1       7.129   6.539  17.407  0.00  0.00    +0.000 C 
ATOM      3  C   UNL     1       7.588   5.664  18.586  0.00  0.00    +0.000 C 
ATOM      4  C   UNL     1       5.594   6.635  17.427  0.00  0.00    +0.000 C 
ENDROOT
BRANCH   2   5
ATOM      5  N   UNL     1       7.504   5.905  16.125  0.00  0.00    +0.000 NA
ATOM      6  H   UNL     1       8.397   6.291  15.806  0.00  0.00    +0.000 HD
BRANCH   5   7
ATOM      7  O   UNL     1       7.855   4.521  16.407  0.00  0.00    +0.000 OA
ATOM      8  H   UNL     1       7.695   4.096  15.540  0.00  0.00    +0.000 HD
ENDBRANCH   5   7
ENDBRANCH   2   5
TORSDOF 2
ENDMDL
MODEL 4
REMARK VINA RESULT:      -3.5      2.639      3.004
REMARK  Name = 
REMARK  5 active torsions:
REMARK  status: ('A' for Active; 'I' for Inactive)
REMARK    1  A    between atoms: C_1  and  C_2
REMARK    2  A    between atoms: C_2  and  C_3
REMARK    3  A    between atoms: C_2  and  C_4
REMARK    4  A    between atoms: C_2  and  N_5
REMARK    5  A    between atoms: N_5  and  O_6
REMARK                            x       y       z     vdW  Elec       q    Type
REMARK                         _______ _______ _______ _____ _____    ______ ____
ROOT
ATOM      1  C   UNL     1       7.490   5.472  18.331  0.00  0.00    +0.000 C 
ATOM      2  C   UNL     1       7.017   6.492  17.284  0.00  0.00    +0.000 C 
ATOM      3  C   UNL     1       5.490   6.657  17.351  0.00  0.00    +0.000 C 
ATOM      4  C   UNL     1       7.678   7.850  17.575  0.00  0.00    +0.000 C 
ENDROOT
BRANCH   2   5
ATOM      5  N   UNL     1       7.428   6.096  15.920  0.00  0.00    +0.000 NA
ATOM      6  H   UNL     1       8.367   6.457  15.731  0.00  0.00    +0.000 HD
BRANCH   5   7
ATOM      7  O   UNL     1       7.652   4.658  15.930  0.00  0.00    +0.000 OA
ATOM      8  H   UNL     1       7.730   4.463  14.975  0.00  0.00    +0.000 HD
ENDBRANCH   5   7
ENDBRANCH   2   5
TORSDOF 2
ENDMDL
MODEL 5
REMARK VINA RESULT:      -3.5      2.341      2.708
REMARK  Name = 
REMARK  5 active torsions:
REMARK  status: ('A' for Active; 'I' for Inactive)
REMARK    1  A    between atoms: C_1  and  C_2
REMARK    2  A    between atoms: C_2  and  C_3
REMARK    3  A    between atoms: C_2  and  C_4
REMARK    4  A    between atoms: C_2  and  N_5
REMARK    5  A    between atoms: N_5  and  O_6
REMARK                            x       y       z     vdW  Elec       q    Type
REMARK                         _______ _______ _______ _____ _____    ______ ____
ROOT
ATOM      1  C   UNL     1       5.676   5.618  15.615  0.00  0.00    +0.000 C 
ATOM      2  C   UNL     1       6.614   5.412  16.815  0.00  0.00    +0.000 C 
ATOM      3  C   UNL     1       7.139   6.766  17.321  0.00  0.00    +0.000 C 
ATOM      4  C   UNL     1       5.833   4.725  17.948  0.00  0.00    +0.000 C 
ENDROOT
BRANCH   2   5
ATOM      5  N   UNL     1       7.744   4.523  16.470  0.00  0.00    +0.000 NA
ATOM      6  H   UNL     1       8.511   5.084  16.088  0.00  0.00    +0.000 HD
BRANCH   5   7
ATOM      7  O   UNL     1       8.316   4.037  17.717  0.00  0.00    +0.000 OA
ATOM      8  H   UNL     1       9.065   3.497  17.394  0.00  0.00    +0.000 HD
ENDBRANCH   5   7
ENDBRANCH   2   5
TORSDOF 2
ENDMDL
MODEL 6
REMARK VINA RESULT:      -3.5      3.645      4.091
REMARK  Name = 
REMARK  5 active torsions:
REMARK  status: ('A' for Active; 'I' for Inactive)
REMARK    1  A    between atoms: C_1  and  C_2
REMARK    2  A    between atoms: C_2  and  C_3
REMARK    3  A    between atoms: C_2  and  C_4
REMARK    4  A    between atoms: C_2  and  N_5
REMARK    5  A    between atoms: N_5  and  O_6
REMARK                            x       y       z     vdW  Elec       q    Type
REMARK                         _______ _______ _______ _____ _____    ______ ____
ROOT
ATOM      1  C   UNL     1       3.061   4.340  18.721  0.00  0.00    +0.000 C 
ATOM      2  C   UNL     1       4.091   3.315  18.222  0.00  0.00    +0.000 C 
ATOM      3  C   UNL     1       3.431   1.937  18.047  0.00  0.00    +0.000 C 
ATOM      4  C   UNL     1       4.642   3.780  16.864  0.00  0.00    +0.000 C 
ENDROOT
BRANCH   2   5
ATOM      5  N   UNL     1       5.243   3.214  19.143  0.00  0.00    +0.000 NA
ATOM      6  H   UNL     1       5.153   3.923  19.877  0.00  0.00    +0.000 HD
BRANCH   5   7
ATOM      7  O   UNL     1       5.097   1.978  19.896  0.00  0.00    +0.000 OA
ATOM      8  H   UNL     1       4.233   1.651  19.575  0.00  0.00    +0.000 HD
ENDBRANCH   5   7
ENDBRANCH   2   5
TORSDOF 2
ENDMDL
MODEL 7
REMARK VINA RESULT:      -3.5      1.832      1.833
REMARK  Name = 
REMARK  5 active torsions:
REMARK  status: ('A' for Active; 'I' for Inactive)
REMARK    1  A    between atoms: C_1  and  C_2
REMARK    2  A    between atoms: C_2  and  C_3
REMARK    3  A    between atoms: C_2  and  C_4
REMARK    4  A    between atoms: C_2  and  N_5
REMARK    5  A    between atoms: N_5  and  O_6
REMARK                            x       y       z     vdW  Elec       q    Type
REMARK                         _______ _______ _______ _____ _____    ______ ____
ROOT
ATOM      1  C   UNL     1       5.087   5.921  17.600  0.00  0.00    +0.000 C 
ATOM      2  C   UNL     1       6.541   5.523  17.306  0.00  0.00    +0.000 C 
ATOM      3  C   UNL     1       6.724   5.235  15.807  0.00  0.00    +0.000 C 
ATOM      4  C   UNL     1       7.469   6.682  17.707  0.00  0.00    +0.000 C 
ENDROOT
BRANCH   2   5
ATOM      5  N   UNL     1       6.951   4.347  18.104  0.00  0.00    +0.000 NA
ATOM      6  H   UNL     1       6.438   3.523  17.781  0.00  0.00    +0.000 HD
BRANCH   5   7
ATOM      7  O   UNL     1       8.319   4.018  17.730  0.00  0.00    +0.000 OA
ATOM      8  H   UNL     1       8.425   3.131  18.128  0.00  0.00    +0.000 HD
ENDBRANCH   5   7
ENDBRANCH   2   5
TORSDOF 2
ENDMDL
MODEL 8
REMARK VINA RESULT:      -3.5      1.968      2.610
REMARK  Name = 
REMARK  5 active torsions:
REMARK  status: ('A' for Active; 'I' for Inactive)
REMARK    1  A    between atoms: C_1  and  C_2
REMARK    2  A    between atoms: C_2  and  C_3
REMARK    3  A    between atoms: C_2  and  C_4
REMARK    4  A    between atoms: C_2  and  N_5
REMARK    5  A    between atoms: N_5  and  O_6
REMARK                            x       y       z     vdW  Elec       q    Type
REMARK                         _______ _______ _______ _____ _____    ______ ____
ROOT
ATOM      1  C   UNL     1       7.029   4.819  15.583  0.00  0.00    +0.000 C 
ATOM      2  C   UNL     1       6.694   5.268  17.013  0.00  0.00    +0.000 C 
ATOM      3  C   UNL     1       7.292   6.658  17.291  0.00  0.00    +0.000 C 
ATOM      4  C   UNL     1       5.165   5.344  17.169  0.00  0.00    +0.000 C 
ENDROOT
BRANCH   2   5
ATOM      5  N   UNL     1       7.181   4.295  18.014  0.00  0.00    +0.000 NA
ATOM      6  H   UNL     1       7.677   4.793  18.758  0.00  0.00    +0.000 HD
BRANCH   5   7
ATOM      7  O   UNL     1       6.021   3.772  18.719  0.00  0.00    +0.000 OA
ATOM      8  H   UNL     1       6.379   2.948  19.105  0.00  0.00    +0.000 HD
ENDBRANCH   5   7
ENDBRANCH   2   5
TORSDOF 2
ENDMDL
MODEL 9
REMARK VINA RESULT:      -3.5      3.627      4.409
REMARK  Name = 
REMARK  5 active torsions:
REMARK  status: ('A' for Active; 'I' for Inactive)
REMARK    1  A    between atoms: C_1  and  C_2
REMARK    2  A    between atoms: C_2  and  C_3
REMARK    3  A    between atoms: C_2  and  C_4
REMARK    4  A    between atoms: C_2  and  N_5
REMARK    5  A    between atoms: N_5  and  O_6
REMARK                            x       y       z     vdW  Elec       q    Type
REMARK                         _______ _______ _______ _____ _____    ______ ____
ROOT
ATOM      1  C   UNL     1       3.991   3.967  17.385  0.00  0.00    +0.000 C 
ATOM      2  C   UNL     1       3.865   3.116  18.659  0.00  0.00    +0.000 C 
ATOM      3  C   UNL     1       2.802   3.711  19.596  0.00  0.00    +0.000 C 
ATOM      4  C   UNL     1       3.443   1.690  18.268  0.00  0.00    +0.000 C 
ENDROOT
BRANCH   2   5
ATOM      5  N   UNL     1       5.160   3.004  19.363  0.00  0.00    +0.000 NA
ATOM      6  H   UNL     1       5.539   2.062  19.229  0.00  0.00    +0.000 HD
BRANCH   5   7
ATOM      7  O   UNL     1       6.124   3.824  18.644  0.00  0.00    +0.000 OA
ATOM      8  H   UNL     1       6.351   3.246  17.888  0.00  0.00    +0.000 HD
ENDBRANCH   5   7
ENDBRANCH   2   5
TORSDOF 2
ENDMDL
