MODEL 1
REMARK VINA RESULT:      -7.8      0.000      0.000
REMARK  Name = 
REMARK  4 active torsions:
REMARK  status: ('A' for Active; 'I' for Inactive)
REMARK    1  A    between atoms: C_7  and  C_8
REMARK    2  A    between atoms: C_8  and  C_9
REMARK    3  A    between atoms: C_9  and  C_10
REMARK    4  A    between atoms: C_10  and  C_11
REMARK                            x       y       z     vdW  Elec       q    Type
REMARK                         _______ _______ _______ _____ _____    ______ ____
ROOT
ATOM      1  N   UNL     1       1.024   2.569  22.403  0.00  0.00    +0.000 N 
ATOM      2  C   UNL     1       1.693   2.920  21.246  0.00  0.00    +0.000 A 
ATOM      3  N   UNL     1       2.131   4.184  21.167  0.00  0.00    +0.000 NA
ATOM      4  C   UNL     1       2.821   4.585  20.078  0.00  0.00    +0.000 A 
ATOM      5  N   UNL     1       3.239   5.913  20.093  0.00  0.00    +0.000 N 
ATOM      6  C   UNL     1       3.079   3.663  19.046  0.00  0.00    +0.000 A 
ATOM      7  C   UNL     1       3.716   3.629  17.754  0.00  0.00    +0.000 A 
ATOM      8  C   UNL     1       3.542   2.341  17.264  0.00  0.00    +0.000 A 
ATOM      9  N   UNL     1       2.871   1.606  18.199  0.00  0.00    +0.000 N 
ATOM     10  C   UNL     1       2.574   2.390  19.278  0.00  0.00    +0.000 A 
ATOM     11  N   UNL     1       1.895   1.957  20.345  0.00  0.00    +0.000 NA
ATOM     12  H   UNL     1       1.282   3.206  23.143  0.00  0.00    +0.000 HD
ATOM     13  H   UNL     1       1.142   1.581  22.578  0.00  0.00    +0.000 HD
ATOM     14  H   UNL     1       3.033   6.286  21.018  0.00  0.00    +0.000 HD
ATOM     15  H   UNL     1       4.202   6.023  19.810  0.00  0.00    +0.000 HD
ATOM     16  H   UNL     1       2.587   0.641  18.115  0.00  0.00    +0.000 HD
ENDROOT
BRANCH   7  17
ATOM     17  C   UNL     1       4.371   4.733  16.978  0.00  0.00    +0.000 C 
BRANCH  17  18
ATOM     18  C   UNL     1       5.018   4.320  15.651  0.00  0.00    +0.000 C 
BRANCH  18  19
ATOM     19  C   UNL     1       6.552   4.377  15.619  0.00  0.00    +0.000 C 
BRANCH  19  20
ATOM     20  C   UNL     1       7.094   5.262  16.723  0.00  0.00    +0.000 A 
ATOM     21  C   UNL     1       7.521   4.704  17.938  0.00  0.00    +0.000 A 
ATOM     22  C   UNL     1       8.000   5.520  18.967  0.00  0.00    +0.000 A 
ATOM     23  C   UNL     1       8.054   6.900  18.798  0.00  0.00    +0.000 A 
ATOM     24  C   UNL     1       7.628   7.468  17.599  0.00  0.00    +0.000 A 
ATOM     25  C   UNL     1       7.151   6.655  16.567  0.00  0.00    +0.000 A 
ENDBRANCH  19  20
ENDBRANCH  18  19
ENDBRANCH  17  18
ENDBRANCH   7  17
TORSDOF 4
ENDMDL
MODEL 2
REMARK VINA RESULT:      -7.7      3.083      6.620
REMARK  Name = 
REMARK  4 active torsions:
REMARK  status: ('A' for Active; 'I' for Inactive)
REMARK    1  A    between atoms: C_7  and  C_8
REMARK    2  A    between atoms: C_8  and  C_9
REMARK    3  A    between atoms: C_9  and  C_10
REMARK    4  A    between atoms: C_10  and  C_11
REMARK                            x       y       z     vdW  Elec       q    Type
REMARK                         _______ _______ _______ _____ _____    ______ ____
ROOT
ATOM      1  N   UNL     1       6.733   3.611  12.866  0.00  0.00    +0.000 N 
ATOM      2  C   UNL     1       6.553   4.071  14.157  0.00  0.00    +0.000 A 
ATOM      3  N   UNL     1       5.746   3.345  14.944  0.00  0.00    +0.000 NA
ATOM      4  C   UNL     1       5.553   3.720  16.227  0.00  0.00    +0.000 A 
ATOM      5  N   UNL     1       4.705   2.898  16.966  0.00  0.00    +0.000 N 
ATOM      6  C   UNL     1       6.213   4.861  16.720  0.00  0.00    +0.000 A 
ATOM      7  C   UNL     1       6.299   5.624  17.940  0.00  0.00    +0.000 A 
ATOM      8  C   UNL     1       7.142   6.695  17.674  0.00  0.00    +0.000 A 
ATOM      9  N   UNL     1       7.582   6.595  16.386  0.00  0.00    +0.000 N 
ATOM     10  C   UNL     1       7.024   5.499  15.790  0.00  0.00    +0.000 A 
ATOM     11  N   UNL     1       7.245   5.153  14.517  0.00  0.00    +0.000 NA
ATOM     12  H   UNL     1       6.519   2.625  12.831  0.00  0.00    +0.000 HD
ATOM     13  H   UNL     1       7.637   3.903  12.523  0.00  0.00    +0.000 HD
ATOM     14  H   UNL     1       4.495   2.084  16.392  0.00  0.00    +0.000 HD
ATOM     15  H   UNL     1       5.074   2.676  17.879  0.00  0.00    +0.000 HD
ATOM     16  H   UNL     1       8.193   7.240  15.907  0.00  0.00    +0.000 HD
ENDROOT
BRANCH   7  17
ATOM     17  C   UNL     1       5.586   5.430  19.245  0.00  0.00    +0.000 C 
BRANCH  17  18
ATOM     18  C   UNL     1       4.256   6.178  19.393  0.00  0.00    +0.000 C 
BRANCH  18  19
ATOM     19  C   UNL     1       3.159   5.776  18.397  0.00  0.00    +0.000 C 
BRANCH  19  20
ATOM     20  C   UNL     1       2.279   4.678  18.959  0.00  0.00    +0.000 A 
ATOM     21  C   UNL     1       1.644   3.765  18.103  0.00  0.00    +0.000 A 
ATOM     22  C   UNL     1       0.814   2.765  18.618  0.00  0.00    +0.000 A 
ATOM     23  C   UNL     1       0.604   2.666  19.990  0.00  0.00    +0.000 A 
ATOM     24  C   UNL     1       1.225   3.569  20.851  0.00  0.00    +0.000 A 
ATOM     25  C   UNL     1       2.058   4.569  20.340  0.00  0.00    +0.000 A 
ENDBRANCH  19  20
ENDBRANCH  18  19
ENDBRANCH  17  18
ENDBRANCH   7  17
TORSDOF 4
ENDMDL
MODEL 3
REMARK VINA RESULT:      -7.7      3.050      6.599
REMARK  Name = 
REMARK  4 active torsions:
REMARK  status: ('A' for Active; 'I' for Inactive)
REMARK    1  A    between atoms: C_7  and  C_8
REMARK    2  A    between atoms: C_8  and  C_9
REMARK    3  A    between atoms: C_9  and  C_10
REMARK    4  A    between atoms: C_10  and  C_11
REMARK                            x       y       z     vdW  Elec       q    Type
REMARK                         _______ _______ _______ _____ _____    ______ ____
ROOT
ATOM      1  N   UNL     1       6.792   3.656  12.993  0.00  0.00    +0.000 N 
ATOM      2  C   UNL     1       6.454   4.206  14.215  0.00  0.00    +0.000 A 
ATOM      3  N   UNL     1       5.372   3.698  14.822  0.00  0.00    +0.000 NA
ATOM      4  C   UNL     1       5.005   4.168  16.034  0.00  0.00    +0.000 A 
ATOM      5  N   UNL     1       3.873   3.571  16.585  0.00  0.00    +0.000 N 
ATOM      6  C   UNL     1       5.773   5.175  16.646  0.00  0.00    +0.000 A 
ATOM      7  C   UNL     1       5.767   5.966  17.851  0.00  0.00    +0.000 A 
ATOM      8  C   UNL     1       6.849   6.831  17.759  0.00  0.00    +0.000 A 
ATOM      9  N   UNL     1       7.511   6.580  16.592  0.00  0.00    +0.000 N 
ATOM     10  C   UNL     1       6.870   5.590  15.901  0.00  0.00    +0.000 A 
ATOM     11  N   UNL     1       7.267   5.144  14.704  0.00  0.00    +0.000 NA
ATOM     12  H   UNL     1       6.390   2.733  12.921  0.00  0.00    +0.000 HD
ATOM     13  H   UNL     1       7.787   3.742  12.845  0.00  0.00    +0.000 HD
ATOM     14  H   UNL     1       3.620   2.788  15.986  0.00  0.00    +0.000 HD
ATOM     15  H   UNL     1       3.995   3.325  17.557  0.00  0.00    +0.000 HD
ATOM     16  H   UNL     1       8.326   7.063  16.246  0.00  0.00    +0.000 HD
ENDROOT
BRANCH   7  17
ATOM     17  C   UNL     1       4.779   5.985  18.980  0.00  0.00    +0.000 C 
BRANCH  17  18
ATOM     18  C   UNL     1       3.406   6.580  18.653  0.00  0.00    +0.000 C 
BRANCH  18  19
ATOM     19  C   UNL     1       2.360   6.482  19.772  0.00  0.00    +0.000 C 
BRANCH  19  20
ATOM     20  C   UNL     1       1.990   5.040  20.055  0.00  0.00    +0.000 A 
ATOM     21  C   UNL     1       2.270   4.465  21.305  0.00  0.00    +0.000 A 
ATOM     22  C   UNL     1       1.950   3.129  21.561  0.00  0.00    +0.000 A 
ATOM     23  C   UNL     1       1.353   2.350  20.575  0.00  0.00    +0.000 A 
ATOM     24  C   UNL     1       1.074   2.906  19.328  0.00  0.00    +0.000 A 
ATOM     25  C   UNL     1       1.390   4.244  19.069  0.00  0.00    +0.000 A 
ENDBRANCH  19  20
ENDBRANCH  18  19
ENDBRANCH  17  18
ENDBRANCH   7  17
TORSDOF 4
ENDMDL
MODEL 4
REMARK VINA RESULT:      -7.6      3.412      5.037
REMARK  Name = 
REMARK  4 active torsions:
REMARK  status: ('A' for Active; 'I' for Inactive)
REMARK    1  A    between atoms: C_7  and  C_8
REMARK    2  A    between atoms: C_8  and  C_9
REMARK    3  A    between atoms: C_9  and  C_10
REMARK    4  A    between atoms: C_10  and  C_11
REMARK                            x       y       z     vdW  Elec       q    Type
REMARK                         _______ _______ _______ _____ _____    ______ ____
ROOT
ATOM      1  N   UNL     1       2.721   3.093  18.979  0.00  0.00    +0.000 N 
ATOM      2  C   UNL     1       3.718   3.990  18.647  0.00  0.00    +0.000 A 
ATOM      3  N   UNL     1       3.322   5.215  18.274  0.00  0.00    +0.000 NA
ATOM      4  C   UNL     1       4.247   6.151  17.969  0.00  0.00    +0.000 A 
ATOM      5  N   UNL     1       3.737   7.394  17.601  0.00  0.00    +0.000 N 
ATOM      6  C   UNL     1       5.614   5.827  18.059  0.00  0.00    +0.000 A 
ATOM      7  C   UNL     1       6.894   6.445  17.827  0.00  0.00    +0.000 A 
ATOM      8  C   UNL     1       7.852   5.475  18.090  0.00  0.00    +0.000 A 
ATOM      9  N   UNL     1       7.219   4.335  18.493  0.00  0.00    +0.000 N 
ATOM     10  C   UNL     1       5.866   4.525  18.471  0.00  0.00    +0.000 A 
ATOM     11  N   UNL     1       4.978   3.576  18.788  0.00  0.00    +0.000 NA
ATOM     12  H   UNL     1       1.885   3.602  19.229  0.00  0.00    +0.000 HD
ATOM     13  H   UNL     1       3.074   2.422  19.645  0.00  0.00    +0.000 HD
ATOM     14  H   UNL     1       2.733   7.371  17.764  0.00  0.00    +0.000 HD
ATOM     15  H   UNL     1       4.211   8.161  18.056  0.00  0.00    +0.000 HD
ATOM     16  H   UNL     1       7.656   3.458  18.736  0.00  0.00    +0.000 HD
ENDROOT
BRANCH   7  17
ATOM     17  C   UNL     1       7.218   7.817  17.313  0.00  0.00    +0.000 C 
BRANCH  17  18
ATOM     18  C   UNL     1       8.244   8.608  18.132  0.00  0.00    +0.000 C 
BRANCH  18  19
ATOM     19  C   UNL     1       8.315  10.111  17.825  0.00  0.00    +0.000 C 
BRANCH  19  20
ATOM     20  C   UNL     1       9.448  10.775  18.581  0.00  0.00    +0.000 A 
ATOM     21  C   UNL     1       9.382  10.925  19.975  0.00  0.00    +0.000 A 
ATOM     22  C   UNL     1      10.415  11.557  20.673  0.00  0.00    +0.000 A 
ATOM     23  C   UNL     1      11.522  12.050  19.989  0.00  0.00    +0.000 A 
ATOM     24  C   UNL     1      11.599  11.913  18.605  0.00  0.00    +0.000 A 
ATOM     25  C   UNL     1      10.568  11.279  17.904  0.00  0.00    +0.000 A 
ENDBRANCH  19  20
ENDBRANCH  18  19
ENDBRANCH  17  18
ENDBRANCH   7  17
TORSDOF 4
ENDMDL
MODEL 5
REMARK VINA RESULT:      -7.5      1.723      3.711
REMARK  Name = 
REMARK  4 active torsions:
REMARK  status: ('A' for Active; 'I' for Inactive)
REMARK    1  A    between atoms: C_7  and  C_8
REMARK    2  A    between atoms: C_8  and  C_9
REMARK    3  A    between atoms: C_9  and  C_10
REMARK    4  A    between atoms: C_10  and  C_11
REMARK                            x       y       z     vdW  Elec       q    Type
REMARK                         _______ _______ _______ _____ _____    ______ ____
ROOT
ATOM      1  N   UNL     1       1.413   2.505  22.319  0.00  0.00    +0.000 N 
ATOM      2  C   UNL     1       1.999   3.104  21.220  0.00  0.00    +0.000 A 
ATOM      3  N   UNL     1       2.334   2.295  20.204  0.00  0.00    +0.000 NA
ATOM      4  C   UNL     1       2.880   2.820  19.086  0.00  0.00    +0.000 A 
ATOM      5  N   UNL     1       3.186   1.900  18.086  0.00  0.00    +0.000 N 
ATOM      6  C   UNL     1       3.078   4.210  19.000  0.00  0.00    +0.000 A 
ATOM      7  C   UNL     1       3.617   5.176  18.077  0.00  0.00    +0.000 A 
ATOM      8  C   UNL     1       3.525   6.413  18.703  0.00  0.00    +0.000 A 
ATOM      9  N   UNL     1       2.937   6.241  19.923  0.00  0.00    +0.000 N 
ATOM     10  C   UNL     1       2.670   4.916  20.125  0.00  0.00    +0.000 A 
ATOM     11  N   UNL     1       2.119   4.433  21.244  0.00  0.00    +0.000 NA
ATOM     12  H   UNL     1       1.009   1.623  22.041  0.00  0.00    +0.000 HD
ATOM     13  H   UNL     1       0.810   3.167  22.785  0.00  0.00    +0.000 HD
ATOM     14  H   UNL     1       2.805   1.001  18.372  0.00  0.00    +0.000 HD
ATOM     15  H   UNL     1       2.884   2.203  17.171  0.00  0.00    +0.000 HD
ATOM     16  H   UNL     1       2.755   6.958  20.610  0.00  0.00    +0.000 HD
ENDROOT
BRANCH   7  17
ATOM     17  C   UNL     1       4.255   4.969  16.735  0.00  0.00    +0.000 C 
BRANCH  17  18
ATOM     18  C   UNL     1       5.621   4.274  16.749  0.00  0.00    +0.000 C 
BRANCH  18  19
ATOM     19  C   UNL     1       6.757   5.041  16.057  0.00  0.00    +0.000 C 
BRANCH  19  20
ATOM     20  C   UNL     1       6.828   4.707  14.581  0.00  0.00    +0.000 A 
ATOM     21  C   UNL     1       7.716   5.392  13.737  0.00  0.00    +0.000 A 
ATOM     22  C   UNL     1       7.767   5.102  12.371  0.00  0.00    +0.000 A 
ATOM     23  C   UNL     1       6.931   4.130  11.829  0.00  0.00    +0.000 A 
ATOM     24  C   UNL     1       6.041   3.445  12.654  0.00  0.00    +0.000 A 
ATOM     25  C   UNL     1       5.989   3.731  14.022  0.00  0.00    +0.000 A 
ENDBRANCH  19  20
ENDBRANCH  18  19
ENDBRANCH  17  18
ENDBRANCH   7  17
TORSDOF 4
ENDMDL
MODEL 6
REMARK VINA RESULT:      -7.5      2.186      3.917
REMARK  Name = 
REMARK  4 active torsions:
REMARK  status: ('A' for Active; 'I' for Inactive)
REMARK    1  A    between atoms: C_7  and  C_8
REMARK    2  A    between atoms: C_8  and  C_9
REMARK    3  A    between atoms: C_9  and  C_10
REMARK    4  A    between atoms: C_10  and  C_11
REMARK                            x       y       z     vdW  Elec       q    Type
REMARK                         _______ _______ _______ _____ _____    ______ ____
ROOT
ATOM      1  N   UNL     1       0.705   2.775  19.782  0.00  0.00    +0.000 N 
ATOM      2  C   UNL     1       1.792   3.532  19.387  0.00  0.00    +0.000 A 
ATOM      3  N   UNL     1       3.001   2.983  19.567  0.00  0.00    +0.000 NA
ATOM      4  C   UNL     1       4.104   3.656  19.172  0.00  0.00    +0.000 A 
ATOM      5  N   UNL     1       5.313   3.000  19.394  0.00  0.00    +0.000 N 
ATOM      6  C   UNL     1       3.964   4.918  18.567  0.00  0.00    +0.000 A 
ATOM      7  C   UNL     1       4.797   5.966  18.032  0.00  0.00    +0.000 A 
ATOM      8  C   UNL     1       3.940   6.981  17.628  0.00  0.00    +0.000 A 
ATOM      9  N   UNL     1       2.654   6.586  17.862  0.00  0.00    +0.000 N 
ATOM     10  C   UNL     1       2.649   5.347  18.437  0.00  0.00    +0.000 A 
ATOM     11  N   UNL     1       1.535   4.707  18.808  0.00  0.00    +0.000 NA
ATOM     12  H   UNL     1       0.971   1.801  19.810  0.00  0.00    +0.000 HD
ATOM     13  H   UNL     1      -0.101   3.021  19.226  0.00  0.00    +0.000 HD
ATOM     14  H   UNL     1       5.093   2.057  19.711  0.00  0.00    +0.000 HD
ATOM     15  H   UNL     1       5.929   3.033  18.595  0.00  0.00    +0.000 HD
ATOM     16  H   UNL     1       1.818   7.123  17.685  0.00  0.00    +0.000 HD
ENDROOT
BRANCH   7  17
ATOM     17  C   UNL     1       6.292   6.066  17.973  0.00  0.00    +0.000 C 
BRANCH  17  18
ATOM     18  C   UNL     1       6.948   5.477  16.719  0.00  0.00    +0.000 C 
BRANCH  18  19
ATOM     19  C   UNL     1       6.133   4.396  15.994  0.00  0.00    +0.000 C 
BRANCH  19  20
ATOM     20  C   UNL     1       6.475   4.345  14.519  0.00  0.00    +0.000 A 
ATOM     21  C   UNL     1       7.501   5.148  13.997  0.00  0.00    +0.000 A 
ATOM     22  C   UNL     1       7.803   5.120  12.633  0.00  0.00    +0.000 A 
ATOM     23  C   UNL     1       7.085   4.294  11.773  0.00  0.00    +0.000 A 
ATOM     24  C   UNL     1       6.061   3.495  12.276  0.00  0.00    +0.000 A 
ATOM     25  C   UNL     1       5.757   3.519  13.641  0.00  0.00    +0.000 A 
ENDBRANCH  19  20
ENDBRANCH  18  19
ENDBRANCH  17  18
ENDBRANCH   7  17
TORSDOF 4
ENDMDL
MODEL 7
REMARK VINA RESULT:      -7.4      1.958      3.644
REMARK  Name = 
REMARK  4 active torsions:
REMARK  status: ('A' for Active; 'I' for Inactive)
REMARK    1  A    between atoms: C_7  and  C_8
REMARK    2  A    between atoms: C_8  and  C_9
REMARK    3  A    between atoms: C_9  and  C_10
REMARK    4  A    between atoms: C_10  and  C_11
REMARK                            x       y       z     vdW  Elec       q    Type
REMARK                         _______ _______ _______ _____ _____    ______ ____
ROOT
ATOM      1  N   UNL     1       1.023   2.510  22.084  0.00  0.00    +0.000 N 
ATOM      2  C   UNL     1       1.908   3.067  21.180  0.00  0.00    +0.000 A 
ATOM      3  N   UNL     1       3.043   2.390  20.958  0.00  0.00    +0.000 NA
ATOM      4  C   UNL     1       3.937   2.862  20.062  0.00  0.00    +0.000 A 
ATOM      5  N   UNL     1       5.080   2.085  19.896  0.00  0.00    +0.000 N 
ATOM      6  C   UNL     1       3.654   4.052  19.366  0.00  0.00    +0.000 A 
ATOM      7  C   UNL     1       4.272   4.912  18.388  0.00  0.00    +0.000 A 
ATOM      8  C   UNL     1       3.401   5.976  18.194  0.00  0.00    +0.000 A 
ATOM      9  N   UNL     1       2.295   5.782  18.972  0.00  0.00    +0.000 N 
ATOM     10  C   UNL     1       2.434   4.631  19.694  0.00  0.00    +0.000 A 
ATOM     11  N   UNL     1       1.524   4.189  20.568  0.00  0.00    +0.000 NA
ATOM     12  H   UNL     1       1.206   1.520  22.161  0.00  0.00    +0.000 HD
ATOM     13  H   UNL     1       0.081   2.792  21.856  0.00  0.00    +0.000 HD
ATOM     14  H   UNL     1       4.941   1.223  20.419  0.00  0.00    +0.000 HD
ATOM     15  H   UNL     1       5.319   1.943  18.925  0.00  0.00    +0.000 HD
ATOM     16  H   UNL     1       1.501   6.399  19.052  0.00  0.00    +0.000 HD
ENDROOT
BRANCH   7  17
ATOM     17  C   UNL     1       5.617   4.808  17.733  0.00  0.00    +0.000 C 
BRANCH  17  18
ATOM     18  C   UNL     1       5.819   5.677  16.487  0.00  0.00    +0.000 C 
BRANCH  18  19
ATOM     19  C   UNL     1       7.125   5.433  15.717  0.00  0.00    +0.000 C 
BRANCH  19  20
ATOM     20  C   UNL     1       6.855   4.828  14.354  0.00  0.00    +0.000 A 
ATOM     21  C   UNL     1       5.758   3.976  14.157  0.00  0.00    +0.000 A 
ATOM     22  C   UNL     1       5.520   3.398  12.907  0.00  0.00    +0.000 A 
ATOM     23  C   UNL     1       6.375   3.660  11.840  0.00  0.00    +0.000 A 
ATOM     24  C   UNL     1       7.471   4.501  12.023  0.00  0.00    +0.000 A 
ATOM     25  C   UNL     1       7.711   5.082  13.272  0.00  0.00    +0.000 A 
ENDBRANCH  19  20
ENDBRANCH  18  19
ENDBRANCH  17  18
ENDBRANCH   7  17
TORSDOF 4
ENDMDL
MODEL 8
REMARK VINA RESULT:      -7.4      1.803      3.251
REMARK  Name = 
REMARK  4 active torsions:
REMARK  status: ('A' for Active; 'I' for Inactive)
REMARK    1  A    between atoms: C_7  and  C_8
REMARK    2  A    between atoms: C_8  and  C_9
REMARK    3  A    between atoms: C_9  and  C_10
REMARK    4  A    between atoms: C_10  and  C_11
REMARK                            x       y       z     vdW  Elec       q    Type
REMARK                         _______ _______ _______ _____ _____    ______ ____
ROOT
ATOM      1  N   UNL     1       1.104   2.567  21.883  0.00  0.00    +0.000 N 
ATOM      2  C   UNL     1       1.857   3.220  20.925  0.00  0.00    +0.000 A 
ATOM      3  N   UNL     1       1.894   4.557  21.001  0.00  0.00    +0.000 NA
ATOM      4  C   UNL     1       2.638   5.255  20.116  0.00  0.00    +0.000 A 
ATOM      5  N   UNL     1       2.618   6.638  20.282  0.00  0.00    +0.000 N 
ATOM      6  C   UNL     1       3.373   4.564  19.135  0.00  0.00    +0.000 A 
ATOM      7  C   UNL     1       4.242   4.855  18.022  0.00  0.00    +0.000 A 
ATOM      8  C   UNL     1       4.574   3.632  17.454  0.00  0.00    +0.000 A 
ATOM      9  N   UNL     1       3.982   2.639  18.179  0.00  0.00    +0.000 N 
ATOM     10  C   UNL     1       3.244   3.182  19.192  0.00  0.00    +0.000 A 
ATOM     11  N   UNL     1       2.525   2.459  20.056  0.00  0.00    +0.000 NA
ATOM     12  H   UNL     1       0.996   3.168  22.687  0.00  0.00    +0.000 HD
ATOM     13  H   UNL     1       1.479   1.643  22.040  0.00  0.00    +0.000 HD
ATOM     14  H   UNL     1       2.122   6.834  21.148  0.00  0.00    +0.000 HD
ATOM     15  H   UNL     1       3.538   7.051  20.232  0.00  0.00    +0.000 HD
ATOM     16  H   UNL     1       4.030   1.648  17.993  0.00  0.00    +0.000 HD
ENDROOT
BRANCH   7  17
ATOM     17  C   UNL     1       4.674   6.178  17.463  0.00  0.00    +0.000 C 
BRANCH  17  18
ATOM     18  C   UNL     1       5.179   6.155  16.017  0.00  0.00    +0.000 C 
BRANCH  18  19
ATOM     19  C   UNL     1       6.534   5.465  15.802  0.00  0.00    +0.000 C 
BRANCH  19  20
ATOM     20  C   UNL     1       6.632   4.864  14.414  0.00  0.00    +0.000 A 
ATOM     21  C   UNL     1       7.612   5.309  13.513  0.00  0.00    +0.000 A 
ATOM     22  C   UNL     1       7.691   4.773  12.225  0.00  0.00    +0.000 A 
ATOM     23  C   UNL     1       6.792   3.791  11.818  0.00  0.00    +0.000 A 
ATOM     24  C   UNL     1       5.811   3.344  12.701  0.00  0.00    +0.000 A 
ATOM     25  C   UNL     1       5.730   3.876  13.991  0.00  0.00    +0.000 A 
ENDBRANCH  19  20
ENDBRANCH  18  19
ENDBRANCH  17  18
ENDBRANCH   7  17
TORSDOF 4
ENDMDL
MODEL 9
REMARK VINA RESULT:      -7.4      1.960      3.632
REMARK  Name = 
REMARK  4 active torsions:
REMARK  status: ('A' for Active; 'I' for Inactive)
REMARK    1  A    between atoms: C_7  and  C_8
REMARK    2  A    between atoms: C_8  and  C_9
REMARK    3  A    between atoms: C_9  and  C_10
REMARK    4  A    between atoms: C_10  and  C_11
REMARK                            x       y       z     vdW  Elec       q    Type
REMARK                         _______ _______ _______ _____ _____    ______ ____
ROOT
ATOM      1  N   UNL     1       1.047   2.513  22.296  0.00  0.00    +0.000 N 
ATOM      2  C   UNL     1       1.844   2.989  21.272  0.00  0.00    +0.000 A 
ATOM      3  N   UNL     1       3.025   2.381  21.100  0.00  0.00    +0.000 NA
ATOM      4  C   UNL     1       3.838   2.774  20.096  0.00  0.00    +0.000 A 
ATOM      5  N   UNL     1       5.039   2.077  19.994  0.00  0.00    +0.000 N 
ATOM      6  C   UNL     1       3.425   3.810  19.238  0.00  0.00    +0.000 A 
ATOM      7  C   UNL     1       3.926   4.550  18.107  0.00  0.00    +0.000 A 
ATOM      8  C   UNL     1       2.957   5.495  17.795  0.00  0.00    +0.000 A 
ATOM      9  N   UNL     1       1.903   5.338  18.649  0.00  0.00    +0.000 N 
ATOM     10  C   UNL     1       2.172   4.332  19.535  0.00  0.00    +0.000 A 
ATOM     11  N   UNL     1       1.338   3.963  20.513  0.00  0.00    +0.000 NA
ATOM     12  H   UNL     1       1.320   1.567  22.518  0.00  0.00    +0.000 HD
ATOM     13  H   UNL     1       0.076   2.677  22.077  0.00  0.00    +0.000 HD
ATOM     14  H   UNL     1       4.997   1.301  20.652  0.00  0.00    +0.000 HD
ATOM     15  H   UNL     1       5.253   1.802  19.046  0.00  0.00    +0.000 HD
ATOM     16  H   UNL     1       1.061   5.893  18.674  0.00  0.00    +0.000 HD
ENDROOT
BRANCH   7  17
ATOM     17  C   UNL     1       5.249   4.453  17.408  0.00  0.00    +0.000 C 
BRANCH  17  18
ATOM     18  C   UNL     1       5.580   5.602  16.449  0.00  0.00    +0.000 C 
BRANCH  18  19
ATOM     19  C   UNL     1       6.923   5.482  15.714  0.00  0.00    +0.000 C 
BRANCH  19  20
ATOM     20  C   UNL     1       6.755   4.817  14.364  0.00  0.00    +0.000 A 
ATOM     21  C   UNL     1       7.669   5.066  13.328  0.00  0.00    +0.000 A 
ATOM     22  C   UNL     1       7.504   4.472  12.074  0.00  0.00    +0.000 A 
ATOM     23  C   UNL     1       6.425   3.626  11.837  0.00  0.00    +0.000 A 
ATOM     24  C   UNL     1       5.507   3.373  12.854  0.00  0.00    +0.000 A 
ATOM     25  C   UNL     1       5.670   3.964  14.111  0.00  0.00    +0.000 A 
ENDBRANCH  19  20
ENDBRANCH  18  19
ENDBRANCH  17  18
ENDBRANCH   7  17
TORSDOF 4
ENDMDL
