MODEL 1
REMARK VINA RESULT:      -9.0      0.000      0.000
REMARK  Name = 
REMARK  9 active torsions:
REMARK  status: ('A' for Active; 'I' for Inactive)
REMARK    1  A    between atoms: C_1  and  C_2
REMARK    2  A    between atoms: C_5  and  C_6
REMARK    3  A    between atoms: C_11  and  C_12
REMARK    4  A    between atoms: C_12  and  C_13
REMARK    5  A    between atoms: C_12  and  C_14
REMARK    6  A    between atoms: C_16  and  N_17
REMARK    7  A    between atoms: N_17  and  C_18
REMARK    8  A    between atoms: C_18  and  C_19
REMARK    9  A    between atoms: C_22  and  C_23
REMARK                            x       y       z     vdW  Elec       q    Type
REMARK                         _______ _______ _______ _____ _____    ______ ____
ROOT
ATOM      1  C   UNL     1       2.243   4.149  21.454  0.00  0.00    +0.000 C 
ATOM      2  C   UNL     1       2.913   4.297  20.125  0.00  0.00    +0.000 A 
ATOM      3  C   UNL     1       3.593   3.245  19.551  0.00  0.00    +0.000 A 
ATOM      4  N   UNL     1       4.285   3.338  18.404  0.00  0.00    +0.000 NA
ATOM      5  C   UNL     1       4.308   4.547  17.809  0.00  0.00    +0.000 A 
ATOM      6  N   UNL     1       3.670   5.627  18.289  0.00  0.00    +0.000 NA
ATOM      7  C   UNL     1       2.980   5.501  19.437  0.00  0.00    +0.000 A 
ENDROOT
BRANCH   5   8
ATOM      8  C   UNL     1       5.287   4.730  16.706  0.00  0.00    +0.000 A 
ATOM      9  C   UNL     1       5.040   4.009  15.507  0.00  0.00    +0.000 A 
ATOM     10  C   UNL     1       5.913   4.025  14.422  0.00  0.00    +0.000 A 
ATOM     11  C   UNL     1       7.074   4.768  14.502  0.00  0.00    +0.000 A 
ATOM     12  C   UNL     1       7.353   5.503  15.653  0.00  0.00    +0.000 A 
ATOM     13  C   UNL     1       6.474   5.517  16.763  0.00  0.00    +0.000 A 
BRANCH  13  14
ATOM     14  C   UNL     1       6.864   6.355  17.984  0.00  0.00    +0.000 C 
ATOM     15  C   UNL     1       7.723   5.525  18.942  0.00  0.00    +0.000 C 
ATOM     16  C   UNL     1       7.632   7.649  17.657  0.00  0.00    +0.000 C 
ENDBRANCH  13  14
ENDBRANCH   5   8
BRANCH   7  17
ATOM     17  N   UNL     1       2.394   6.632  20.014  0.00  0.00    +0.000 N 
ATOM     18  H   UNL     1       1.581   6.391  20.570  0.00  0.00    +0.000 HD
BRANCH  17  19
ATOM     19  C   UNL     1       2.167   7.768  19.132  0.00  0.00    +0.000 C 
BRANCH  19  20
ATOM     20  C   UNL     1       1.391   8.825  19.882  0.00  0.00    +0.000 A 
ATOM     21  C   UNL     1       1.132   8.652  21.245  0.00  0.00    +0.000 A 
ATOM     22  C   UNL     1       0.441   9.621  21.971  0.00  0.00    +0.000 A 
ATOM     23  C   UNL     1       0.007  10.814  21.370  0.00  0.00    +0.000 A 
ATOM     24  C   UNL     1       0.297  10.985  19.999  0.00  0.00    +0.000 A 
ATOM     25  C   UNL     1       0.972  10.006  19.263  0.00  0.00    +0.000 A 
BRANCH  23  26
ATOM     26  C   UNL     1      -0.720  11.833  22.154  0.00  0.00    +0.000 A 
ATOM     27  C   UNL     1      -1.834  11.510  22.948  0.00  0.00    +0.000 A 
ATOM     28  C   UNL     1      -2.520  12.497  23.653  0.00  0.00    +0.000 A 
ATOM     29  C   UNL     1      -2.069  13.800  23.563  0.00  0.00    +0.000 A 
ATOM     30  N   UNL     1      -1.003  14.169  22.826  0.00  0.00    +0.000 NA
ATOM     31  C   UNL     1      -0.365  13.184  22.143  0.00  0.00    +0.000 A 
ENDBRANCH  23  26
ENDBRANCH  19  20
ENDBRANCH  17  19
ENDBRANCH   7  17
TORSDOF 6
ENDMDL
MODEL 2
REMARK VINA RESULT:      -8.5      1.372      1.683
REMARK  Name = 
REMARK  9 active torsions:
REMARK  status: ('A' for Active; 'I' for Inactive)
REMARK    1  A    between atoms: C_1  and  C_2
REMARK    2  A    between atoms: C_5  and  C_6
REMARK    3  A    between atoms: C_11  and  C_12
REMARK    4  A    between atoms: C_12  and  C_13
REMARK    5  A    between atoms: C_12  and  C_14
REMARK    6  A    between atoms: C_16  and  N_17
REMARK    7  A    between atoms: N_17  and  C_18
REMARK    8  A    between atoms: C_18  and  C_19
REMARK    9  A    between atoms: C_22  and  C_23
REMARK                            x       y       z     vdW  Elec       q    Type
REMARK                         _______ _______ _______ _____ _____    ______ ____
ROOT
ATOM      1  C   UNL     1       1.558   5.381  20.840  0.00  0.00    +0.000 C 
ATOM      2  C   UNL     1       2.381   5.322  19.592  0.00  0.00    +0.000 A 
ATOM      3  C   UNL     1       2.902   4.129  19.142  0.00  0.00    +0.000 A 
ATOM      4  N   UNL     1       3.717   4.023  18.080  0.00  0.00    +0.000 NA
ATOM      5  C   UNL     1       4.035   5.168  17.445  0.00  0.00    +0.000 A 
ATOM      6  N   UNL     1       3.571   6.376  17.807  0.00  0.00    +0.000 NA
ATOM      7  C   UNL     1       2.752   6.449  18.872  0.00  0.00    +0.000 A 
ENDROOT
BRANCH   5   8
ATOM      8  C   UNL     1       5.143   5.100  16.457  0.00  0.00    +0.000 A 
ATOM      9  C   UNL     1       4.897   4.351  15.275  0.00  0.00    +0.000 A 
ATOM     10  C   UNL     1       5.868   4.138  14.300  0.00  0.00    +0.000 A 
ATOM     11  C   UNL     1       7.131   4.669  14.478  0.00  0.00    +0.000 A 
ATOM     12  C   UNL     1       7.415   5.422  15.616  0.00  0.00    +0.000 A 
ATOM     13  C   UNL     1       6.441   5.668  16.614  0.00  0.00    +0.000 A 
BRANCH  13  14
ATOM     14  C   UNL     1       6.845   6.507  17.829  0.00  0.00    +0.000 C 
ATOM     15  C   UNL     1       7.629   5.650  18.826  0.00  0.00    +0.000 C 
ATOM     16  C   UNL     1       7.694   7.749  17.498  0.00  0.00    +0.000 C 
ENDBRANCH  13  14
ENDBRANCH   5   8
BRANCH   7  17
ATOM     17  N   UNL     1       2.337   7.702  19.334  0.00  0.00    +0.000 N 
ATOM     18  H   UNL     1       1.770   7.624  20.171  0.00  0.00    +0.000 HD
BRANCH  17  19
ATOM     19  C   UNL     1       1.771   8.606  18.343  0.00  0.00    +0.000 C 
BRANCH  19  20
ATOM     20  C   UNL     1       0.828   9.564  19.032  0.00  0.00    +0.000 A 
ATOM     21  C   UNL     1      -0.139  10.238  18.280  0.00  0.00    +0.000 A 
ATOM     22  C   UNL     1      -1.041  11.110  18.889  0.00  0.00    +0.000 A 
ATOM     23  C   UNL     1      -1.030  11.318  20.278  0.00  0.00    +0.000 A 
ATOM     24  C   UNL     1      -0.064  10.612  21.027  0.00  0.00    +0.000 A 
ATOM     25  C   UNL     1       0.855   9.753  20.416  0.00  0.00    +0.000 A 
BRANCH  23  26
ATOM     26  C   UNL     1      -1.995  12.241  20.910  0.00  0.00    +0.000 A 
ATOM     27  C   UNL     1      -1.812  12.737  22.212  0.00  0.00    +0.000 A 
ATOM     28  C   UNL     1      -2.755  13.582  22.795  0.00  0.00    +0.000 A 
ATOM     29  C   UNL     1      -3.868  13.930  22.055  0.00  0.00    +0.000 A 
ATOM     30  N   UNL     1      -4.095  13.493  20.801  0.00  0.00    +0.000 NA
ATOM     31  C   UNL     1      -3.162  12.663  20.268  0.00  0.00    +0.000 A 
ENDBRANCH  23  26
ENDBRANCH  19  20
ENDBRANCH  17  19
ENDBRANCH   7  17
TORSDOF 6
ENDMDL
MODEL 3
REMARK VINA RESULT:      -8.4      3.341      4.484
REMARK  Name = 
REMARK  9 active torsions:
REMARK  status: ('A' for Active; 'I' for Inactive)
REMARK    1  A    between atoms: C_1  and  C_2
REMARK    2  A    between atoms: C_5  and  C_6
REMARK    3  A    between atoms: C_11  and  C_12
REMARK    4  A    between atoms: C_12  and  C_13
REMARK    5  A    between atoms: C_12  and  C_14
REMARK    6  A    between atoms: C_16  and  N_17
REMARK    7  A    between atoms: N_17  and  C_18
REMARK    8  A    between atoms: C_18  and  C_19
REMARK    9  A    between atoms: C_22  and  C_23
REMARK                            x       y       z     vdW  Elec       q    Type
REMARK                         _______ _______ _______ _____ _____    ______ ____
ROOT
ATOM      1  C   UNL     1       0.735   8.507  21.780  0.00  0.00    +0.000 C 
ATOM      2  C   UNL     1       1.384   7.759  20.658  0.00  0.00    +0.000 A 
ATOM      3  C   UNL     1       1.831   6.468  20.831  0.00  0.00    +0.000 A 
ATOM      4  N   UNL     1       2.496   5.775  19.893  0.00  0.00    +0.000 NA
ATOM      5  C   UNL     1       2.736   6.410  18.729  0.00  0.00    +0.000 A 
ATOM      6  N   UNL     1       2.332   7.665  18.467  0.00  0.00    +0.000 NA
ATOM      7  C   UNL     1       1.663   8.331  19.425  0.00  0.00    +0.000 A 
ENDROOT
BRANCH   5   8
ATOM      8  C   UNL     1       3.701   5.765  17.801  0.00  0.00    +0.000 A 
ATOM      9  C   UNL     1       4.436   6.628  16.945  0.00  0.00    +0.000 A 
ATOM     10  C   UNL     1       5.316   6.158  15.974  0.00  0.00    +0.000 A 
ATOM     11  C   UNL     1       5.491   4.796  15.824  0.00  0.00    +0.000 A 
ATOM     12  C   UNL     1       4.801   3.911  16.651  0.00  0.00    +0.000 A 
ATOM     13  C   UNL     1       3.913   4.363  17.657  0.00  0.00    +0.000 A 
BRANCH  13  14
ATOM     14  C   UNL     1       3.200   3.317  18.517  0.00  0.00    +0.000 C 
ATOM     15  C   UNL     1       2.486   2.297  17.626  0.00  0.00    +0.000 C 
ATOM     16  C   UNL     1       4.119   2.544  19.482  0.00  0.00    +0.000 C 
ENDBRANCH  13  14
ENDBRANCH   5   8
BRANCH   7  17
ATOM     17  N   UNL     1       1.323   9.672  19.219  0.00  0.00    +0.000 N 
ATOM     18  H   UNL     1       0.789  10.047  19.995  0.00  0.00    +0.000 HD
BRANCH  17  19
ATOM     19  C   UNL     1       0.756  10.006  17.921  0.00  0.00    +0.000 C 
BRANCH  19  20
ATOM     20  C   UNL     1      -0.657  10.505  18.116  0.00  0.00    +0.000 A 
ATOM     21  C   UNL     1      -1.696   9.942  17.368  0.00  0.00    +0.000 A 
ATOM     22  C   UNL     1      -3.013  10.363  17.542  0.00  0.00    +0.000 A 
ATOM     23  C   UNL     1      -3.348  11.343  18.491  0.00  0.00    +0.000 A 
ATOM     24  C   UNL     1      -2.293  11.886  19.254  0.00  0.00    +0.000 A 
ATOM     25  C   UNL     1      -0.967  11.481  19.068  0.00  0.00    +0.000 A 
BRANCH  23  26
ATOM     26  C   UNL     1      -4.750  11.774  18.667  0.00  0.00    +0.000 A 
ATOM     27  C   UNL     1      -5.186  12.440  19.825  0.00  0.00    +0.000 A 
ATOM     28  C   UNL     1      -6.522  12.808  19.978  0.00  0.00    +0.000 A 
ATOM     29  C   UNL     1      -7.404  12.514  18.956  0.00  0.00    +0.000 A 
ATOM     30  N   UNL     1      -7.043  11.886  17.820  0.00  0.00    +0.000 NA
ATOM     31  C   UNL     1      -5.737  11.532  17.708  0.00  0.00    +0.000 A 
ENDBRANCH  23  26
ENDBRANCH  19  20
ENDBRANCH  17  19
ENDBRANCH   7  17
TORSDOF 6
ENDMDL
MODEL 4
REMARK VINA RESULT:      -8.4      2.071      2.540
REMARK  Name = 
REMARK  9 active torsions:
REMARK  status: ('A' for Active; 'I' for Inactive)
REMARK    1  A    between atoms: C_1  and  C_2
REMARK    2  A    between atoms: C_5  and  C_6
REMARK    3  A    between atoms: C_11  and  C_12
REMARK    4  A    between atoms: C_12  and  C_13
REMARK    5  A    between atoms: C_12  and  C_14
REMARK    6  A    between atoms: C_16  and  N_17
REMARK    7  A    between atoms: N_17  and  C_18
REMARK    8  A    between atoms: C_18  and  C_19
REMARK    9  A    between atoms: C_22  and  C_23
REMARK                            x       y       z     vdW  Elec       q    Type
REMARK                         _______ _______ _______ _____ _____    ______ ____
ROOT
ATOM      1  C   UNL     1       1.541   7.101  20.881  0.00  0.00    +0.000 C 
ATOM      2  C   UNL     1       2.352   6.645  19.709  0.00  0.00    +0.000 A 
ATOM      3  C   UNL     1       2.935   5.397  19.692  0.00  0.00    +0.000 A 
ATOM      4  N   UNL     1       3.741   4.962  18.711  0.00  0.00    +0.000 NA
ATOM      5  C   UNL     1       3.987   5.823  17.704  0.00  0.00    +0.000 A 
ATOM      6  N   UNL     1       3.459   7.056  17.631  0.00  0.00    +0.000 NA
ATOM      7  C   UNL     1       2.650   7.461  18.627  0.00  0.00    +0.000 A 
ENDROOT
BRANCH   5   8
ATOM      8  C   UNL     1       5.086   5.463  16.769  0.00  0.00    +0.000 A 
ATOM      9  C   UNL     1       4.739   4.637  15.666  0.00  0.00    +0.000 A 
ATOM     10  C   UNL     1       5.678   4.159  14.756  0.00  0.00    +0.000 A 
ATOM     11  C   UNL     1       7.008   4.493  14.921  0.00  0.00    +0.000 A 
ATOM     12  C   UNL     1       7.394   5.312  15.981  0.00  0.00    +0.000 A 
ATOM     13  C   UNL     1       6.457   5.825  16.911  0.00  0.00    +0.000 A 
BRANCH  13  14
ATOM     14  C   UNL     1       6.974   6.717  18.043  0.00  0.00    +0.000 C 
ATOM     15  C   UNL     1       7.849   5.903  19.000  0.00  0.00    +0.000 C 
ATOM     16  C   UNL     1       7.787   7.939  17.577  0.00  0.00    +0.000 C 
ENDBRANCH  13  14
ENDBRANCH   5   8
BRANCH   7  17
ATOM     17  N   UNL     1       2.170   8.775  18.630  0.00  0.00    +0.000 N 
ATOM     18  H   UNL     1       1.921   9.081  19.564  0.00  0.00    +0.000 HD
BRANCH  17  19
ATOM     19  C   UNL     1       1.161   9.100  17.633  0.00  0.00    +0.000 C 
BRANCH  19  20
ATOM     20  C   UNL     1       0.128  10.010  18.257  0.00  0.00    +0.000 A 
ATOM     21  C   UNL     1      -1.147  10.096  17.690  0.00  0.00    +0.000 A 
ATOM     22  C   UNL     1      -2.129  10.906  18.257  0.00  0.00    +0.000 A 
ATOM     23  C   UNL     1      -1.885  11.640  19.429  0.00  0.00    +0.000 A 
ATOM     24  C   UNL     1      -0.600  11.525  20.003  0.00  0.00    +0.000 A 
ATOM     25  C   UNL     1       0.394  10.729  19.426  0.00  0.00    +0.000 A 
BRANCH  23  26
ATOM     26  C   UNL     1      -2.938  12.491  20.020  0.00  0.00    +0.000 A 
ATOM     27  C   UNL     1      -2.661  13.429  21.029  0.00  0.00    +0.000 A 
ATOM     28  C   UNL     1      -3.680  14.197  21.591  0.00  0.00    +0.000 A 
ATOM     29  C   UNL     1      -4.967  14.022  21.121  0.00  0.00    +0.000 A 
ATOM     30  N   UNL     1      -5.292  13.145  20.151  0.00  0.00    +0.000 NA
ATOM     31  C   UNL     1      -4.277  12.405  19.634  0.00  0.00    +0.000 A 
ENDBRANCH  23  26
ENDBRANCH  19  20
ENDBRANCH  17  19
ENDBRANCH   7  17
TORSDOF 6
ENDMDL
MODEL 5
REMARK VINA RESULT:      -8.3      3.011     10.253
REMARK  Name = 
REMARK  9 active torsions:
REMARK  status: ('A' for Active; 'I' for Inactive)
REMARK    1  A    between atoms: C_1  and  C_2
REMARK    2  A    between atoms: C_5  and  C_6
REMARK    3  A    between atoms: C_11  and  C_12
REMARK    4  A    between atoms: C_12  and  C_13
REMARK    5  A    between atoms: C_12  and  C_14
REMARK    6  A    between atoms: C_16  and  N_17
REMARK    7  A    between atoms: N_17  and  C_18
REMARK    8  A    between atoms: C_18  and  C_19
REMARK    9  A    between atoms: C_22  and  C_23
REMARK                            x       y       z     vdW  Elec       q    Type
REMARK                         _______ _______ _______ _____ _____    ______ ____
ROOT
ATOM      1  C   UNL     1      -2.496   9.888  16.547  0.00  0.00    +0.000 C 
ATOM      2  C   UNL     1      -2.375  10.742  17.769  0.00  0.00    +0.000 A 
ATOM      3  C   UNL     1      -3.480  11.354  18.320  0.00  0.00    +0.000 A 
ATOM      4  N   UNL     1      -3.426  12.198  19.362  0.00  0.00    +0.000 NA
ATOM      5  C   UNL     1      -2.204  12.453  19.871  0.00  0.00    +0.000 A 
ATOM      6  N   UNL     1      -1.072  11.898  19.405  0.00  0.00    +0.000 NA
ATOM      7  C   UNL     1      -1.160  11.052  18.364  0.00  0.00    +0.000 A 
ENDROOT
BRANCH   5   8
ATOM      8  C   UNL     1      -2.100  13.585  20.828  0.00  0.00    +0.000 A 
ATOM      9  C   UNL     1      -1.620  14.817  20.308  0.00  0.00    +0.000 A 
ATOM     10  C   UNL     1      -1.399  15.937  21.104  0.00  0.00    +0.000 A 
ATOM     11  C   UNL     1      -1.652  15.863  22.460  0.00  0.00    +0.000 A 
ATOM     12  C   UNL     1      -2.137  14.679  23.013  0.00  0.00    +0.000 A 
ATOM     13  C   UNL     1      -2.386  13.530  22.223  0.00  0.00    +0.000 A 
BRANCH  13  14
ATOM     14  C   UNL     1      -2.920  12.275  22.918  0.00  0.00    +0.000 C 
ATOM     15  C   UNL     1      -1.764  11.335  23.273  0.00  0.00    +0.000 C 
ATOM     16  C   UNL     1      -3.724  12.546  24.204  0.00  0.00    +0.000 C 
ENDBRANCH  13  14
ENDBRANCH   5   8
BRANCH   7  17
ATOM     17  N   UNL     1       0.011  10.541  17.793  0.00  0.00    +0.000 N 
ATOM     18  H   UNL     1      -0.151   9.648  17.341  0.00  0.00    +0.000 HD
BRANCH  17  19
ATOM     19  C   UNL     1       1.200  10.551  18.632  0.00  0.00    +0.000 C 
BRANCH  19  20
ATOM     20  C   UNL     1       1.542   9.130  19.016  0.00  0.00    +0.000 A 
ATOM     21  C   UNL     1       2.166   8.296  18.084  0.00  0.00    +0.000 A 
ATOM     22  C   UNL     1       2.517   6.988  18.417  0.00  0.00    +0.000 A 
ATOM     23  C   UNL     1       2.282   6.472  19.702  0.00  0.00    +0.000 A 
ATOM     24  C   UNL     1       1.673   7.334  20.639  0.00  0.00    +0.000 A 
ATOM     25  C   UNL     1       1.301   8.640  20.303  0.00  0.00    +0.000 A 
BRANCH  23  26
ATOM     26  C   UNL     1       2.664   5.086  20.039  0.00  0.00    +0.000 A 
ATOM     27  C   UNL     1       1.954   4.325  20.983  0.00  0.00    +0.000 A 
ATOM     28  C   UNL     1       2.355   3.029  21.306  0.00  0.00    +0.000 A 
ATOM     29  C   UNL     1       3.461   2.508  20.664  0.00  0.00    +0.000 A 
ATOM     30  N   UNL     1       4.177   3.185  19.746  0.00  0.00    +0.000 NA
ATOM     31  C   UNL     1       3.765   4.448  19.464  0.00  0.00    +0.000 A 
ENDBRANCH  23  26
ENDBRANCH  19  20
ENDBRANCH  17  19
ENDBRANCH   7  17
TORSDOF 6
ENDMDL
MODEL 6
REMARK VINA RESULT:      -8.2      0.824      1.442
REMARK  Name = 
REMARK  9 active torsions:
REMARK  status: ('A' for Active; 'I' for Inactive)
REMARK    1  A    between atoms: C_1  and  C_2
REMARK    2  A    between atoms: C_5  and  C_6
REMARK    3  A    between atoms: C_11  and  C_12
REMARK    4  A    between atoms: C_12  and  C_13
REMARK    5  A    between atoms: C_12  and  C_14
REMARK    6  A    between atoms: C_16  and  N_17
REMARK    7  A    between atoms: N_17  and  C_18
REMARK    8  A    between atoms: C_18  and  C_19
REMARK    9  A    between atoms: C_22  and  C_23
REMARK                            x       y       z     vdW  Elec       q    Type
REMARK                         _______ _______ _______ _____ _____    ______ ____
ROOT
ATOM      1  C   UNL     1       1.511   4.588  20.493  0.00  0.00    +0.000 C 
ATOM      2  C   UNL     1       2.365   4.704  19.271  0.00  0.00    +0.000 A 
ATOM      3  C   UNL     1       2.860   3.582  18.642  0.00  0.00    +0.000 A 
ATOM      4  N   UNL     1       3.698   3.622  17.594  0.00  0.00    +0.000 NA
ATOM      5  C   UNL     1       4.070   4.843  17.162  0.00  0.00    +0.000 A 
ATOM      6  N   UNL     1       3.634   5.991  17.707  0.00  0.00    +0.000 NA
ATOM      7  C   UNL     1       2.789   5.919  18.752  0.00  0.00    +0.000 A 
ENDROOT
BRANCH   5   8
ATOM      8  C   UNL     1       5.201   4.897  16.199  0.00  0.00    +0.000 A 
ATOM      9  C   UNL     1       5.016   4.226  14.961  0.00  0.00    +0.000 A 
ATOM     10  C   UNL     1       6.017   4.129  13.998  0.00  0.00    +0.000 A 
ATOM     11  C   UNL     1       7.249   4.703  14.245  0.00  0.00    +0.000 A 
ATOM     12  C   UNL     1       7.472   5.383  15.441  0.00  0.00    +0.000 A 
ATOM     13  C   UNL     1       6.466   5.511  16.429  0.00  0.00    +0.000 A 
BRANCH  13  14
ATOM     14  C   UNL     1       6.804   6.277  17.711  0.00  0.00    +0.000 C 
ATOM     15  C   UNL     1       7.623   5.392  18.655  0.00  0.00    +0.000 C 
ATOM     16  C   UNL     1       7.584   7.586  17.491  0.00  0.00    +0.000 C 
ENDBRANCH  13  14
ENDBRANCH   5   8
BRANCH   7  17
ATOM     17  N   UNL     1       2.402   7.094  19.405  0.00  0.00    +0.000 N 
ATOM     18  H   UNL     1       1.778   6.904  20.181  0.00  0.00    +0.000 HD
BRANCH  17  19
ATOM     19  C   UNL     1       1.944   8.187  18.558  0.00  0.00    +0.000 C 
BRANCH  19  20
ATOM     20  C   UNL     1       1.372   9.279  19.431  0.00  0.00    +0.000 A 
ATOM     21  C   UNL     1       1.198  10.562  18.903  0.00  0.00    +0.000 A 
ATOM     22  C   UNL     1       0.650  11.585  19.675  0.00  0.00    +0.000 A 
ATOM     23  C   UNL     1       0.227  11.359  20.995  0.00  0.00    +0.000 A 
ATOM     24  C   UNL     1       0.387  10.053  21.506  0.00  0.00    +0.000 A 
ATOM     25  C   UNL     1       0.956   9.029  20.742  0.00  0.00    +0.000 A 
BRANCH  23  26
ATOM     26  C   UNL     1      -0.356  12.452  21.799  0.00  0.00    +0.000 A 
ATOM     27  C   UNL     1       0.013  13.795  21.612  0.00  0.00    +0.000 A 
ATOM     28  C   UNL     1      -0.531  14.804  22.406  0.00  0.00    +0.000 A 
ATOM     29  C   UNL     1      -1.452  14.451  23.373  0.00  0.00    +0.000 A 
ATOM     30  N   UNL     1      -1.851  13.183  23.593  0.00  0.00    +0.000 NA
ATOM     31  C   UNL     1      -1.293  12.224  22.810  0.00  0.00    +0.000 A 
ENDBRANCH  23  26
ENDBRANCH  19  20
ENDBRANCH  17  19
ENDBRANCH   7  17
TORSDOF 6
ENDMDL
MODEL 7
REMARK VINA RESULT:      -8.1      1.786      2.462
REMARK  Name = 
REMARK  9 active torsions:
REMARK  status: ('A' for Active; 'I' for Inactive)
REMARK    1  A    between atoms: C_1  and  C_2
REMARK    2  A    between atoms: C_5  and  C_6
REMARK    3  A    between atoms: C_11  and  C_12
REMARK    4  A    between atoms: C_12  and  C_13
REMARK    5  A    between atoms: C_12  and  C_14
REMARK    6  A    between atoms: C_16  and  N_17
REMARK    7  A    between atoms: N_17  and  C_18
REMARK    8  A    between atoms: C_18  and  C_19
REMARK    9  A    between atoms: C_22  and  C_23
REMARK                            x       y       z     vdW  Elec       q    Type
REMARK                         _______ _______ _______ _____ _____    ______ ____
ROOT
ATOM      1  C   UNL     1       2.250   4.013  21.425  0.00  0.00    +0.000 C 
ATOM      2  C   UNL     1       2.909   4.232  20.100  0.00  0.00    +0.000 A 
ATOM      3  C   UNL     1       3.408   3.175  19.372  0.00  0.00    +0.000 A 
ATOM      4  N   UNL     1       4.083   3.313  18.219  0.00  0.00    +0.000 NA
ATOM      5  C   UNL     1       4.280   4.572  17.781  0.00  0.00    +0.000 A 
ATOM      6  N   UNL     1       3.825   5.663  18.419  0.00  0.00    +0.000 NA
ATOM      7  C   UNL     1       3.147   5.492  19.568  0.00  0.00    +0.000 A 
ENDROOT
BRANCH   5   8
ATOM      8  C   UNL     1       5.254   4.749  16.673  0.00  0.00    +0.000 A 
ATOM      9  C   UNL     1       5.005   4.016  15.482  0.00  0.00    +0.000 A 
ATOM     10  C   UNL     1       5.873   4.026  14.394  0.00  0.00    +0.000 A 
ATOM     11  C   UNL     1       7.032   4.775  14.462  0.00  0.00    +0.000 A 
ATOM     12  C   UNL     1       7.312   5.521  15.605  0.00  0.00    +0.000 A 
ATOM     13  C   UNL     1       6.438   5.542  16.719  0.00  0.00    +0.000 A 
BRANCH  13  14
ATOM     14  C   UNL     1       6.829   6.392  17.931  0.00  0.00    +0.000 C 
ATOM     15  C   UNL     1       7.660   5.561  18.912  0.00  0.00    +0.000 C 
ATOM     16  C   UNL     1       7.625   7.666  17.592  0.00  0.00    +0.000 C 
ENDBRANCH  13  14
ENDBRANCH   5   8
BRANCH   7  17
ATOM     17  N   UNL     1       2.753   6.613  20.307  0.00  0.00    +0.000 N 
ATOM     18  H   UNL     1       3.084   6.567  21.264  0.00  0.00    +0.000 HD
BRANCH  17  19
ATOM     19  C   UNL     1       1.353   6.999  20.204  0.00  0.00    +0.000 C 
BRANCH  19  20
ATOM     20  C   UNL     1       1.273   8.475  19.889  0.00  0.00    +0.000 A 
ATOM     21  C   UNL     1       0.861   9.369  20.883  0.00  0.00    +0.000 A 
ATOM     22  C   UNL     1       0.801  10.739  20.632  0.00  0.00    +0.000 A 
ATOM     23  C   UNL     1       1.176  11.272  19.388  0.00  0.00    +0.000 A 
ATOM     24  C   UNL     1       1.612  10.360  18.403  0.00  0.00    +0.000 A 
ATOM     25  C   UNL     1       1.655   8.983  18.644  0.00  0.00    +0.000 A 
BRANCH  23  26
ATOM     26  C   UNL     1       1.111  12.727  19.140  0.00  0.00    +0.000 A 
ATOM     27  C   UNL     1       2.243  13.473  18.771  0.00  0.00    +0.000 A 
ATOM     28  C   UNL     1       2.160  14.850  18.574  0.00  0.00    +0.000 A 
ATOM     29  C   UNL     1       0.931  15.461  18.737  0.00  0.00    +0.000 A 
ATOM     30  N   UNL     1      -0.190  14.799  19.081  0.00  0.00    +0.000 NA
ATOM     31  C   UNL     1      -0.070  13.460  19.276  0.00  0.00    +0.000 A 
ENDBRANCH  23  26
ENDBRANCH  19  20
ENDBRANCH  17  19
ENDBRANCH   7  17
TORSDOF 6
ENDMDL
MODEL 8
REMARK VINA RESULT:      -8.1      1.214      1.414
REMARK  Name = 
REMARK  9 active torsions:
REMARK  status: ('A' for Active; 'I' for Inactive)
REMARK    1  A    between atoms: C_1  and  C_2
REMARK    2  A    between atoms: C_5  and  C_6
REMARK    3  A    between atoms: C_11  and  C_12
REMARK    4  A    between atoms: C_12  and  C_13
REMARK    5  A    between atoms: C_12  and  C_14
REMARK    6  A    between atoms: C_16  and  N_17
REMARK    7  A    between atoms: N_17  and  C_18
REMARK    8  A    between atoms: C_18  and  C_19
REMARK    9  A    between atoms: C_22  and  C_23
REMARK                            x       y       z     vdW  Elec       q    Type
REMARK                         _______ _______ _______ _____ _____    ______ ____
ROOT
ATOM      1  C   UNL     1       1.755   2.866  20.364  0.00  0.00    +0.000 C 
ATOM      2  C   UNL     1       2.522   3.275  19.147  0.00  0.00    +0.000 A 
ATOM      3  C   UNL     1       3.235   2.352  18.414  0.00  0.00    +0.000 A 
ATOM      4  N   UNL     1       4.010   2.668  17.364  0.00  0.00    +0.000 NA
ATOM      5  C   UNL     1       4.084   3.974  17.039  0.00  0.00    +0.000 A 
ATOM      6  N   UNL     1       3.419   4.943  17.690  0.00  0.00    +0.000 NA
ATOM      7  C   UNL     1       2.647   4.594  18.734  0.00  0.00    +0.000 A 
ENDROOT
BRANCH   5   8
ATOM      8  C   UNL     1       5.143   4.363  16.071  0.00  0.00    +0.000 A 
ATOM      9  C   UNL     1       5.118   3.717  14.806  0.00  0.00    +0.000 A 
ATOM     10  C   UNL     1       6.092   3.927  13.833  0.00  0.00    +0.000 A 
ATOM     11  C   UNL     1       7.133   4.795  14.096  0.00  0.00    +0.000 A 
ATOM     12  C   UNL     1       7.192   5.462  15.319  0.00  0.00    +0.000 A 
ATOM     13  C   UNL     1       6.206   5.279  16.319  0.00  0.00    +0.000 A 
BRANCH  13  14
ATOM     14  C   UNL     1       6.354   6.055  17.630  0.00  0.00    +0.000 C 
ATOM     15  C   UNL     1       6.880   5.132  18.733  0.00  0.00    +0.000 C 
ATOM     16  C   UNL     1       7.284   7.280  17.551  0.00  0.00    +0.000 C 
ENDBRANCH  13  14
ENDBRANCH   5   8
BRANCH   7  17
ATOM     17  N   UNL     1       2.026   5.592  19.493  0.00  0.00    +0.000 N 
ATOM     18  H   UNL     1       1.072   5.752  19.193  0.00  0.00    +0.000 HD
BRANCH  17  19
ATOM     19  C   UNL     1       2.779   6.822  19.688  0.00  0.00    +0.000 C 
BRANCH  19  20
ATOM     20  C   UNL     1       1.812   7.955  19.941  0.00  0.00    +0.000 A 
ATOM     21  C   UNL     1       1.164   8.044  21.177  0.00  0.00    +0.000 A 
ATOM     22  C   UNL     1       0.285   9.091  21.451  0.00  0.00    +0.000 A 
ATOM     23  C   UNL     1       0.041  10.105  20.511  0.00  0.00    +0.000 A 
ATOM     24  C   UNL     1       0.721  10.016  19.277  0.00  0.00    +0.000 A 
ATOM     25  C   UNL     1       1.587   8.956  18.991  0.00  0.00    +0.000 A 
BRANCH  23  26
ATOM     26  C   UNL     1      -0.889  11.211  20.819  0.00  0.00    +0.000 A 
ATOM     27  C   UNL     1      -1.717  11.785  19.838  0.00  0.00    +0.000 A 
ATOM     28  C   UNL     1      -2.563  12.848  20.149  0.00  0.00    +0.000 A 
ATOM     29  C   UNL     1      -2.577  13.314  21.449  0.00  0.00    +0.000 A 
ATOM     30  N   UNL     1      -1.814  12.800  22.433  0.00  0.00    +0.000 NA
ATOM     31  C   UNL     1      -0.994  11.773  22.093  0.00  0.00    +0.000 A 
ENDBRANCH  23  26
ENDBRANCH  19  20
ENDBRANCH  17  19
ENDBRANCH   7  17
TORSDOF 6
ENDMDL
MODEL 9
REMARK VINA RESULT:      -8.1      1.082      1.421
REMARK  Name = 
REMARK  9 active torsions:
REMARK  status: ('A' for Active; 'I' for Inactive)
REMARK    1  A    between atoms: C_1  and  C_2
REMARK    2  A    between atoms: C_5  and  C_6
REMARK    3  A    between atoms: C_11  and  C_12
REMARK    4  A    between atoms: C_12  and  C_13
REMARK    5  A    between atoms: C_12  and  C_14
REMARK    6  A    between atoms: C_16  and  N_17
REMARK    7  A    between atoms: N_17  and  C_18
REMARK    8  A    between atoms: C_18  and  C_19
REMARK    9  A    between atoms: C_22  and  C_23
REMARK                            x       y       z     vdW  Elec       q    Type
REMARK                         _______ _______ _______ _____ _____    ______ ____
ROOT
ATOM      1  C   UNL     1       1.461   3.265  20.320  0.00  0.00    +0.000 C 
ATOM      2  C   UNL     1       2.296   3.616  19.129  0.00  0.00    +0.000 A 
ATOM      3  C   UNL     1       3.028   2.654  18.467  0.00  0.00    +0.000 A 
ATOM      4  N   UNL     1       3.860   2.919  17.447  0.00  0.00    +0.000 NA
ATOM      5  C   UNL     1       3.974   4.210  17.080  0.00  0.00    +0.000 A 
ATOM      6  N   UNL     1       3.296   5.214  17.660  0.00  0.00    +0.000 NA
ATOM      7  C   UNL     1       2.466   4.916  18.676  0.00  0.00    +0.000 A 
ENDROOT
BRANCH   5   8
ATOM      8  C   UNL     1       5.087   4.546  16.153  0.00  0.00    +0.000 A 
ATOM      9  C   UNL     1       5.089   3.888  14.894  0.00  0.00    +0.000 A 
ATOM     10  C   UNL     1       6.110   4.047  13.961  0.00  0.00    +0.000 A 
ATOM     11  C   UNL     1       7.174   4.876  14.259  0.00  0.00    +0.000 A 
ATOM     12  C   UNL     1       7.209   5.553  15.477  0.00  0.00    +0.000 A 
ATOM     13  C   UNL     1       6.176   5.421  16.436  0.00  0.00    +0.000 A 
BRANCH  13  14
ATOM     14  C   UNL     1       6.300   6.205  17.746  0.00  0.00    +0.000 C 
ATOM     15  C   UNL     1       6.721   5.270  18.883  0.00  0.00    +0.000 C 
ATOM     16  C   UNL     1       7.297   7.378  17.700  0.00  0.00    +0.000 C 
ENDBRANCH  13  14
ENDBRANCH   5   8
BRANCH   7  17
ATOM     17  N   UNL     1       1.826   5.952  19.366  0.00  0.00    +0.000 N 
ATOM     18  H   UNL     1       0.907   6.145  18.985  0.00  0.00    +0.000 HD
BRANCH  17  19
ATOM     19  C   UNL     1       2.611   7.154  19.605  0.00  0.00    +0.000 C 
BRANCH  19  20
ATOM     20  C   UNL     1       1.696   8.245  20.111  0.00  0.00    +0.000 A 
ATOM     21  C   UNL     1       1.432   9.353  19.299  0.00  0.00    +0.000 A 
ATOM     22  C   UNL     1       0.573  10.365  19.727  0.00  0.00    +0.000 A 
ATOM     23  C   UNL     1      -0.078  10.294  20.969  0.00  0.00    +0.000 A 
ATOM     24  C   UNL     1       0.180   9.159  21.767  0.00  0.00    +0.000 A 
ATOM     25  C   UNL     1       1.057   8.152  21.350  0.00  0.00    +0.000 A 
BRANCH  23  26
ATOM     26  C   UNL     1      -0.989  11.372  21.405  0.00  0.00    +0.000 A 
ATOM     27  C   UNL     1      -0.987  11.865  22.721  0.00  0.00    +0.000 A 
ATOM     28  C   UNL     1      -1.880  12.861  23.114  0.00  0.00    +0.000 A 
ATOM     29  C   UNL     1      -2.758  13.361  22.173  0.00  0.00    +0.000 A 
ATOM     30  N   UNL     1      -2.802  12.935  20.895  0.00  0.00    +0.000 NA
ATOM     31  C   UNL     1      -1.926  11.956  20.550  0.00  0.00    +0.000 A 
ENDBRANCH  23  26
ENDBRANCH  19  20
ENDBRANCH  17  19
ENDBRANCH   7  17
TORSDOF 6
ENDMDL
