MODEL 1
REMARK VINA RESULT:      -8.8      0.000      0.000
REMARK  Name = 
REMARK  8 active torsions:
REMARK  status: ('A' for Active; 'I' for Inactive)
REMARK    1  A    between atoms: C_1  and  C_2
REMARK    2  A    between atoms: C_2  and  O_3
REMARK    3  A    between atoms: C_2  and  C_4
REMARK    4  A    between atoms: C_8  and  N_9
REMARK    5  A    between atoms: C_10  and  C_12
REMARK    6  A    between atoms: C_12  and  C_13
REMARK    7  A    between atoms: C_13  and  C_14
REMARK    8  A    between atoms: C_13  and  C_20
REMARK                            x       y       z     vdW  Elec       q    Type
REMARK                         _______ _______ _______ _____ _____    ______ ____
ROOT
ATOM      1  N   UNL     1       5.732   5.115  15.904  0.00  0.00    +0.000 N 
ATOM      2  C   UNL     1       5.058   6.284  16.236  0.00  0.00    +0.000 C 
ATOM      3  O   UNL     1       4.906   7.250  15.493  0.00  0.00    +0.000 OA
ATOM      4  H   UNL     1       6.015   4.507  16.663  0.00  0.00    +0.000 HD
ENDROOT
BRANCH   1   9
ATOM      5  C   UNL     1       5.985   3.449  12.599  0.00  0.00    +0.000 A 
ATOM      6  C   UNL     1       7.171   4.019  12.107  0.00  0.00    +0.000 A 
ATOM      7  C   UNL     1       7.875   4.956  12.856  0.00  0.00    +0.000 A 
ATOM      8  C   UNL     1       7.412   5.330  14.115  0.00  0.00    +0.000 A 
ATOM      9  C   UNL     1       6.226   4.796  14.622  0.00  0.00    +0.000 A 
ATOM     10  C   UNL     1       5.494   3.893  13.840  0.00  0.00    +0.000 A 
BRANCH   5  12
ATOM     11  C   UNL     1       4.270   2.900  10.843  0.00  0.00    +0.000 C 
ATOM     12  C   UNL     1       5.317   2.340  11.809  0.00  0.00    +0.000 C 
BRANCH  12  13
ATOM     13  O   UNL     1       6.266   1.587  11.055  0.00  0.00    +0.000 OA
ATOM     14  H   UNL     1       6.289   0.695  11.441  0.00  0.00    +0.000 HD
ENDBRANCH  12  13
ENDBRANCH   5  12
ENDBRANCH   1   9
BRANCH   2  15
ATOM     15  C   UNL     1       4.621   6.325  17.684  0.00  0.00    +0.000 C 
BRANCH  15  16
ATOM     16  C   UNL     1       3.088   6.171  17.819  0.00  0.00    +0.000 C 
BRANCH  16  17
ATOM     17  C   UNL     1       2.758   4.791  18.402  0.00  0.00    +0.000 A 
ATOM     18  C   UNL     1       3.644   4.137  19.272  0.00  0.00    +0.000 A 
ATOM     19  C   UNL     1       3.343   2.869  19.769  0.00  0.00    +0.000 A 
ATOM     20  C   UNL     1       2.149   2.245  19.418  0.00  0.00    +0.000 A 
ATOM     21  C   UNL     1       1.249   2.891  18.572  0.00  0.00    +0.000 A 
ATOM     22  C   UNL     1       1.552   4.156  18.064  0.00  0.00    +0.000 A 
ENDBRANCH  16  17
BRANCH  16  23
ATOM     23  C   UNL     1       2.395   7.290  18.607  0.00  0.00    +0.000 A 
ATOM     24  C   UNL     1       2.129   7.213  19.983  0.00  0.00    +0.000 A 
ATOM     25  C   UNL     1       1.455   8.245  20.644  0.00  0.00    +0.000 A 
ATOM     26  C   UNL     1       1.040   9.373  19.943  0.00  0.00    +0.000 A 
ATOM     27  C   UNL     1       1.324   9.487  18.586  0.00  0.00    +0.000 A 
ATOM     28  C   UNL     1       2.006   8.461  17.928  0.00  0.00    +0.000 A 
ENDBRANCH  16  23
ENDBRANCH  15  16
ENDBRANCH   2  15
TORSDOF 7
ENDMDL
MODEL 2
REMARK VINA RESULT:      -8.6      3.773      8.140
REMARK  Name = 
REMARK  8 active torsions:
REMARK  status: ('A' for Active; 'I' for Inactive)
REMARK    1  A    between atoms: C_1  and  C_2
REMARK    2  A    between atoms: C_2  and  O_3
REMARK    3  A    between atoms: C_2  and  C_4
REMARK    4  A    between atoms: C_8  and  N_9
REMARK    5  A    between atoms: C_10  and  C_12
REMARK    6  A    between atoms: C_12  and  C_13
REMARK    7  A    between atoms: C_13  and  C_14
REMARK    8  A    between atoms: C_13  and  C_20
REMARK                            x       y       z     vdW  Elec       q    Type
REMARK                         _______ _______ _______ _____ _____    ______ ____
ROOT
ATOM      1  N   UNL     1       1.049   9.222  19.347  0.00  0.00    +0.000 N 
ATOM      2  C   UNL     1       1.984   8.589  18.536  0.00  0.00    +0.000 C 
ATOM      3  O   UNL     1       2.173   8.836  17.348  0.00  0.00    +0.000 OA
ATOM      4  H   UNL     1       0.805   8.769  20.220  0.00  0.00    +0.000 HD
ENDROOT
BRANCH   1   9
ATOM      5  C   UNL     1      -1.691  11.175  17.786  0.00  0.00    +0.000 A 
ATOM      6  C   UNL     1      -1.296  12.484  18.105  0.00  0.00    +0.000 A 
ATOM      7  C   UNL     1      -0.138  12.720  18.840  0.00  0.00    +0.000 A 
ATOM      8  C   UNL     1       0.649  11.650  19.260  0.00  0.00    +0.000 A 
ATOM      9  C   UNL     1       0.270  10.337  18.976  0.00  0.00    +0.000 A 
ATOM     10  C   UNL     1      -0.923  10.105  18.281  0.00  0.00    +0.000 A 
BRANCH   5  12
ATOM     11  C   UNL     1      -4.146  11.615  17.458  0.00  0.00    +0.000 C 
ATOM     12  C   UNL     1      -2.887  10.967  16.877  0.00  0.00    +0.000 C 
BRANCH  12  13
ATOM     13  O   UNL     1      -2.660  11.512  15.578  0.00  0.00    +0.000 OA
ATOM     14  H   UNL     1      -1.807  11.978  15.612  0.00  0.00    +0.000 HD
ENDBRANCH  12  13
ENDBRANCH   5  12
ENDBRANCH   1   9
BRANCH   2  15
ATOM     15  C   UNL     1       2.687   7.441  19.226  0.00  0.00    +0.000 C 
BRANCH  15  16
ATOM     16  C   UNL     1       2.867   6.232  18.277  0.00  0.00    +0.000 C 
BRANCH  16  17
ATOM     17  C   UNL     1       4.359   6.011  18.000  0.00  0.00    +0.000 A 
ATOM     18  C   UNL     1       4.931   6.364  16.768  0.00  0.00    +0.000 A 
ATOM     19  C   UNL     1       6.284   6.127  16.521  0.00  0.00    +0.000 A 
ATOM     20  C   UNL     1       7.084   5.551  17.504  0.00  0.00    +0.000 A 
ATOM     21  C   UNL     1       6.535   5.215  18.740  0.00  0.00    +0.000 A 
ATOM     22  C   UNL     1       5.179   5.441  18.986  0.00  0.00    +0.000 A 
ENDBRANCH  16  17
BRANCH  16  23
ATOM     23  C   UNL     1       2.189   4.939  18.748  0.00  0.00    +0.000 A 
ATOM     24  C   UNL     1       1.987   3.827  17.916  0.00  0.00    +0.000 A 
ATOM     25  C   UNL     1       1.323   2.689  18.385  0.00  0.00    +0.000 A 
ATOM     26  C   UNL     1       0.854   2.639  19.694  0.00  0.00    +0.000 A 
ATOM     27  C   UNL     1       1.073   3.716  20.547  0.00  0.00    +0.000 A 
ATOM     28  C   UNL     1       1.745   4.849  20.082  0.00  0.00    +0.000 A 
ENDBRANCH  16  23
ENDBRANCH  15  16
ENDBRANCH   2  15
TORSDOF 7
ENDMDL
MODEL 3
REMARK VINA RESULT:      -8.6      3.636      8.035
REMARK  Name = 
REMARK  8 active torsions:
REMARK  status: ('A' for Active; 'I' for Inactive)
REMARK    1  A    between atoms: C_1  and  C_2
REMARK    2  A    between atoms: C_2  and  O_3
REMARK    3  A    between atoms: C_2  and  C_4
REMARK    4  A    between atoms: C_8  and  N_9
REMARK    5  A    between atoms: C_10  and  C_12
REMARK    6  A    between atoms: C_12  and  C_13
REMARK    7  A    between atoms: C_13  and  C_14
REMARK    8  A    between atoms: C_13  and  C_20
REMARK                            x       y       z     vdW  Elec       q    Type
REMARK                         _______ _______ _______ _____ _____    ______ ____
ROOT
ATOM      1  N   UNL     1       1.121   9.185  19.290  0.00  0.00    +0.000 N 
ATOM      2  C   UNL     1       2.054   8.562  18.471  0.00  0.00    +0.000 C 
ATOM      3  O   UNL     1       2.238   8.818  17.284  0.00  0.00    +0.000 OA
ATOM      4  H   UNL     1       0.882   8.725  20.160  0.00  0.00    +0.000 HD
ENDROOT
BRANCH   1   9
ATOM      5  C   UNL     1      -1.645  11.135  17.770  0.00  0.00    +0.000 A 
ATOM      6  C   UNL     1      -1.245  12.445  18.080  0.00  0.00    +0.000 A 
ATOM      7  C   UNL     1      -0.075  12.683  18.796  0.00  0.00    +0.000 A 
ATOM      8  C   UNL     1       0.719  11.613  19.204  0.00  0.00    +0.000 A 
ATOM      9  C   UNL     1       0.336  10.300  18.929  0.00  0.00    +0.000 A 
ATOM     10  C   UNL     1      -0.869  10.066  18.255  0.00  0.00    +0.000 A 
BRANCH   5  12
ATOM     11  C   UNL     1      -4.103  11.584  17.476  0.00  0.00    +0.000 C 
ATOM     12  C   UNL     1      -2.856  10.925  16.882  0.00  0.00    +0.000 C 
BRANCH  12  13
ATOM     13  O   UNL     1      -2.647  11.458  15.575  0.00  0.00    +0.000 OA
ATOM     14  H   UNL     1      -3.376  11.136  15.019  0.00  0.00    +0.000 HD
ENDBRANCH  12  13
ENDBRANCH   5  12
ENDBRANCH   1   9
BRANCH   2  15
ATOM     15  C   UNL     1       2.765   7.412  19.150  0.00  0.00    +0.000 C 
BRANCH  15  16
ATOM     16  C   UNL     1       2.853   6.173  18.227  0.00  0.00    +0.000 C 
BRANCH  16  17
ATOM     17  C   UNL     1       4.321   5.879  17.896  0.00  0.00    +0.000 A 
ATOM     18  C   UNL     1       5.212   5.421  18.880  0.00  0.00    +0.000 A 
ATOM     19  C   UNL     1       6.552   5.187  18.569  0.00  0.00    +0.000 A 
ATOM     20  C   UNL     1       7.016   5.393  17.273  0.00  0.00    +0.000 A 
ATOM     21  C   UNL     1       6.139   5.828  16.281  0.00  0.00    +0.000 A 
ATOM     22  C   UNL     1       4.799   6.073  16.591  0.00  0.00    +0.000 A 
ENDBRANCH  16  17
BRANCH  16  23
ATOM     23  C   UNL     1       2.139   4.924  18.759  0.00  0.00    +0.000 A 
ATOM     24  C   UNL     1       1.650   4.815  20.070  0.00  0.00    +0.000 A 
ATOM     25  C   UNL     1       1.047   3.635  20.517  0.00  0.00    +0.000 A 
ATOM     26  C   UNL     1       0.917   2.545  19.661  0.00  0.00    +0.000 A 
ATOM     27  C   UNL     1       1.363   2.642  18.347  0.00  0.00    +0.000 A 
ATOM     28  C   UNL     1       1.957   3.824  17.898  0.00  0.00    +0.000 A 
ENDBRANCH  16  23
ENDBRANCH  15  16
ENDBRANCH   2  15
TORSDOF 7
ENDMDL
MODEL 4
REMARK VINA RESULT:      -8.6      0.091      1.339
REMARK  Name = 
REMARK  8 active torsions:
REMARK  status: ('A' for Active; 'I' for Inactive)
REMARK    1  A    between atoms: C_1  and  C_2
REMARK    2  A    between atoms: C_2  and  O_3
REMARK    3  A    between atoms: C_2  and  C_4
REMARK    4  A    between atoms: C_8  and  N_9
REMARK    5  A    between atoms: C_10  and  C_12
REMARK    6  A    between atoms: C_12  and  C_13
REMARK    7  A    between atoms: C_13  and  C_14
REMARK    8  A    between atoms: C_13  and  C_20
REMARK                            x       y       z     vdW  Elec       q    Type
REMARK                         _______ _______ _______ _____ _____    ______ ____
ROOT
ATOM      1  N   UNL     1       5.724   5.087  15.872  0.00  0.00    +0.000 N 
ATOM      2  C   UNL     1       5.077   6.268  16.217  0.00  0.00    +0.000 C 
ATOM      3  O   UNL     1       4.958   7.249  15.488  0.00  0.00    +0.000 OA
ATOM      4  H   UNL     1       5.982   4.459  16.624  0.00  0.00    +0.000 HD
ENDROOT
BRANCH   1   9
ATOM      5  C   UNL     1       6.008   3.420  12.571  0.00  0.00    +0.000 A 
ATOM      6  C   UNL     1       7.180   4.014  12.076  0.00  0.00    +0.000 A 
ATOM      7  C   UNL     1       7.866   4.967  12.823  0.00  0.00    +0.000 A 
ATOM      8  C   UNL     1       7.396   5.334  14.082  0.00  0.00    +0.000 A 
ATOM      9  C   UNL     1       6.222   4.776  14.590  0.00  0.00    +0.000 A 
ATOM     10  C   UNL     1       5.509   3.856  13.811  0.00  0.00    +0.000 A 
BRANCH   5  12
ATOM     11  C   UNL     1       4.291   2.830  10.829  0.00  0.00    +0.000 C 
ATOM     12  C   UNL     1       5.363   2.296  11.783  0.00  0.00    +0.000 C 
BRANCH  12  13
ATOM     13  O   UNL     1       6.324   1.572  11.018  0.00  0.00    +0.000 OA
ATOM     14  H   UNL     1       5.949   0.690  10.853  0.00  0.00    +0.000 HD
ENDBRANCH  12  13
ENDBRANCH   5  12
ENDBRANCH   1   9
BRANCH   2  15
ATOM     15  C   UNL     1       4.625   6.297  17.660  0.00  0.00    +0.000 C 
BRANCH  15  16
ATOM     16  C   UNL     1       3.091   6.136  17.779  0.00  0.00    +0.000 C 
BRANCH  16  17
ATOM     17  C   UNL     1       2.762   4.778  18.411  0.00  0.00    +0.000 A 
ATOM     18  C   UNL     1       1.524   4.154  18.192  0.00  0.00    +0.000 A 
ATOM     19  C   UNL     1       1.229   2.933  18.799  0.00  0.00    +0.000 A 
ATOM     20  C   UNL     1       2.168   2.313  19.618  0.00  0.00    +0.000 A 
ATOM     21  C   UNL     1       3.410   2.910  19.828  0.00  0.00    +0.000 A 
ATOM     22  C   UNL     1       3.705   4.138  19.230  0.00  0.00    +0.000 A 
ENDBRANCH  16  17
BRANCH  16  23
ATOM     23  C   UNL     1       2.380   7.280  18.513  0.00  0.00    +0.000 A 
ATOM     24  C   UNL     1       1.971   8.465  17.882  0.00  0.00    +0.000 A 
ATOM     25  C   UNL     1       1.365   9.495  18.609  0.00  0.00    +0.000 A 
ATOM     26  C   UNL     1       1.153   9.358  19.977  0.00  0.00    +0.000 A 
ATOM     27  C   UNL     1       1.520   8.179  20.618  0.00  0.00    +0.000 A 
ATOM     28  C   UNL     1       2.115   7.146  19.890  0.00  0.00    +0.000 A 
ENDBRANCH  16  23
ENDBRANCH  15  16
ENDBRANCH   2  15
TORSDOF 7
ENDMDL
MODEL 5
REMARK VINA RESULT:      -8.5      0.987      1.361
REMARK  Name = 
REMARK  8 active torsions:
REMARK  status: ('A' for Active; 'I' for Inactive)
REMARK    1  A    between atoms: C_1  and  C_2
REMARK    2  A    between atoms: C_2  and  O_3
REMARK    3  A    between atoms: C_2  and  C_4
REMARK    4  A    between atoms: C_8  and  N_9
REMARK    5  A    between atoms: C_10  and  C_12
REMARK    6  A    between atoms: C_12  and  C_13
REMARK    7  A    between atoms: C_13  and  C_14
REMARK    8  A    between atoms: C_13  and  C_20
REMARK                            x       y       z     vdW  Elec       q    Type
REMARK                         _______ _______ _______ _____ _____    ______ ____
ROOT
ATOM      1  N   UNL     1       5.333   5.379  16.056  0.00  0.00    +0.000 N 
ATOM      2  C   UNL     1       5.869   5.166  17.320  0.00  0.00    +0.000 C 
ATOM      3  O   UNL     1       6.881   4.512  17.559  0.00  0.00    +0.000 OA
ATOM      4  H   UNL     1       4.376   5.706  16.004  0.00  0.00    +0.000 HD
ENDROOT
BRANCH   1   9
ATOM      5  C   UNL     1       5.828   3.611  12.833  0.00  0.00    +0.000 A 
ATOM      6  C   UNL     1       7.089   4.101  12.454  0.00  0.00    +0.000 A 
ATOM      7  C   UNL     1       7.765   5.019  13.253  0.00  0.00    +0.000 A 
ATOM      8  C   UNL     1       7.197   5.453  14.448  0.00  0.00    +0.000 A 
ATOM      9  C   UNL     1       5.937   4.998  14.840  0.00  0.00    +0.000 A 
ATOM     10  C   UNL     1       5.239   4.116  14.006  0.00  0.00    +0.000 A 
BRANCH   5  12
ATOM     11  C   UNL     1       4.204   3.104  10.980  0.00  0.00    +0.000 C 
ATOM     12  C   UNL     1       5.183   2.519  12.002  0.00  0.00    +0.000 C 
BRANCH  12  13
ATOM     13  O   UNL     1       6.157   1.748  11.300  0.00  0.00    +0.000 OA
ATOM     14  H   UNL     1       6.799   2.376  10.927  0.00  0.00    +0.000 HD
ENDBRANCH  12  13
ENDBRANCH   5  12
ENDBRANCH   1   9
BRANCH   2  15
ATOM     15  C   UNL     1       5.005   5.718  18.432  0.00  0.00    +0.000 C 
BRANCH  15  16
ATOM     16  C   UNL     1       3.508   5.718  18.041  0.00  0.00    +0.000 C 
BRANCH  16  17
ATOM     17  C   UNL     1       2.831   4.457  18.591  0.00  0.00    +0.000 A 
ATOM     18  C   UNL     1       3.393   3.733  19.655  0.00  0.00    +0.000 A 
ATOM     19  C   UNL     1       2.780   2.570  20.122  0.00  0.00    +0.000 A 
ATOM     20  C   UNL     1       1.594   2.123  19.545  0.00  0.00    +0.000 A 
ATOM     21  C   UNL     1       1.013   2.843  18.502  0.00  0.00    +0.000 A 
ATOM     22  C   UNL     1       1.630   4.002  18.025  0.00  0.00    +0.000 A 
ENDBRANCH  16  17
BRANCH  16  23
ATOM     23  C   UNL     1       2.739   6.984  18.443  0.00  0.00    +0.000 A 
ATOM     24  C   UNL     1       2.480   8.042  17.558  0.00  0.00    +0.000 A 
ATOM     25  C   UNL     1       1.812   9.193  17.989  0.00  0.00    +0.000 A 
ATOM     26  C   UNL     1       1.388   9.305  19.310  0.00  0.00    +0.000 A 
ATOM     27  C   UNL     1       1.604   8.255  20.196  0.00  0.00    +0.000 A 
ATOM     28  C   UNL     1       2.261   7.101  19.763  0.00  0.00    +0.000 A 
ENDBRANCH  16  23
ENDBRANCH  15  16
ENDBRANCH   2  15
TORSDOF 7
ENDMDL
MODEL 6
REMARK VINA RESULT:      -8.5      3.404      8.033
REMARK  Name = 
REMARK  8 active torsions:
REMARK  status: ('A' for Active; 'I' for Inactive)
REMARK    1  A    between atoms: C_1  and  C_2
REMARK    2  A    between atoms: C_2  and  O_3
REMARK    3  A    between atoms: C_2  and  C_4
REMARK    4  A    between atoms: C_8  and  N_9
REMARK    5  A    between atoms: C_10  and  C_12
REMARK    6  A    between atoms: C_12  and  C_13
REMARK    7  A    between atoms: C_13  and  C_14
REMARK    8  A    between atoms: C_13  and  C_20
REMARK                            x       y       z     vdW  Elec       q    Type
REMARK                         _______ _______ _______ _____ _____    ______ ____
ROOT
ATOM      1  N   UNL     1       1.191   9.075  19.391  0.00  0.00    +0.000 N 
ATOM      2  C   UNL     1       2.050   8.532  18.443  0.00  0.00    +0.000 C 
ATOM      3  O   UNL     1       2.081   8.841  17.255  0.00  0.00    +0.000 OA
ATOM      4  H   UNL     1       1.079   8.571  20.263  0.00  0.00    +0.000 HD
ENDROOT
BRANCH   1   9
ATOM      5  C   UNL     1      -1.663  11.010  18.025  0.00  0.00    +0.000 A 
ATOM      6  C   UNL     1      -1.422  12.272  18.594  0.00  0.00    +0.000 A 
ATOM      7  C   UNL     1      -0.331  12.479  19.432  0.00  0.00    +0.000 A 
ATOM      8  C   UNL     1       0.544  11.430  19.707  0.00  0.00    +0.000 A 
ATOM      9  C   UNL     1       0.318  10.161  19.173  0.00  0.00    +0.000 A 
ATOM     10  C   UNL     1      -0.811   9.946  18.373  0.00  0.00    +0.000 A 
BRANCH   5  12
ATOM     11  C   UNL     1      -4.082  11.492  17.532  0.00  0.00    +0.000 C 
ATOM     12  C   UNL     1      -2.787  10.858  17.019  0.00  0.00    +0.000 C 
BRANCH  12  13
ATOM     13  O   UNL     1      -2.458  11.461  15.769  0.00  0.00    +0.000 OA
ATOM     14  H   UNL     1      -2.821  10.887  15.074  0.00  0.00    +0.000 HD
ENDBRANCH  12  13
ENDBRANCH   5  12
ENDBRANCH   1   9
BRANCH   2  15
ATOM     15  C   UNL     1       2.889   7.395  18.985  0.00  0.00    +0.000 C 
BRANCH  15  16
ATOM     16  C   UNL     1       2.539   6.053  18.299  0.00  0.00    +0.000 C 
BRANCH  16  17
ATOM     17  C   UNL     1       3.715   5.597  17.427  0.00  0.00    +0.000 A 
ATOM     18  C   UNL     1       4.579   6.527  16.826  0.00  0.00    +0.000 A 
ATOM     19  C   UNL     1       5.626   6.096  16.010  0.00  0.00    +0.000 A 
ATOM     20  C   UNL     1       5.833   4.735  15.796  0.00  0.00    +0.000 A 
ATOM     21  C   UNL     1       4.997   3.801  16.404  0.00  0.00    +0.000 A 
ATOM     22  C   UNL     1       3.941   4.229  17.212  0.00  0.00    +0.000 A 
ENDBRANCH  16  17
BRANCH  16  23
ATOM     23  C   UNL     1       2.089   4.941  19.255  0.00  0.00    +0.000 A 
ATOM     24  C   UNL     1       2.494   4.867  20.597  0.00  0.00    +0.000 A 
ATOM     25  C   UNL     1       2.089   3.807  21.413  0.00  0.00    +0.000 A 
ATOM     26  C   UNL     1       1.269   2.804  20.905  0.00  0.00    +0.000 A 
ATOM     27  C   UNL     1       0.828   2.874  19.588  0.00  0.00    +0.000 A 
ATOM     28  C   UNL     1       1.224   3.939  18.776  0.00  0.00    +0.000 A 
ENDBRANCH  16  23
ENDBRANCH  15  16
ENDBRANCH   2  15
TORSDOF 7
ENDMDL
MODEL 7
REMARK VINA RESULT:      -8.5      3.402      8.076
REMARK  Name = 
REMARK  8 active torsions:
REMARK  status: ('A' for Active; 'I' for Inactive)
REMARK    1  A    between atoms: C_1  and  C_2
REMARK    2  A    between atoms: C_2  and  O_3
REMARK    3  A    between atoms: C_2  and  C_4
REMARK    4  A    between atoms: C_8  and  N_9
REMARK    5  A    between atoms: C_10  and  C_12
REMARK    6  A    between atoms: C_12  and  C_13
REMARK    7  A    between atoms: C_13  and  C_14
REMARK    8  A    between atoms: C_13  and  C_20
REMARK                            x       y       z     vdW  Elec       q    Type
REMARK                         _______ _______ _______ _____ _____    ______ ____
ROOT
ATOM      1  N   UNL     1       1.333   9.229  19.298  0.00  0.00    +0.000 N 
ATOM      2  C   UNL     1       2.117   8.514  18.401  0.00  0.00    +0.000 C 
ATOM      3  O   UNL     1       2.163   8.708  17.189  0.00  0.00    +0.000 OA
ATOM      4  H   UNL     1       1.181   8.822  20.213  0.00  0.00    +0.000 HD
ENDROOT
BRANCH   1   9
ATOM      5  C   UNL     1      -1.493  11.287  18.058  0.00  0.00    +0.000 A 
ATOM      6  C   UNL     1      -0.974  12.581  18.234  0.00  0.00    +0.000 A 
ATOM      7  C   UNL     1       0.297  12.772  18.768  0.00  0.00    +0.000 A 
ATOM      8  C   UNL     1       1.073  11.672  19.126  0.00  0.00    +0.000 A 
ATOM      9  C   UNL     1       0.575  10.376  18.983  0.00  0.00    +0.000 A 
ATOM     10  C   UNL     1      -0.724  10.193  18.494  0.00  0.00    +0.000 A 
BRANCH   5  12
ATOM     11  C   UNL     1      -3.392   9.711  17.570  0.00  0.00    +0.000 C 
ATOM     12  C   UNL     1      -2.827  11.118  17.357  0.00  0.00    +0.000 C 
BRANCH  12  13
ATOM     13  O   UNL     1      -3.789  12.062  17.824  0.00  0.00    +0.000 OA
ATOM     14  H   UNL     1      -4.422  12.202  17.099  0.00  0.00    +0.000 HD
ENDBRANCH  12  13
ENDBRANCH   5  12
ENDBRANCH   1   9
BRANCH   2  15
ATOM     15  C   UNL     1       2.840   7.350  19.042  0.00  0.00    +0.000 C 
BRANCH  15  16
ATOM     16  C   UNL     1       2.601   6.034  18.265  0.00  0.00    +0.000 C 
BRANCH  16  17
ATOM     17  C   UNL     1       3.865   5.660  17.481  0.00  0.00    +0.000 A 
ATOM     18  C   UNL     1       4.891   6.594  17.265  0.00  0.00    +0.000 A 
ATOM     19  C   UNL     1       6.021   6.247  16.524  0.00  0.00    +0.000 A 
ATOM     20  C   UNL     1       6.149   4.962  16.004  0.00  0.00    +0.000 A 
ATOM     21  C   UNL     1       5.149   4.017  16.228  0.00  0.00    +0.000 A 
ATOM     22  C   UNL     1       4.011   4.365  16.961  0.00  0.00    +0.000 A 
ENDBRANCH  16  17
BRANCH  16  23
ATOM     23  C   UNL     1       2.108   4.861  19.122  0.00  0.00    +0.000 A 
ATOM     24  C   UNL     1       1.302   3.826  18.624  0.00  0.00    +0.000 A 
ATOM     25  C   UNL     1       0.845   2.804  19.461  0.00  0.00    +0.000 A 
ATOM     26  C   UNL     1       1.188   2.794  20.809  0.00  0.00    +0.000 A 
ATOM     27  C   UNL     1       2.014   3.791  21.318  0.00  0.00    +0.000 A 
ATOM     28  C   UNL     1       2.480   4.807  20.480  0.00  0.00    +0.000 A 
ENDBRANCH  16  23
ENDBRANCH  15  16
ENDBRANCH   2  15
TORSDOF 7
ENDMDL
MODEL 8
REMARK VINA RESULT:      -8.4      0.730      1.169
REMARK  Name = 
REMARK  8 active torsions:
REMARK  status: ('A' for Active; 'I' for Inactive)
REMARK    1  A    between atoms: C_1  and  C_2
REMARK    2  A    between atoms: C_2  and  O_3
REMARK    3  A    between atoms: C_2  and  C_4
REMARK    4  A    between atoms: C_8  and  N_9
REMARK    5  A    between atoms: C_10  and  C_12
REMARK    6  A    between atoms: C_12  and  C_13
REMARK    7  A    between atoms: C_13  and  C_14
REMARK    8  A    between atoms: C_13  and  C_20
REMARK                            x       y       z     vdW  Elec       q    Type
REMARK                         _______ _______ _______ _____ _____    ______ ____
ROOT
ATOM      1  N   UNL     1       5.380   4.844  16.266  0.00  0.00    +0.000 N 
ATOM      2  C   UNL     1       5.324   6.059  16.939  0.00  0.00    +0.000 C 
ATOM      3  O   UNL     1       5.844   7.105  16.558  0.00  0.00    +0.000 OA
ATOM      4  H   UNL     1       5.144   4.010  16.788  0.00  0.00    +0.000 HD
ENDROOT
BRANCH   1   9
ATOM      5  C   UNL     1       5.707   3.577  12.795  0.00  0.00    +0.000 A 
ATOM      6  C   UNL     1       6.948   4.124  12.430  0.00  0.00    +0.000 A 
ATOM      7  C   UNL     1       7.667   4.916  13.321  0.00  0.00    +0.000 A 
ATOM      8  C   UNL     1       7.161   5.164  14.595  0.00  0.00    +0.000 A 
ATOM      9  C   UNL     1       5.920   4.651  14.977  0.00  0.00    +0.000 A 
ATOM     10  C   UNL     1       5.178   3.900  14.058  0.00  0.00    +0.000 A 
BRANCH   5  12
ATOM     11  C   UNL     1       4.080   3.362  10.888  0.00  0.00    +0.000 C 
ATOM     12  C   UNL     1       5.016   2.619  11.843  0.00  0.00    +0.000 C 
BRANCH  12  13
ATOM     13  O   UNL     1       5.958   1.881  11.066  0.00  0.00    +0.000 OA
ATOM     14  H   UNL     1       5.557   1.015  10.884  0.00  0.00    +0.000 HD
ENDBRANCH  12  13
ENDBRANCH   5  12
ENDBRANCH   1   9
BRANCH   2  15
ATOM     15  C   UNL     1       4.655   5.957  18.292  0.00  0.00    +0.000 C 
BRANCH  15  16
ATOM     16  C   UNL     1       3.113   5.982  18.167  0.00  0.00    +0.000 C 
BRANCH  16  17
ATOM     17  C   UNL     1       2.514   4.798  18.936  0.00  0.00    +0.000 A 
ATOM     18  C   UNL     1       1.476   4.025  18.390  0.00  0.00    +0.000 A 
ATOM     19  C   UNL     1       0.922   2.971  19.117  0.00  0.00    +0.000 A 
ATOM     20  C   UNL     1       1.403   2.666  20.387  0.00  0.00    +0.000 A 
ATOM     21  C   UNL     1       2.447   3.411  20.933  0.00  0.00    +0.000 A 
ATOM     22  C   UNL     1       2.998   4.473  20.213  0.00  0.00    +0.000 A 
ENDBRANCH  16  17
BRANCH  16  23
ATOM     23  C   UNL     1       2.456   7.306  18.579  0.00  0.00    +0.000 A 
ATOM     24  C   UNL     1       1.969   7.555  19.871  0.00  0.00    +0.000 A 
ATOM     25  C   UNL     1       1.339   8.765  20.181  0.00  0.00    +0.000 A 
ATOM     26  C   UNL     1       1.188   9.747  19.207  0.00  0.00    +0.000 A 
ATOM     27  C   UNL     1       1.693   9.535  17.929  0.00  0.00    +0.000 A 
ATOM     28  C   UNL     1       2.332   8.332  17.622  0.00  0.00    +0.000 A 
ENDBRANCH  16  23
ENDBRANCH  15  16
ENDBRANCH   2  15
TORSDOF 7
ENDMDL
MODEL 9
REMARK VINA RESULT:      -8.3      3.841      8.367
REMARK  Name = 
REMARK  8 active torsions:
REMARK  status: ('A' for Active; 'I' for Inactive)
REMARK    1  A    between atoms: C_1  and  C_2
REMARK    2  A    between atoms: C_2  and  O_3
REMARK    3  A    between atoms: C_2  and  C_4
REMARK    4  A    between atoms: C_8  and  N_9
REMARK    5  A    between atoms: C_10  and  C_12
REMARK    6  A    between atoms: C_12  and  C_13
REMARK    7  A    between atoms: C_13  and  C_14
REMARK    8  A    between atoms: C_13  and  C_20
REMARK                            x       y       z     vdW  Elec       q    Type
REMARK                         _______ _______ _______ _____ _____    ______ ____
ROOT
ATOM      1  N   UNL     1       1.201   9.485  17.821  0.00  0.00    +0.000 N 
ATOM      2  C   UNL     1       1.809   8.490  18.577  0.00  0.00    +0.000 C 
ATOM      3  O   UNL     1       1.870   8.469  19.804  0.00  0.00    +0.000 OA
ATOM      4  H   UNL     1       1.434   9.530  16.836  0.00  0.00    +0.000 HD
ENDROOT
BRANCH   1   9
ATOM      5  C   UNL     1      -1.772  11.515  18.712  0.00  0.00    +0.000 A 
ATOM      6  C   UNL     1      -1.159  12.658  19.252  0.00  0.00    +0.000 A 
ATOM      7  C   UNL     1       0.227  12.752  19.332  0.00  0.00    +0.000 A 
ATOM      8  C   UNL     1       1.023  11.709  18.863  0.00  0.00    +0.000 A 
ATOM      9  C   UNL     1       0.441  10.553  18.340  0.00  0.00    +0.000 A 
ATOM     10  C   UNL     1      -0.954  10.443  18.312  0.00  0.00    +0.000 A 
BRANCH   5  12
ATOM     11  C   UNL     1      -3.973  12.366  19.584  0.00  0.00    +0.000 C 
ATOM     12  C   UNL     1      -3.277  11.505  18.528  0.00  0.00    +0.000 C 
BRANCH  12  13
ATOM     13  O   UNL     1      -3.651  11.987  17.238  0.00  0.00    +0.000 OA
ATOM     14  H   UNL     1      -2.987  11.657  16.609  0.00  0.00    +0.000 HD
ENDBRANCH  12  13
ENDBRANCH   5  12
ENDBRANCH   1   9
BRANCH   2  15
ATOM     15  C   UNL     1       2.527   7.459  17.734  0.00  0.00    +0.000 C 
BRANCH  15  16
ATOM     16  C   UNL     1       3.316   6.458  18.610  0.00  0.00    +0.000 C 
BRANCH  16  17
ATOM     17  C   UNL     1       2.419   5.267  18.969  0.00  0.00    +0.000 A 
ATOM     18  C   UNL     1       1.952   5.077  20.279  0.00  0.00    +0.000 A 
ATOM     19  C   UNL     1       1.161   3.971  20.595  0.00  0.00    +0.000 A 
ATOM     20  C   UNL     1       0.815   3.053  19.608  0.00  0.00    +0.000 A 
ATOM     21  C   UNL     1       1.253   3.240  18.299  0.00  0.00    +0.000 A 
ATOM     22  C   UNL     1       2.054   4.340  17.981  0.00  0.00    +0.000 A 
ENDBRANCH  16  17
BRANCH  16  23
ATOM     23  C   UNL     1       4.650   5.991  18.011  0.00  0.00    +0.000 A 
ATOM     24  C   UNL     1       4.982   6.145  16.656  0.00  0.00    +0.000 A 
ATOM     25  C   UNL     1       6.194   5.661  16.154  0.00  0.00    +0.000 A 
ATOM     26  C   UNL     1       7.097   5.019  16.996  0.00  0.00    +0.000 A 
ATOM     27  C   UNL     1       6.804   4.886  18.349  0.00  0.00    +0.000 A 
ATOM     28  C   UNL     1       5.598   5.379  18.853  0.00  0.00    +0.000 A 
ENDBRANCH  16  23
ENDBRANCH  15  16
ENDBRANCH   2  15
TORSDOF 7
ENDMDL
