MODEL 1
REMARK VINA RESULT:     -10.3      0.000      0.000
REMARK  Name = 
REMARK  3 active torsions:
REMARK  status: ('A' for Active; 'I' for Inactive)
REMARK    1  A    between atoms: C_1  and  C_2
REMARK    2  A    between atoms: C_2  and  C_3
REMARK    3  A    between atoms: C_3  and  O_4
REMARK                            x       y       z     vdW  Elec       q    Type
REMARK                         _______ _______ _______ _____ _____    ______ ____
ROOT
ATOM      1  C   UNL     1       5.359   5.460  17.293  0.00  0.00    +0.000 C 
ATOM      2  C   UNL     1       5.272   4.049  16.592  0.00  0.00    +0.000 C 
ATOM      3  O   UNL     1       6.058   3.658  15.729  0.00  0.00    +0.000 OA
ATOM      4  O   UNL     1       4.392   3.179  17.142  0.00  0.00    +0.000 OA
ATOM      5  C   UNL     1       3.090   3.672  17.447  0.00  0.00    +0.000 C 
ATOM      6  C   UNL     1       3.051   5.076  17.925  0.00  0.00    +0.000 A 
ATOM      7  C   UNL     1       3.949   6.026  17.573  0.00  0.00    +0.000 A 
ATOM      8  C   UNL     1       3.456   7.432  17.721  0.00  0.00    +0.000 A 
ATOM      9  C   UNL     1       2.493   7.704  18.639  0.00  0.00    +0.000 A 
ATOM     10  N   UNL     1       2.160   6.675  19.500  0.00  0.00    +0.000 N 
ATOM     11  C   UNL     1       2.264   5.354  19.167  0.00  0.00    +0.000 A 
ATOM     12  O   UNL     1       1.795   4.444  19.841  0.00  0.00    +0.000 OA
ATOM     13  C   UNL     1       1.565   7.162  20.736  0.00  0.00    +0.000 C 
ATOM     14  C   UNL     1       1.197   8.565  20.378  0.00  0.00    +0.000 A 
ATOM     15  C   UNL     1       1.632   8.857  19.086  0.00  0.00    +0.000 A 
ATOM     16  N   UNL     1       1.079   9.853  18.368  0.00  0.00    +0.000 NA
ATOM     17  C   UNL     1       0.142  10.635  19.012  0.00  0.00    +0.000 A 
ATOM     18  C   UNL     1      -0.605  11.592  18.316  0.00  0.00    +0.000 A 
ATOM     19  C   UNL     1      -1.534  12.441  18.942  0.00  0.00    +0.000 A 
ATOM     20  C   UNL     1      -1.717  12.368  20.310  0.00  0.00    +0.000 A 
ATOM     21  C   UNL     1      -1.040  11.410  21.059  0.00  0.00    +0.000 A 
ATOM     22  C   UNL     1      -0.155  10.518  20.408  0.00  0.00    +0.000 A 
ATOM     23  C   UNL     1       0.407   9.453  21.107  0.00  0.00    +0.000 A 
ATOM     24  C   UNL     1       0.162   9.206  22.564  0.00  0.00    +0.000 C 
ATOM     25  C   UNL     1      -0.680  10.225  23.325  0.00  0.00    +0.000 C 
ATOM     26  C   UNL     1      -1.256  11.399  22.548  0.00  0.00    +0.000 C 
ENDROOT
BRANCH   1  28
ATOM     27  C   UNL     1       7.372   7.123  17.424  0.00  0.00    +0.000 C 
ATOM     28  C   UNL     1       6.503   6.214  16.576  0.00  0.00    +0.000 C 
ENDBRANCH   1  28
BRANCH   1  29
ATOM     29  O   UNL     1       5.879   5.179  18.629  0.00  0.00    +0.000 OA
ATOM     30  H   UNL     1       6.830   4.979  18.541  0.00  0.00    +0.000 HD
ENDBRANCH   1  29
TORSDOF 2
ENDMDL
MODEL 2
REMARK VINA RESULT:      -9.0      1.802      3.698
REMARK  Name = 
REMARK  3 active torsions:
REMARK  status: ('A' for Active; 'I' for Inactive)
REMARK    1  A    between atoms: C_1  and  C_2
REMARK    2  A    between atoms: C_2  and  C_3
REMARK    3  A    between atoms: C_3  and  O_4
REMARK                            x       y       z     vdW  Elec       q    Type
REMARK                         _______ _______ _______ _____ _____    ______ ____
ROOT
ATOM      1  C   UNL     1       2.994   3.501  19.633  0.00  0.00    +0.000 C 
ATOM      2  C   UNL     1       4.495   3.014  19.615  0.00  0.00    +0.000 C 
ATOM      3  O   UNL     1       4.863   1.899  19.981  0.00  0.00    +0.000 OA
ATOM      4  O   UNL     1       5.363   3.828  18.966  0.00  0.00    +0.000 OA
ATOM      5  C   UNL     1       5.288   5.222  19.251  0.00  0.00    +0.000 C 
ATOM      6  C   UNL     1       3.917   5.738  19.487  0.00  0.00    +0.000 A 
ATOM      7  C   UNL     1       2.903   5.000  19.998  0.00  0.00    +0.000 A 
ATOM      8  C   UNL     1       1.809   5.803  20.631  0.00  0.00    +0.000 A 
ATOM      9  C   UNL     1       1.587   7.073  20.207  0.00  0.00    +0.000 A 
ATOM     10  N   UNL     1       2.289   7.475  19.085  0.00  0.00    +0.000 N 
ATOM     11  C   UNL     1       3.513   6.972  18.745  0.00  0.00    +0.000 A 
ATOM     12  O   UNL     1       4.226   7.452  17.871  0.00  0.00    +0.000 OA
ATOM     13  C   UNL     1       1.637   8.578  18.394  0.00  0.00    +0.000 C 
ATOM     14  C   UNL     1       0.681   9.078  19.429  0.00  0.00    +0.000 A 
ATOM     15  C   UNL     1       0.736   8.264  20.560  0.00  0.00    +0.000 A 
ATOM     16  N   UNL     1       0.325   8.709  21.763  0.00  0.00    +0.000 NA
ATOM     17  C   UNL     1      -0.250   9.963  21.797  0.00  0.00    +0.000 A 
ATOM     18  C   UNL     1      -0.565  10.582  23.012  0.00  0.00    +0.000 A 
ATOM     19  C   UNL     1      -1.194  11.837  23.092  0.00  0.00    +0.000 A 
ATOM     20  C   UNL     1      -1.553  12.498  21.932  0.00  0.00    +0.000 A 
ATOM     21  C   UNL     1      -1.231  11.962  20.689  0.00  0.00    +0.000 A 
ATOM     22  C   UNL     1      -0.541  10.728  20.623  0.00  0.00    +0.000 A 
ATOM     23  C   UNL     1      -0.067  10.253  19.402  0.00  0.00    +0.000 A 
ATOM     24  C   UNL     1      -0.285  10.967  18.103  0.00  0.00    +0.000 C 
ATOM     25  C   UNL     1      -1.141  12.230  18.122  0.00  0.00    +0.000 C 
ATOM     26  C   UNL     1      -1.676  12.711  19.462  0.00  0.00    +0.000 C 
ENDROOT
BRANCH   1  28
ATOM     27  C   UNL     1       1.778   2.569  21.750  0.00  0.00    +0.000 C 
ATOM     28  C   UNL     1       2.193   2.364  20.306  0.00  0.00    +0.000 C 
ENDBRANCH   1  28
BRANCH   1  29
ATOM     29  O   UNL     1       2.578   3.473  18.233  0.00  0.00    +0.000 OA
ATOM     30  H   UNL     1       1.813   2.870  18.164  0.00  0.00    +0.000 HD
ENDBRANCH   1  29
TORSDOF 2
ENDMDL
MODEL 3
REMARK VINA RESULT:      -8.5      3.389      8.016
REMARK  Name = 
REMARK  3 active torsions:
REMARK  status: ('A' for Active; 'I' for Inactive)
REMARK    1  A    between atoms: C_1  and  C_2
REMARK    2  A    between atoms: C_2  and  C_3
REMARK    3  A    between atoms: C_3  and  O_4
REMARK                            x       y       z     vdW  Elec       q    Type
REMARK                         _______ _______ _______ _____ _____    ______ ____
ROOT
ATOM      1  C   UNL     1      -0.979  11.889  19.171  0.00  0.00    +0.000 C 
ATOM      2  C   UNL     1      -0.888  13.227  20.002  0.00  0.00    +0.000 C 
ATOM      3  O   UNL     1      -1.371  14.298  19.637  0.00  0.00    +0.000 OA
ATOM      4  O   UNL     1      -0.420  13.097  21.266  0.00  0.00    +0.000 OA
ATOM      5  C   UNL     1       0.753  12.309  21.450  0.00  0.00    +0.000 C 
ATOM      6  C   UNL     1       0.856  11.126  20.560  0.00  0.00    +0.000 A 
ATOM      7  C   UNL     1       0.314  11.056  19.321  0.00  0.00    +0.000 A 
ATOM      8  C   UNL     1       0.953  10.043  18.421  0.00  0.00    +0.000 A 
ATOM      9  C   UNL     1       1.559   8.958  18.967  0.00  0.00    +0.000 A 
ATOM     10  N   UNL     1       1.387   8.782  20.328  0.00  0.00    +0.000 N 
ATOM     11  C   UNL     1       1.186   9.814  21.200  0.00  0.00    +0.000 A 
ATOM     12  O   UNL     1       1.226   9.693  22.419  0.00  0.00    +0.000 OA
ATOM     13  C   UNL     1       1.578   7.397  20.731  0.00  0.00    +0.000 C 
ATOM     14  C   UNL     1       2.280   6.816  19.547  0.00  0.00    +0.000 A 
ATOM     15  C   UNL     1       2.386   7.775  18.540  0.00  0.00    +0.000 A 
ATOM     16  N   UNL     1       3.318   7.674  17.572  0.00  0.00    +0.000 NA
ATOM     17  C   UNL     1       4.083   6.525  17.565  0.00  0.00    +0.000 A 
ATOM     18  C   UNL     1       5.178   6.390  16.705  0.00  0.00    +0.000 A 
ATOM     19  C   UNL     1       5.954   5.220  16.631  0.00  0.00    +0.000 A 
ATOM     20  C   UNL     1       5.625   4.129  17.414  0.00  0.00    +0.000 A 
ATOM     21  C   UNL     1       4.575   4.209  18.325  0.00  0.00    +0.000 A 
ATOM     22  C   UNL     1       3.842   5.414  18.435  0.00  0.00    +0.000 A 
ATOM     23  C   UNL     1       2.898   5.571  19.446  0.00  0.00    +0.000 A 
ATOM     24  C   UNL     1       2.566   4.495  20.434  0.00  0.00    +0.000 C 
ATOM     25  C   UNL     1       3.242   3.138  20.260  0.00  0.00    +0.000 C 
ATOM     26  C   UNL     1       4.245   2.980  19.127  0.00  0.00    +0.000 C 
ENDROOT
BRANCH   1  28
ATOM     27  C   UNL     1      -2.392  11.175  17.091  0.00  0.00    +0.000 C 
ATOM     28  C   UNL     1      -1.650  12.271  17.832  0.00  0.00    +0.000 C 
ENDBRANCH   1  28
BRANCH   1  29
ATOM     29  O   UNL     1      -1.977  11.084  19.872  0.00  0.00    +0.000 OA
ATOM     30  H   UNL     1      -2.185  11.536  20.712  0.00  0.00    +0.000 HD
ENDBRANCH   1  29
TORSDOF 2
ENDMDL
MODEL 4
REMARK VINA RESULT:      -7.8      3.694      8.491
REMARK  Name = 
REMARK  3 active torsions:
REMARK  status: ('A' for Active; 'I' for Inactive)
REMARK    1  A    between atoms: C_1  and  C_2
REMARK    2  A    between atoms: C_2  and  C_3
REMARK    3  A    between atoms: C_3  and  O_4
REMARK                            x       y       z     vdW  Elec       q    Type
REMARK                         _______ _______ _______ _____ _____    ______ ____
ROOT
ATOM      1  C   UNL     1      -1.184  12.541  21.237  0.00  0.00    +0.000 C 
ATOM      2  C   UNL     1      -2.639  13.047  20.896  0.00  0.00    +0.000 C 
ATOM      3  O   UNL     1      -3.325  13.733  21.652  0.00  0.00    +0.000 OA
ATOM      4  O   UNL     1      -3.034  12.862  19.613  0.00  0.00    +0.000 OA
ATOM      5  C   UNL     1      -2.797  11.580  19.036  0.00  0.00    +0.000 C 
ATOM      6  C   UNL     1      -1.534  10.928  19.461  0.00  0.00    +0.000 A 
ATOM      7  C   UNL     1      -0.941  11.127  20.662  0.00  0.00    +0.000 A 
ATOM      8  C   UNL     1      -0.019  10.027  21.089  0.00  0.00    +0.000 A 
ATOM      9  C   UNL     1       0.586   9.264  20.143  0.00  0.00    +0.000 A 
ATOM     10  N   UNL     1       0.435   9.680  18.833  0.00  0.00    +0.000 N 
ATOM     11  C   UNL     1      -0.654  10.374  18.386  0.00  0.00    +0.000 A 
ATOM     12  O   UNL     1      -0.891  10.578  17.201  0.00  0.00    +0.000 OA
ATOM     13  C   UNL     1       1.495   9.179  17.971  0.00  0.00    +0.000 C 
ATOM     14  C   UNL     1       2.086   8.085  18.800  0.00  0.00    +0.000 A 
ATOM     15  C   UNL     1       1.466   8.045  20.048  0.00  0.00    +0.000 A 
ATOM     16  N   UNL     1       1.488   6.932  20.806  0.00  0.00    +0.000 NA
ATOM     17  C   UNL     1       2.244   5.877  20.337  0.00  0.00    +0.000 A 
ATOM     18  C   UNL     1       2.209   4.626  20.963  0.00  0.00    +0.000 A 
ATOM     19  C   UNL     1       2.998   3.540  20.547  0.00  0.00    +0.000 A 
ATOM     20  C   UNL     1       3.877   3.696  19.492  0.00  0.00    +0.000 A 
ATOM     21  C   UNL     1       3.932   4.898  18.795  0.00  0.00    +0.000 A 
ATOM     22  C   UNL     1       3.086   5.965  19.183  0.00  0.00    +0.000 A 
ATOM     23  C   UNL     1       3.007   7.116  18.404  0.00  0.00    +0.000 A 
ATOM     24  C   UNL     1       3.819   7.326  17.163  0.00  0.00    +0.000 C 
ATOM     25  C   UNL     1       4.838   6.253  16.791  0.00  0.00    +0.000 C 
ATOM     26  C   UNL     1       4.930   5.018  17.676  0.00  0.00    +0.000 C 
ENDROOT
BRANCH   1  28
ATOM     27  C   UNL     1      -0.428  14.388  22.924  0.00  0.00    +0.000 C 
ATOM     28  C   UNL     1      -0.923  12.973  22.698  0.00  0.00    +0.000 C 
ENDBRANCH   1  28
BRANCH   1  29
ATOM     29  O   UNL     1      -0.300  13.384  20.435  0.00  0.00    +0.000 OA
ATOM     30  H   UNL     1       0.208  13.948  21.049  0.00  0.00    +0.000 HD
ENDBRANCH   1  29
TORSDOF 2
ENDMDL
MODEL 5
REMARK VINA RESULT:      -7.8      3.478      8.327
REMARK  Name = 
REMARK  3 active torsions:
REMARK  status: ('A' for Active; 'I' for Inactive)
REMARK    1  A    between atoms: C_1  and  C_2
REMARK    2  A    between atoms: C_2  and  C_3
REMARK    3  A    between atoms: C_3  and  O_4
REMARK                            x       y       z     vdW  Elec       q    Type
REMARK                         _______ _______ _______ _____ _____    ______ ____
ROOT
ATOM      1  C   UNL     1      -0.795  11.977  21.029  0.00  0.00    +0.000 C 
ATOM      2  C   UNL     1      -2.125  12.591  20.443  0.00  0.00    +0.000 C 
ATOM      3  O   UNL     1      -2.878  13.332  21.074  0.00  0.00    +0.000 OA
ATOM      4  O   UNL     1      -2.304  12.429  19.111  0.00  0.00    +0.000 OA
ATOM      5  C   UNL     1      -2.068  11.129  18.574  0.00  0.00    +0.000 C 
ATOM      6  C   UNL     1      -0.952  10.386  19.207  0.00  0.00    +0.000 A 
ATOM      7  C   UNL     1      -0.564  10.545  20.495  0.00  0.00    +0.000 A 
ATOM      8  C   UNL     1       0.184   9.381  21.067  0.00  0.00    +0.000 A 
ATOM      9  C   UNL     1       0.885   8.569  20.235  0.00  0.00    +0.000 A 
ATOM     10  N   UNL     1       0.996   8.987  18.922  0.00  0.00    +0.000 N 
ATOM     11  C   UNL     1       0.058   9.759  18.298  0.00  0.00    +0.000 A 
ATOM     12  O   UNL     1       0.047   9.974  17.091  0.00  0.00    +0.000 OA
ATOM     13  C   UNL     1       2.149   8.402  18.254  0.00  0.00    +0.000 C 
ATOM     14  C   UNL     1       2.502   7.271  19.165  0.00  0.00    +0.000 A 
ATOM     15  C   UNL     1       1.672   7.286  20.285  0.00  0.00    +0.000 A 
ATOM     16  N   UNL     1       1.477   6.179  21.027  0.00  0.00    +0.000 NA
ATOM     17  C   UNL     1       2.220   5.066  20.689  0.00  0.00    +0.000 A 
ATOM     18  C   UNL     1       1.982   3.825  21.290  0.00  0.00    +0.000 A 
ATOM     19  C   UNL     1       2.746   2.679  21.010  0.00  0.00    +0.000 A 
ATOM     20  C   UNL     1       3.805   2.762  20.125  0.00  0.00    +0.000 A 
ATOM     21  C   UNL     1       4.072   3.953  19.456  0.00  0.00    +0.000 A 
ATOM     22  C   UNL     1       3.255   5.083  19.700  0.00  0.00    +0.000 A 
ATOM     23  C   UNL     1       3.401   6.233  18.928  0.00  0.00    +0.000 A 
ATOM     24  C   UNL     1       4.430   6.372  17.848  0.00  0.00    +0.000 C 
ATOM     25  C   UNL     1       5.413   5.222  17.652  0.00  0.00    +0.000 C 
ATOM     26  C   UNL     1       5.256   3.990  18.529  0.00  0.00    +0.000 C 
ENDROOT
BRANCH   1  28
ATOM     27  C   UNL     1      -1.611  11.595  23.483  0.00  0.00    +0.000 C 
ATOM     28  C   UNL     1      -0.759  12.396  22.517  0.00  0.00    +0.000 C 
ENDBRANCH   1  28
BRANCH   1  29
ATOM     29  O   UNL     1       0.277  12.745  20.400  0.00  0.00    +0.000 OA
ATOM     30  H   UNL     1       0.876  12.112  19.960  0.00  0.00    +0.000 HD
ENDBRANCH   1  29
TORSDOF 2
ENDMDL
MODEL 6
REMARK VINA RESULT:      -7.6      3.094      8.271
REMARK  Name = 
REMARK  3 active torsions:
REMARK  status: ('A' for Active; 'I' for Inactive)
REMARK    1  A    between atoms: C_1  and  C_2
REMARK    2  A    between atoms: C_2  and  C_3
REMARK    3  A    between atoms: C_3  and  O_4
REMARK                            x       y       z     vdW  Elec       q    Type
REMARK                         _______ _______ _______ _____ _____    ______ ____
ROOT
ATOM      1  C   UNL     1      -0.209  10.761  21.601  0.00  0.00    +0.000 C 
ATOM      2  C   UNL     1      -1.395  11.710  21.173  0.00  0.00    +0.000 C 
ATOM      3  O   UNL     1      -2.218  12.181  21.957  0.00  0.00    +0.000 OA
ATOM      4  O   UNL     1      -1.346  12.164  19.898  0.00  0.00    +0.000 OA
ATOM      5  C   UNL     1      -1.068  11.210  18.876  0.00  0.00    +0.000 C 
ATOM      6  C   UNL     1      -0.107  10.147  19.259  0.00  0.00    +0.000 A 
ATOM      7  C   UNL     1       0.058   9.688  20.522  0.00  0.00    +0.000 A 
ATOM      8  C   UNL     1       0.652   8.317  20.611  0.00  0.00    +0.000 A 
ATOM      9  C   UNL     1       1.457   7.875  19.610  0.00  0.00    +0.000 A 
ATOM     10  N   UNL     1       1.808   8.808  18.652  0.00  0.00    +0.000 N 
ATOM     11  C   UNL     1       1.021   9.872  18.315  0.00  0.00    +0.000 A 
ATOM     12  O   UNL     1       1.227  10.590  17.343  0.00  0.00    +0.000 OA
ATOM     13  C   UNL     1       3.037   8.448  17.960  0.00  0.00    +0.000 C 
ATOM     14  C   UNL     1       3.185   7.003  18.309  0.00  0.00    +0.000 A 
ATOM     15  C   UNL     1       2.176   6.620  19.191  0.00  0.00    +0.000 A 
ATOM     16  N   UNL     1       1.815   5.330  19.325  0.00  0.00    +0.000 NA
ATOM     17  C   UNL     1       2.564   4.401  18.632  0.00  0.00    +0.000 A 
ATOM     18  C   UNL     1       2.181   3.056  18.577  0.00  0.00    +0.000 A 
ATOM     19  C   UNL     1       2.939   2.070  17.923  0.00  0.00    +0.000 A 
ATOM     20  C   UNL     1       4.137   2.412  17.325  0.00  0.00    +0.000 A 
ATOM     21  C   UNL     1       4.559   3.738  17.303  0.00  0.00    +0.000 A 
ATOM     22  C   UNL     1       3.755   4.732  17.909  0.00  0.00    +0.000 A 
ATOM     23  C   UNL     1       4.073   6.079  17.760  0.00  0.00    +0.000 A 
ATOM     24  C   UNL     1       5.278   6.560  17.011  0.00  0.00    +0.000 C 
ATOM     25  C   UNL     1       6.238   5.510  16.461  0.00  0.00    +0.000 C 
ATOM     26  C   UNL     1       5.886   4.044  16.664  0.00  0.00    +0.000 C 
ENDROOT
BRANCH   1  28
ATOM     27  C   UNL     1       0.349   9.324  23.712  0.00  0.00    +0.000 C 
ATOM     28  C   UNL     1      -0.416  10.486  23.108  0.00  0.00    +0.000 C 
ENDBRANCH   1  28
BRANCH   1  29
ATOM     29  O   UNL     1       0.983  11.604  21.537  0.00  0.00    +0.000 OA
ATOM     30  H   UNL     1       1.603  11.292  22.223  0.00  0.00    +0.000 HD
ENDBRANCH   1  29
TORSDOF 2
ENDMDL
