MODEL 1
REMARK VINA RESULT:      -8.0      0.000      0.000
REMARK  Name = 
REMARK  5 active torsions:
REMARK  status: ('A' for Active; 'I' for Inactive)
REMARK    1  A    between atoms: C_1  and  C_2
REMARK    2  A    between atoms: C_4  and  C_5
REMARK    3  A    between atoms: C_11  and  C_12
REMARK    4  A    between atoms: N_17  and  C_18
REMARK    5  A    between atoms: C_22  and  C_23
REMARK                            x       y       z     vdW  Elec       q    Type
REMARK                         _______ _______ _______ _____ _____    ______ ____
ROOT
ATOM      1  C   UNL     1      -0.034   9.942  19.993  0.00  0.00    +0.000 C 
ATOM      2  O   UNL     1      -0.329   9.929  21.189  0.00  0.00    +0.000 OA
ATOM      3  N   UNL     1       1.082   9.233  19.540  0.00  0.00    +0.000 N 
ATOM      4  C   UNL     1       1.775   8.310  20.447  0.00  0.00    +0.000 C 
ATOM      5  C   UNL     1       2.102   6.979  19.734  0.00  0.00    +0.000 C 
ATOM      6  N   UNL     1       2.853   7.258  18.492  0.00  0.00    +0.000 N 
ATOM      7  C   UNL     1       2.165   8.179  17.560  0.00  0.00    +0.000 C 
ATOM      8  C   UNL     1       1.820   9.490  18.291  0.00  0.00    +0.000 C 
ENDROOT
BRANCH   1  13
ATOM      9  C   UNL     1      -3.484  10.352  16.660  0.00  0.00    +0.000 C 
ATOM     10  C   UNL     1      -2.433  10.868  17.555  0.00  0.00    +0.000 A 
ATOM     11  N   UNL     1      -1.893  12.062  17.599  0.00  0.00    +0.000 NA
ATOM     12  C   UNL     1      -0.866  11.940  18.523  0.00  0.00    +0.000 A 
ATOM     13  C   UNL     1      -0.834  10.643  19.012  0.00  0.00    +0.000 A 
ATOM     14  O   UNL     1      -1.883   9.971  18.417  0.00  0.00    +0.000 OA
BRANCH  12  15
ATOM     15  C   UNL     1       0.023  13.059  18.792  0.00  0.00    +0.000 A 
ATOM     16  C   UNL     1      -0.522  14.244  19.313  0.00  0.00    +0.000 A 
ATOM     17  C   UNL     1       0.265  15.386  19.484  0.00  0.00    +0.000 A 
ATOM     18  C   UNL     1       1.613  15.357  19.137  0.00  0.00    +0.000 A 
ATOM     19  C   UNL     1       2.173  14.185  18.632  0.00  0.00    +0.000 A 
ATOM     20  C   UNL     1       1.383  13.043  18.458  0.00  0.00    +0.000 A 
ENDBRANCH  12  15
ENDBRANCH   1  13
BRANCH   6  21
ATOM     21  C   UNL     1       3.630   6.262  17.915  0.00  0.00    +0.000 A 
ATOM     22  C   UNL     1       4.602   6.499  16.934  0.00  0.00    +0.000 A 
ATOM     23  C   UNL     1       5.292   5.441  16.327  0.00  0.00    +0.000 A 
ATOM     24  C   UNL     1       5.012   4.123  16.687  0.00  0.00    +0.000 A 
ATOM     25  C   UNL     1       4.060   3.865  17.670  0.00  0.00    +0.000 A 
ATOM     26  C   UNL     1       3.386   4.927  18.280  0.00  0.00    +0.000 A 
BRANCH  25  27
ATOM     27  C   UNL     1       3.741   2.519  18.042  0.00  0.00    +0.000 C 
ATOM     28  N   UNL     1       3.485   1.429  18.338  0.00  0.00    +0.000 NA
ENDBRANCH  25  27
ENDBRANCH   6  21
TORSDOF 4
ENDMDL
MODEL 2
REMARK VINA RESULT:      -8.0      1.188      1.778
REMARK  Name = 
REMARK  5 active torsions:
REMARK  status: ('A' for Active; 'I' for Inactive)
REMARK    1  A    between atoms: C_1  and  C_2
REMARK    2  A    between atoms: C_4  and  C_5
REMARK    3  A    between atoms: C_11  and  C_12
REMARK    4  A    between atoms: N_17  and  C_18
REMARK    5  A    between atoms: C_22  and  C_23
REMARK                            x       y       z     vdW  Elec       q    Type
REMARK                         _______ _______ _______ _____ _____    ______ ____
ROOT
ATOM      1  C   UNL     1       0.162   9.924  20.074  0.00  0.00    +0.000 C 
ATOM      2  O   UNL     1      -0.059   9.969  21.286  0.00  0.00    +0.000 OA
ATOM      3  N   UNL     1       1.181   9.104  19.579  0.00  0.00    +0.000 N 
ATOM      4  C   UNL     1       1.842   8.146  20.473  0.00  0.00    +0.000 C 
ATOM      5  C   UNL     1       2.005   6.773  19.783  0.00  0.00    +0.000 C 
ATOM      6  N   UNL     1       2.701   6.951  18.492  0.00  0.00    +0.000 N 
ATOM      7  C   UNL     1       2.042   7.906  17.574  0.00  0.00    +0.000 C 
ATOM      8  C   UNL     1       1.861   9.261  18.282  0.00  0.00    +0.000 C 
ENDROOT
BRANCH   1  13
ATOM      9  C   UNL     1      -3.408  10.546  16.904  0.00  0.00    +0.000 C 
ATOM     10  C   UNL     1      -2.278  10.993  17.738  0.00  0.00    +0.000 A 
ATOM     11  N   UNL     1      -1.649  12.144  17.735  0.00  0.00    +0.000 NA
ATOM     12  C   UNL     1      -0.589  11.958  18.610  0.00  0.00    +0.000 A 
ATOM     13  C   UNL     1      -0.631  10.669  19.120  0.00  0.00    +0.000 A 
ATOM     14  O   UNL     1      -1.755  10.070  18.589  0.00  0.00    +0.000 OA
BRANCH  12  15
ATOM     15  C   UNL     1       0.394  13.010  18.816  0.00  0.00    +0.000 A 
ATOM     16  C   UNL     1      -0.035  14.240  19.341  0.00  0.00    +0.000 A 
ATOM     17  C   UNL     1       0.843  15.321  19.454  0.00  0.00    +0.000 A 
ATOM     18  C   UNL     1       2.166  15.185  19.042  0.00  0.00    +0.000 A 
ATOM     19  C   UNL     1       2.611  13.967  18.532  0.00  0.00    +0.000 A 
ATOM     20  C   UNL     1       1.730  12.886  18.417  0.00  0.00    +0.000 A 
ENDBRANCH  12  15
ENDBRANCH   1  13
BRANCH   6  21
ATOM     21  C   UNL     1       3.348   5.873  17.902  0.00  0.00    +0.000 A 
ATOM     22  C   UNL     1       2.931   4.542  18.034  0.00  0.00    +0.000 A 
ATOM     23  C   UNL     1       3.676   3.490  17.486  0.00  0.00    +0.000 A 
ATOM     24  C   UNL     1       4.862   3.754  16.801  0.00  0.00    +0.000 A 
ATOM     25  C   UNL     1       5.289   5.070  16.646  0.00  0.00    +0.000 A 
ATOM     26  C   UNL     1       4.532   6.115  17.184  0.00  0.00    +0.000 A 
BRANCH  25  27
ATOM     27  C   UNL     1       6.515   5.365  15.965  0.00  0.00    +0.000 C 
ATOM     28  N   UNL     1       7.508   5.598  15.417  0.00  0.00    +0.000 NA
ENDBRANCH  25  27
ENDBRANCH   6  21
TORSDOF 4
ENDMDL
MODEL 3
REMARK VINA RESULT:      -7.9      1.417      2.103
REMARK  Name = 
REMARK  5 active torsions:
REMARK  status: ('A' for Active; 'I' for Inactive)
REMARK    1  A    between atoms: C_1  and  C_2
REMARK    2  A    between atoms: C_4  and  C_5
REMARK    3  A    between atoms: C_11  and  C_12
REMARK    4  A    between atoms: N_17  and  C_18
REMARK    5  A    between atoms: C_22  and  C_23
REMARK                            x       y       z     vdW  Elec       q    Type
REMARK                         _______ _______ _______ _____ _____    ______ ____
ROOT
ATOM      1  C   UNL     1       0.237   9.732  20.308  0.00  0.00    +0.000 C 
ATOM      2  O   UNL     1      -0.094   9.664  21.494  0.00  0.00    +0.000 OA
ATOM      3  N   UNL     1       1.242   8.896  19.814  0.00  0.00    +0.000 N 
ATOM      4  C   UNL     1       1.754   7.802  20.648  0.00  0.00    +0.000 C 
ATOM      5  C   UNL     1       1.892   6.501  19.826  0.00  0.00    +0.000 C 
ATOM      6  N   UNL     1       2.716   6.762  18.628  0.00  0.00    +0.000 N 
ATOM      7  C   UNL     1       2.208   7.855  17.769  0.00  0.00    +0.000 C 
ATOM      8  C   UNL     1       2.049   9.137  18.607  0.00  0.00    +0.000 C 
ENDROOT
BRANCH   1  13
ATOM      9  C   UNL     1      -3.112  11.018  17.097  0.00  0.00    +0.000 C 
ATOM     10  C   UNL     1      -1.956  11.257  17.980  0.00  0.00    +0.000 A 
ATOM     11  N   UNL     1      -1.171  12.304  18.054  0.00  0.00    +0.000 NA
ATOM     12  C   UNL     1      -0.175  11.924  18.942  0.00  0.00    +0.000 A 
ATOM     13  C   UNL     1      -0.414  10.631  19.379  0.00  0.00    +0.000 A 
ATOM     14  O   UNL     1      -1.595  10.226  18.790  0.00  0.00    +0.000 OA
BRANCH  12  15
ATOM     15  C   UNL     1       0.940  12.814  19.228  0.00  0.00    +0.000 A 
ATOM     16  C   UNL     1       1.866  13.084  18.207  0.00  0.00    +0.000 A 
ATOM     17  C   UNL     1       3.015  13.838  18.457  0.00  0.00    +0.000 A 
ATOM     18  C   UNL     1       3.253  14.336  19.736  0.00  0.00    +0.000 A 
ATOM     19  C   UNL     1       2.336  14.089  20.755  0.00  0.00    +0.000 A 
ATOM     20  C   UNL     1       1.188  13.331  20.505  0.00  0.00    +0.000 A 
ENDBRANCH  12  15
ENDBRANCH   1  13
BRANCH   6  21
ATOM     21  C   UNL     1       3.345   5.708  17.979  0.00  0.00    +0.000 A 
ATOM     22  C   UNL     1       2.919   4.376  18.057  0.00  0.00    +0.000 A 
ATOM     23  C   UNL     1       3.647   3.344  17.449  0.00  0.00    +0.000 A 
ATOM     24  C   UNL     1       4.824   3.631  16.758  0.00  0.00    +0.000 A 
ATOM     25  C   UNL     1       5.259   4.949  16.656  0.00  0.00    +0.000 A 
ATOM     26  C   UNL     1       4.519   5.973  17.253  0.00  0.00    +0.000 A 
BRANCH  25  27
ATOM     27  C   UNL     1       6.476   5.265  15.970  0.00  0.00    +0.000 C 
ATOM     28  N   UNL     1       7.458   5.527  15.413  0.00  0.00    +0.000 NA
ENDBRANCH  25  27
ENDBRANCH   6  21
TORSDOF 4
ENDMDL
MODEL 4
REMARK VINA RESULT:      -7.8      0.545      1.072
REMARK  Name = 
REMARK  5 active torsions:
REMARK  status: ('A' for Active; 'I' for Inactive)
REMARK    1  A    between atoms: C_1  and  C_2
REMARK    2  A    between atoms: C_4  and  C_5
REMARK    3  A    between atoms: C_11  and  C_12
REMARK    4  A    between atoms: N_17  and  C_18
REMARK    5  A    between atoms: C_22  and  C_23
REMARK                            x       y       z     vdW  Elec       q    Type
REMARK                         _______ _______ _______ _____ _____    ______ ____
ROOT
ATOM      1  C   UNL     1      -0.140   9.942  19.861  0.00  0.00    +0.000 C 
ATOM      2  O   UNL     1      -0.452   9.965  21.053  0.00  0.00    +0.000 OA
ATOM      3  N   UNL     1       1.005   9.252  19.452  0.00  0.00    +0.000 N 
ATOM      4  C   UNL     1       1.713   8.388  20.404  0.00  0.00    +0.000 C 
ATOM      5  C   UNL     1       2.094   7.043  19.748  0.00  0.00    +0.000 C 
ATOM      6  N   UNL     1       2.854   7.297  18.508  0.00  0.00    +0.000 N 
ATOM      7  C   UNL     1       2.151   8.158  17.530  0.00  0.00    +0.000 C 
ATOM      8  C   UNL     1       1.753   9.484  18.205  0.00  0.00    +0.000 C 
ENDROOT
BRANCH   1  13
ATOM      9  C   UNL     1      -3.058  10.038  16.033  0.00  0.00    +0.000 C 
ATOM     10  C   UNL     1      -2.321  10.641  17.158  0.00  0.00    +0.000 A 
ATOM     11  N   UNL     1      -2.130  11.907  17.441  0.00  0.00    +0.000 NA
ATOM     12  C   UNL     1      -1.251  11.890  18.514  0.00  0.00    +0.000 A 
ATOM     13  C   UNL     1      -0.947  10.578  18.842  0.00  0.00    +0.000 A 
ATOM     14  O   UNL     1      -1.684   9.777  17.993  0.00  0.00    +0.000 OA
BRANCH  12  15
ATOM     15  C   UNL     1      -0.738  13.132  19.071  0.00  0.00    +0.000 A 
ATOM     16  C   UNL     1       0.465  13.651  18.566  0.00  0.00    +0.000 A 
ATOM     17  C   UNL     1       1.061  14.778  19.139  0.00  0.00    +0.000 A 
ATOM     18  C   UNL     1       0.458  15.402  20.228  0.00  0.00    +0.000 A 
ATOM     19  C   UNL     1      -0.743  14.908  20.731  0.00  0.00    +0.000 A 
ATOM     20  C   UNL     1      -1.338  13.779  20.158  0.00  0.00    +0.000 A 
ENDBRANCH  12  15
ENDBRANCH   1  13
BRANCH   6  21
ATOM     21  C   UNL     1       3.671   6.305  17.980  0.00  0.00    +0.000 A 
ATOM     22  C   UNL     1       4.710   6.549  17.074  0.00  0.00    +0.000 A 
ATOM     23  C   UNL     1       5.443   5.496  16.510  0.00  0.00    +0.000 A 
ATOM     24  C   UNL     1       5.139   4.175  16.841  0.00  0.00    +0.000 A 
ATOM     25  C   UNL     1       4.120   3.910  17.750  0.00  0.00    +0.000 A 
ATOM     26  C   UNL     1       3.403   4.968  18.318  0.00  0.00    +0.000 A 
BRANCH  25  27
ATOM     27  C   UNL     1       3.775   2.562  18.090  0.00  0.00    +0.000 C 
ATOM     28  N   UNL     1       3.493   1.471  18.359  0.00  0.00    +0.000 NA
ENDBRANCH  25  27
ENDBRANCH   6  21
TORSDOF 4
ENDMDL
MODEL 5
REMARK VINA RESULT:      -7.7      3.512      8.536
REMARK  Name = 
REMARK  5 active torsions:
REMARK  status: ('A' for Active; 'I' for Inactive)
REMARK    1  A    between atoms: C_1  and  C_2
REMARK    2  A    between atoms: C_4  and  C_5
REMARK    3  A    between atoms: C_11  and  C_12
REMARK    4  A    between atoms: N_17  and  C_18
REMARK    5  A    between atoms: C_22  and  C_23
REMARK                            x       y       z     vdW  Elec       q    Type
REMARK                         _______ _______ _______ _____ _____    ______ ____
ROOT
ATOM      1  C   UNL     1       4.318   3.763  17.278  0.00  0.00    +0.000 C 
ATOM      2  O   UNL     1       4.314   2.620  17.739  0.00  0.00    +0.000 OA
ATOM      3  N   UNL     1       3.454   4.731  17.801  0.00  0.00    +0.000 N 
ATOM      4  C   UNL     1       2.699   4.446  19.027  0.00  0.00    +0.000 C 
ATOM      5  C   UNL     1       2.743   5.651  19.992  0.00  0.00    +0.000 C 
ATOM      6  N   UNL     1       2.282   6.864  19.286  0.00  0.00    +0.000 N 
ATOM      7  C   UNL     1       3.040   7.173  18.052  0.00  0.00    +0.000 C 
ATOM      8  C   UNL     1       3.011   5.954  17.112  0.00  0.00    +0.000 C 
ENDROOT
BRANCH   1  13
ATOM      9  C   UNL     1       6.133   3.691  12.820  0.00  0.00    +0.000 C 
ATOM     10  C   UNL     1       6.015   4.198  14.199  0.00  0.00    +0.000 A 
ATOM     11  N   UNL     1       6.776   5.056  14.836  0.00  0.00    +0.000 NA
ATOM     12  C   UNL     1       6.290   5.046  16.135  0.00  0.00    +0.000 A 
ATOM     13  C   UNL     1       5.225   4.164  16.224  0.00  0.00    +0.000 A 
ATOM     14  O   UNL     1       5.023   3.658  14.956  0.00  0.00    +0.000 OA
BRANCH  12  15
ATOM     15  C   UNL     1       6.938   5.832  17.173  0.00  0.00    +0.000 A 
ATOM     16  C   UNL     1       7.136   7.206  16.955  0.00  0.00    +0.000 A 
ATOM     17  C   UNL     1       7.852   7.985  17.867  0.00  0.00    +0.000 A 
ATOM     18  C   UNL     1       8.381   7.399  19.014  0.00  0.00    +0.000 A 
ATOM     19  C   UNL     1       8.182   6.041  19.252  0.00  0.00    +0.000 A 
ATOM     20  C   UNL     1       7.467   5.261  18.337  0.00  0.00    +0.000 A 
ENDBRANCH  12  15
ENDBRANCH   1  13
BRANCH   6  21
ATOM     21  C   UNL     1       1.815   7.952  20.012  0.00  0.00    +0.000 A 
ATOM     22  C   UNL     1       1.618   7.939  21.399  0.00  0.00    +0.000 A 
ATOM     23  C   UNL     1       1.061   9.040  22.063  0.00  0.00    +0.000 A 
ATOM     24  C   UNL     1       0.685  10.175  21.344  0.00  0.00    +0.000 A 
ATOM     25  C   UNL     1       0.885  10.215  19.967  0.00  0.00    +0.000 A 
ATOM     26  C   UNL     1       1.454   9.117  19.315  0.00  0.00    +0.000 A 
BRANCH  25  27
ATOM     27  C   UNL     1       0.487  11.360  19.204  0.00  0.00    +0.000 C 
ATOM     28  N   UNL     1       0.169  12.290  18.590  0.00  0.00    +0.000 NA
ENDBRANCH  25  27
ENDBRANCH   6  21
TORSDOF 4
ENDMDL
MODEL 6
REMARK VINA RESULT:      -7.7      1.284      2.087
REMARK  Name = 
REMARK  5 active torsions:
REMARK  status: ('A' for Active; 'I' for Inactive)
REMARK    1  A    between atoms: C_1  and  C_2
REMARK    2  A    between atoms: C_4  and  C_5
REMARK    3  A    between atoms: C_11  and  C_12
REMARK    4  A    between atoms: N_17  and  C_18
REMARK    5  A    between atoms: C_22  and  C_23
REMARK                            x       y       z     vdW  Elec       q    Type
REMARK                         _______ _______ _______ _____ _____    ______ ____
ROOT
ATOM      1  C   UNL     1      -0.187  10.036  20.009  0.00  0.00    +0.000 C 
ATOM      2  O   UNL     1      -0.508  10.151  21.193  0.00  0.00    +0.000 OA
ATOM      3  N   UNL     1       0.924   9.263  19.657  0.00  0.00    +0.000 N 
ATOM      4  C   UNL     1       1.576   8.425  20.670  0.00  0.00    +0.000 C 
ATOM      5  C   UNL     1       1.891   7.023  20.104  0.00  0.00    +0.000 C 
ATOM      6  N   UNL     1       2.675   7.159  18.860  0.00  0.00    +0.000 N 
ATOM      7  C   UNL     1       2.027   7.992  17.822  0.00  0.00    +0.000 C 
ATOM      8  C   UNL     1       1.694   9.377  18.408  0.00  0.00    +0.000 C 
ENDROOT
BRANCH   1  13
ATOM      9  C   UNL     1      -2.998  10.043  16.100  0.00  0.00    +0.000 C 
ATOM     10  C   UNL     1      -2.276  10.675  17.220  0.00  0.00    +0.000 A 
ATOM     11  N   UNL     1      -2.060  11.947  17.455  0.00  0.00    +0.000 NA
ATOM     12  C   UNL     1      -1.211  11.953  18.551  0.00  0.00    +0.000 A 
ATOM     13  C   UNL     1      -0.950  10.648  18.942  0.00  0.00    +0.000 A 
ATOM     14  O   UNL     1      -1.684   9.831  18.106  0.00  0.00    +0.000 OA
BRANCH  12  15
ATOM     15  C   UNL     1      -0.681  13.204  19.070  0.00  0.00    +0.000 A 
ATOM     16  C   UNL     1       0.529  13.692  18.550  0.00  0.00    +0.000 A 
ATOM     17  C   UNL     1       1.140  14.827  19.088  0.00  0.00    +0.000 A 
ATOM     18  C   UNL     1       0.546  15.493  20.157  0.00  0.00    +0.000 A 
ATOM     19  C   UNL     1      -0.662  15.030  20.676  0.00  0.00    +0.000 A 
ATOM     20  C   UNL     1      -1.271  13.891  20.138  0.00  0.00    +0.000 A 
ENDBRANCH  12  15
ENDBRANCH   1  13
BRANCH   6  21
ATOM     21  C   UNL     1       3.442   6.094  18.405  0.00  0.00    +0.000 A 
ATOM     22  C   UNL     1       3.219   4.759  18.767  0.00  0.00    +0.000 A 
ATOM     23  C   UNL     1       4.081   3.739  18.345  0.00  0.00    +0.000 A 
ATOM     24  C   UNL     1       5.191   4.041  17.557  0.00  0.00    +0.000 A 
ATOM     25  C   UNL     1       5.426   5.359  17.174  0.00  0.00    +0.000 A 
ATOM     26  C   UNL     1       4.552   6.369  17.589  0.00  0.00    +0.000 A 
BRANCH  25  27
ATOM     27  C   UNL     1       6.571   5.697  16.383  0.00  0.00    +0.000 C 
ATOM     28  N   UNL     1       7.493   5.972  15.739  0.00  0.00    +0.000 NA
ENDBRANCH  25  27
ENDBRANCH   6  21
TORSDOF 4
ENDMDL
MODEL 7
REMARK VINA RESULT:      -7.6      1.242      1.814
REMARK  Name = 
REMARK  5 active torsions:
REMARK  status: ('A' for Active; 'I' for Inactive)
REMARK    1  A    between atoms: C_1  and  C_2
REMARK    2  A    between atoms: C_4  and  C_5
REMARK    3  A    between atoms: C_11  and  C_12
REMARK    4  A    between atoms: N_17  and  C_18
REMARK    5  A    between atoms: C_22  and  C_23
REMARK                            x       y       z     vdW  Elec       q    Type
REMARK                         _______ _______ _______ _____ _____    ______ ____
ROOT
ATOM      1  C   UNL     1      -0.231   9.927  20.106  0.00  0.00    +0.000 C 
ATOM      2  O   UNL     1      -0.497   9.895  21.309  0.00  0.00    +0.000 OA
ATOM      3  N   UNL     1       0.910   9.278  19.625  0.00  0.00    +0.000 N 
ATOM      4  C   UNL     1       1.670   8.390  20.512  0.00  0.00    +0.000 C 
ATOM      5  C   UNL     1       2.050   7.080  19.787  0.00  0.00    +0.000 C 
ATOM      6  N   UNL     1       2.757   7.401  18.530  0.00  0.00    +0.000 N 
ATOM      7  C   UNL     1       2.000   8.287  17.617  0.00  0.00    +0.000 C 
ATOM      8  C   UNL     1       1.605   9.576  18.361  0.00  0.00    +0.000 C 
ENDROOT
BRANCH   1  13
ATOM      9  C   UNL     1      -2.576  10.369  15.924  0.00  0.00    +0.000 C 
ATOM     10  C   UNL     1      -2.212  10.776  17.294  0.00  0.00    +0.000 A 
ATOM     11  N   UNL     1      -2.489  11.888  17.930  0.00  0.00    +0.000 NA
ATOM     12  C   UNL     1      -1.778  11.790  19.117  0.00  0.00    +0.000 A 
ATOM     13  C   UNL     1      -1.089  10.588  19.146  0.00  0.00    +0.000 A 
ATOM     14  O   UNL     1      -1.416   9.917  17.985  0.00  0.00    +0.000 OA
BRANCH  12  15
ATOM     15  C   UNL     1      -1.776  12.889  20.071  0.00  0.00    +0.000 A 
ATOM     16  C   UNL     1      -0.630  13.695  20.169  0.00  0.00    +0.000 A 
ATOM     17  C   UNL     1      -0.531  14.690  21.145  0.00  0.00    +0.000 A 
ATOM     18  C   UNL     1      -1.580  14.894  22.037  0.00  0.00    +0.000 A 
ATOM     19  C   UNL     1      -2.729  14.112  21.943  0.00  0.00    +0.000 A 
ATOM     20  C   UNL     1      -2.827  13.114  20.968  0.00  0.00    +0.000 A 
ENDBRANCH  12  15
ENDBRANCH   1  13
BRANCH   6  21
ATOM     21  C   UNL     1       3.571   6.448  17.931  0.00  0.00    +0.000 A 
ATOM     22  C   UNL     1       4.568   6.749  16.994  0.00  0.00    +0.000 A 
ATOM     23  C   UNL     1       5.297   5.735  16.360  0.00  0.00    +0.000 A 
ATOM     24  C   UNL     1       5.033   4.396  16.649  0.00  0.00    +0.000 A 
ATOM     25  C   UNL     1       4.057   4.074  17.587  0.00  0.00    +0.000 A 
ATOM     26  C   UNL     1       3.343   5.093  18.225  0.00  0.00    +0.000 A 
BRANCH  25  27
ATOM     27  C   UNL     1       3.752   2.706  17.885  0.00  0.00    +0.000 C 
ATOM     28  N   UNL     1       3.509   1.601  18.131  0.00  0.00    +0.000 NA
ENDBRANCH  25  27
ENDBRANCH   6  21
TORSDOF 4
ENDMDL
MODEL 8
REMARK VINA RESULT:      -7.5      1.689      2.304
REMARK  Name = 
REMARK  5 active torsions:
REMARK  status: ('A' for Active; 'I' for Inactive)
REMARK    1  A    between atoms: C_1  and  C_2
REMARK    2  A    between atoms: C_4  and  C_5
REMARK    3  A    between atoms: C_11  and  C_12
REMARK    4  A    between atoms: N_17  and  C_18
REMARK    5  A    between atoms: C_22  and  C_23
REMARK                            x       y       z     vdW  Elec       q    Type
REMARK                         _______ _______ _______ _____ _____    ______ ____
ROOT
ATOM      1  C   UNL     1       0.054   9.724  20.584  0.00  0.00    +0.000 C 
ATOM      2  O   UNL     1      -0.205   9.600  21.783  0.00  0.00    +0.000 OA
ATOM      3  N   UNL     1       1.072   8.960  20.006  0.00  0.00    +0.000 N 
ATOM      4  C   UNL     1       1.686   7.868  20.771  0.00  0.00    +0.000 C 
ATOM      5  C   UNL     1       1.844   6.605  19.896  0.00  0.00    +0.000 C 
ATOM      6  N   UNL     1       2.584   6.949  18.664  0.00  0.00    +0.000 N 
ATOM      7  C   UNL     1       1.973   8.042  17.874  0.00  0.00    +0.000 C 
ATOM      8  C   UNL     1       1.796   9.285  18.765  0.00  0.00    +0.000 C 
ENDROOT
BRANCH   1  13
ATOM      9  C   UNL     1      -2.608  10.873  16.740  0.00  0.00    +0.000 C 
ATOM     10  C   UNL     1      -1.955  11.144  18.034  0.00  0.00    +0.000 A 
ATOM     11  N   UNL     1      -1.799  12.284  18.662  0.00  0.00    +0.000 NA
ATOM     12  C   UNL     1      -0.993  11.971  19.746  0.00  0.00    +0.000 A 
ATOM     13  C   UNL     1      -0.694  10.617  19.725  0.00  0.00    +0.000 A 
ATOM     14  O   UNL     1      -1.362  10.082  18.642  0.00  0.00    +0.000 OA
BRANCH  12  15
ATOM     15  C   UNL     1      -0.535  13.012  20.653  0.00  0.00    +0.000 A 
ATOM     16  C   UNL     1      -1.077  13.066  21.947  0.00  0.00    +0.000 A 
ATOM     17  C   UNL     1      -0.758  14.109  22.820  0.00  0.00    +0.000 A 
ATOM     18  C   UNL     1       0.111  15.116  22.408  0.00  0.00    +0.000 A 
ATOM     19  C   UNL     1       0.668  15.070  21.132  0.00  0.00    +0.000 A 
ATOM     20  C   UNL     1       0.347  14.026  20.258  0.00  0.00    +0.000 A 
ENDBRANCH  12  15
ENDBRANCH   1  13
BRANCH   6  21
ATOM     21  C   UNL     1       3.229   5.952  17.944  0.00  0.00    +0.000 A 
ATOM     22  C   UNL     1       2.755   4.639  17.829  0.00  0.00    +0.000 A 
ATOM     23  C   UNL     1       3.496   3.656  17.160  0.00  0.00    +0.000 A 
ATOM     24  C   UNL     1       4.734   3.971  16.600  0.00  0.00    +0.000 A 
ATOM     25  C   UNL     1       5.219   5.273  16.690  0.00  0.00    +0.000 A 
ATOM     26  C   UNL     1       4.466   6.251  17.348  0.00  0.00    +0.000 A 
BRANCH  25  27
ATOM     27  C   UNL     1       6.497   5.616  16.142  0.00  0.00    +0.000 C 
ATOM     28  N   UNL     1       7.529   5.899  15.700  0.00  0.00    +0.000 NA
ENDBRANCH  25  27
ENDBRANCH   6  21
TORSDOF 4
ENDMDL
MODEL 9
REMARK VINA RESULT:      -7.5      2.497      4.149
REMARK  Name = 
REMARK  5 active torsions:
REMARK  status: ('A' for Active; 'I' for Inactive)
REMARK    1  A    between atoms: C_1  and  C_2
REMARK    2  A    between atoms: C_4  and  C_5
REMARK    3  A    between atoms: C_11  and  C_12
REMARK    4  A    between atoms: N_17  and  C_18
REMARK    5  A    between atoms: C_22  and  C_23
REMARK                            x       y       z     vdW  Elec       q    Type
REMARK                         _______ _______ _______ _____ _____    ______ ____
ROOT
ATOM      1  C   UNL     1      -1.201  11.605  22.183  0.00  0.00    +0.000 C 
ATOM      2  O   UNL     1      -1.980  11.508  23.133  0.00  0.00    +0.000 OA
ATOM      3  N   UNL     1      -0.271  10.591  21.935  0.00  0.00    +0.000 N 
ATOM      4  C   UNL     1      -0.361   9.325  22.672  0.00  0.00    +0.000 C 
ATOM      5  C   UNL     1      -0.171   8.121  21.724  0.00  0.00    +0.000 C 
ATOM      6  N   UNL     1       1.093   8.278  20.976  0.00  0.00    +0.000 N 
ATOM      7  C   UNL     1       1.197   9.544  20.217  0.00  0.00    +0.000 C 
ATOM      8  C   UNL     1       0.979  10.734  21.170  0.00  0.00    +0.000 C 
ENDROOT
BRANCH   1  13
ATOM      9  C   UNL     1      -0.681  16.223  20.924  0.00  0.00    +0.000 C 
ATOM     10  C   UNL     1      -0.941  14.795  20.664  0.00  0.00    +0.000 A 
ATOM     11  N   UNL     1      -1.375  14.217  19.570  0.00  0.00    +0.000 NA
ATOM     12  C   UNL     1      -1.573  12.894  19.937  0.00  0.00    +0.000 A 
ATOM     13  C   UNL     1      -1.236  12.728  21.272  0.00  0.00    +0.000 A 
ATOM     14  O   UNL     1      -0.781  13.952  21.719  0.00  0.00    +0.000 OA
BRANCH  12  15
ATOM     15  C   UNL     1      -2.131  11.940  18.992  0.00  0.00    +0.000 A 
ATOM     16  C   UNL     1      -3.526  11.868  18.849  0.00  0.00    +0.000 A 
ATOM     17  C   UNL     1      -4.120  10.895  18.041  0.00  0.00    +0.000 A 
ATOM     18  C   UNL     1      -3.322   9.977  17.362  0.00  0.00    +0.000 A 
ATOM     19  C   UNL     1      -1.935  10.044  17.482  0.00  0.00    +0.000 A 
ATOM     20  C   UNL     1      -1.342  11.017  18.293  0.00  0.00    +0.000 A 
ENDBRANCH  12  15
ENDBRANCH   1  13
BRANCH   6  21
ATOM     21  C   UNL     1       1.704   7.166  20.409  0.00  0.00    +0.000 A 
ATOM     22  C   UNL     1       2.372   7.185  19.178  0.00  0.00    +0.000 A 
ATOM     23  C   UNL     1       2.892   6.011  18.617  0.00  0.00    +0.000 A 
ATOM     24  C   UNL     1       2.744   4.793  19.279  0.00  0.00    +0.000 A 
ATOM     25  C   UNL     1       2.096   4.753  20.510  0.00  0.00    +0.000 A 
ATOM     26  C   UNL     1       1.592   5.931  21.069  0.00  0.00    +0.000 A 
BRANCH  25  27
ATOM     27  C   UNL     1       1.913   3.510  21.200  0.00  0.00    +0.000 C 
ATOM     28  N   UNL     1       1.759   2.506  21.757  0.00  0.00    +0.000 NA
ENDBRANCH  25  27
ENDBRANCH   6  21
TORSDOF 4
ENDMDL
