MODEL 1
REMARK VINA RESULT:      -8.0      0.000      0.000
REMARK  Name = 
REMARK  6 active torsions:
REMARK  status: ('A' for Active; 'I' for Inactive)
REMARK    1  A    between atoms: C_1  and  C_2
REMARK    2  A    between atoms: C_7  and  O_8
REMARK    3  A    between atoms: O_8  and  C_9
REMARK    4  A    between atoms: C_9  and  C_10
REMARK    5  A    between atoms: C_9  and  C_11
REMARK    6  A    between atoms: C_13  and  C_14
REMARK                            x       y       z     vdW  Elec       q    Type
REMARK                         _______ _______ _______ _____ _____    ______ ____
ROOT
ATOM      1  C   UNL     1       5.780   5.516  17.577  0.00  0.00    +0.000 A 
ATOM      2  N   UNL     1       6.261   4.710  16.659  0.00  0.00    +0.000 NA
ATOM      3  C   UNL     1       5.931   5.350  15.487  0.00  0.00    +0.000 A 
ATOM      4  N   UNL     1       5.279   6.513  15.667  0.00  0.00    +0.000 NA
ATOM      5  O   UNL     1       5.173   6.622  17.059  0.00  0.00    +0.000 OA
ENDROOT
BRANCH   3   6
ATOM      6  C   UNL     1       6.248   4.758  14.192  0.00  0.00    +0.000 A 
ATOM      7  C   UNL     1       5.381   3.803  13.634  0.00  0.00    +0.000 A 
ATOM      8  C   UNL     1       5.648   3.234  12.387  0.00  0.00    +0.000 A 
ATOM      9  C   UNL     1       6.790   3.614  11.683  0.00  0.00    +0.000 A 
ATOM     10  C   UNL     1       7.659   4.559  12.223  0.00  0.00    +0.000 A 
ATOM     11  C   UNL     1       7.391   5.130  13.473  0.00  0.00    +0.000 A 
ENDBRANCH   3   6
BRANCH   1  12
ATOM     12  C   UNL     1       5.751   5.300  19.054  0.00  0.00    +0.000 C 
ATOM     13  C   UNL     1       7.150   5.477  19.633  0.00  0.00    +0.000 C 
BRANCH  12  14
ATOM     14  O   UNL     1       5.194   4.010  19.309  0.00  0.00    +0.000 OA
BRANCH  14  21
ATOM     15  C   UNL     1       3.517   1.541  18.411  0.00  0.00    +0.000 C 
ATOM     16  C   UNL     1       3.026   2.803  19.062  0.00  0.00    +0.000 A 
ATOM     17  C   UNL     1       1.641   2.862  19.333  0.00  0.00    +0.000 A 
ATOM     18  C   UNL     1       1.081   3.927  20.036  0.00  0.00    +0.000 A 
ATOM     19  C   UNL     1       1.892   4.966  20.465  0.00  0.00    +0.000 A 
ATOM     20  C   UNL     1       3.257   4.944  20.170  0.00  0.00    +0.000 A 
ATOM     21  C   UNL     1       3.834   3.886  19.448  0.00  0.00    +0.000 A 
ENDBRANCH  14  21
ENDBRANCH  12  14
ENDBRANCH   1  12
TORSDOF 4
ENDMDL
MODEL 2
REMARK VINA RESULT:      -8.0      0.095      1.057
REMARK  Name = 
REMARK  6 active torsions:
REMARK  status: ('A' for Active; 'I' for Inactive)
REMARK    1  A    between atoms: C_1  and  C_2
REMARK    2  A    between atoms: C_7  and  O_8
REMARK    3  A    between atoms: O_8  and  C_9
REMARK    4  A    between atoms: C_9  and  C_10
REMARK    5  A    between atoms: C_9  and  C_11
REMARK    6  A    between atoms: C_13  and  C_14
REMARK                            x       y       z     vdW  Elec       q    Type
REMARK                         _______ _______ _______ _____ _____    ______ ____
ROOT
ATOM      1  C   UNL     1       5.745   5.523  17.611  0.00  0.00    +0.000 A 
ATOM      2  N   UNL     1       6.221   4.722  16.685  0.00  0.00    +0.000 NA
ATOM      3  C   UNL     1       5.871   5.363  15.519  0.00  0.00    +0.000 A 
ATOM      4  N   UNL     1       5.213   6.520  15.710  0.00  0.00    +0.000 NA
ATOM      5  O   UNL     1       5.124   6.625  17.103  0.00  0.00    +0.000 OA
ENDROOT
BRANCH   3   6
ATOM      6  C   UNL     1       6.176   4.776  14.218  0.00  0.00    +0.000 A 
ATOM      7  C   UNL     1       7.349   5.154  13.544  0.00  0.00    +0.000 A 
ATOM      8  C   UNL     1       7.677   4.596  12.307  0.00  0.00    +0.000 A 
ATOM      9  C   UNL     1       6.833   3.650  11.729  0.00  0.00    +0.000 A 
ATOM     10  C   UNL     1       5.666   3.263  12.385  0.00  0.00    +0.000 A 
ATOM     11  C   UNL     1       5.337   3.824  13.625  0.00  0.00    +0.000 A 
ENDBRANCH   3   6
BRANCH   1  12
ATOM     12  C   UNL     1       5.736   5.304  19.087  0.00  0.00    +0.000 C 
ATOM     13  C   UNL     1       7.143   5.481  19.648  0.00  0.00    +0.000 C 
BRANCH  12  14
ATOM     14  O   UNL     1       5.185   4.013  19.347  0.00  0.00    +0.000 OA
BRANCH  14  21
ATOM     15  C   UNL     1       3.544   1.626  18.195  0.00  0.00    +0.000 C 
ATOM     16  C   UNL     1       3.029   2.828  18.936  0.00  0.00    +0.000 A 
ATOM     17  C   UNL     1       1.637   2.861  19.170  0.00  0.00    +0.000 A 
ATOM     18  C   UNL     1       1.052   3.862  19.944  0.00  0.00    +0.000 A 
ATOM     19  C   UNL     1       1.847   4.863  20.482  0.00  0.00    +0.000 A 
ATOM     20  C   UNL     1       3.220   4.868  20.227  0.00  0.00    +0.000 A 
ATOM     21  C   UNL     1       3.821   3.876  19.435  0.00  0.00    +0.000 A 
ENDBRANCH  14  21
ENDBRANCH  12  14
ENDBRANCH   1  12
TORSDOF 4
ENDMDL
MODEL 3
REMARK VINA RESULT:      -7.7      1.316      2.311
REMARK  Name = 
REMARK  6 active torsions:
REMARK  status: ('A' for Active; 'I' for Inactive)
REMARK    1  A    between atoms: C_1  and  C_2
REMARK    2  A    between atoms: C_7  and  O_8
REMARK    3  A    between atoms: O_8  and  C_9
REMARK    4  A    between atoms: C_9  and  C_10
REMARK    5  A    between atoms: C_9  and  C_11
REMARK    6  A    between atoms: C_13  and  C_14
REMARK                            x       y       z     vdW  Elec       q    Type
REMARK                         _______ _______ _______ _____ _____    ______ ____
ROOT
ATOM      1  C   UNL     1       5.600   5.606  17.276  0.00  0.00    +0.000 A 
ATOM      2  N   UNL     1       5.305   5.026  16.135  0.00  0.00    +0.000 NA
ATOM      3  C   UNL     1       6.478   5.137  15.424  0.00  0.00    +0.000 A 
ATOM      4  N   UNL     1       7.467   5.751  16.098  0.00  0.00    +0.000 NA
ATOM      5  O   UNL     1       6.882   6.069  17.329  0.00  0.00    +0.000 OA
ENDROOT
BRANCH   3   6
ATOM      6  C   UNL     1       6.574   4.649  14.052  0.00  0.00    +0.000 A 
ATOM      7  C   UNL     1       7.530   5.203  13.184  0.00  0.00    +0.000 A 
ATOM      8  C   UNL     1       7.659   4.744  11.872  0.00  0.00    +0.000 A 
ATOM      9  C   UNL     1       6.829   3.723  11.412  0.00  0.00    +0.000 A 
ATOM     10  C   UNL     1       5.877   3.162  12.260  0.00  0.00    +0.000 A 
ATOM     11  C   UNL     1       5.748   3.623  13.575  0.00  0.00    +0.000 A 
ENDBRANCH   3   6
BRANCH   1  12
ATOM     12  C   UNL     1       4.685   5.877  18.423  0.00  0.00    +0.000 C 
ATOM     13  C   UNL     1       5.033   4.963  19.593  0.00  0.00    +0.000 C 
BRANCH  12  14
ATOM     14  O   UNL     1       3.339   5.725  17.970  0.00  0.00    +0.000 OA
BRANCH  14  21
ATOM     15  C   UNL     1       1.792   6.339  20.606  0.00  0.00    +0.000 C 
ATOM     16  C   UNL     1       1.792   5.063  19.811  0.00  0.00    +0.000 A 
ATOM     17  C   UNL     1       0.961   4.030  20.298  0.00  0.00    +0.000 A 
ATOM     18  C   UNL     1       0.785   2.842  19.590  0.00  0.00    +0.000 A 
ATOM     19  C   UNL     1       1.454   2.655  18.389  0.00  0.00    +0.000 A 
ATOM     20  C   UNL     1       2.311   3.650  17.914  0.00  0.00    +0.000 A 
ATOM     21  C   UNL     1       2.512   4.845  18.624  0.00  0.00    +0.000 A 
ENDBRANCH  14  21
ENDBRANCH  12  14
ENDBRANCH   1  12
TORSDOF 4
ENDMDL
MODEL 4
REMARK VINA RESULT:      -7.6      1.252      1.703
REMARK  Name = 
REMARK  6 active torsions:
REMARK  status: ('A' for Active; 'I' for Inactive)
REMARK    1  A    between atoms: C_1  and  C_2
REMARK    2  A    between atoms: C_7  and  O_8
REMARK    3  A    between atoms: O_8  and  C_9
REMARK    4  A    between atoms: C_9  and  C_10
REMARK    5  A    between atoms: C_9  and  C_11
REMARK    6  A    between atoms: C_13  and  C_14
REMARK                            x       y       z     vdW  Elec       q    Type
REMARK                         _______ _______ _______ _____ _____    ______ ____
ROOT
ATOM      1  C   UNL     1       5.970   5.195  17.843  0.00  0.00    +0.000 A 
ATOM      2  N   UNL     1       5.823   4.518  16.727  0.00  0.00    +0.000 NA
ATOM      3  C   UNL     1       6.642   5.192  15.851  0.00  0.00    +0.000 A 
ATOM      4  N   UNL     1       7.281   6.241  16.400  0.00  0.00    +0.000 NA
ATOM      5  O   UNL     1       6.830   6.247  17.725  0.00  0.00    +0.000 OA
ENDROOT
BRANCH   3   6
ATOM      6  C   UNL     1       6.741   4.788  14.453  0.00  0.00    +0.000 A 
ATOM      7  C   UNL     1       7.671   5.421  13.611  0.00  0.00    +0.000 A 
ATOM      8  C   UNL     1       7.802   5.042  12.274  0.00  0.00    +0.000 A 
ATOM      9  C   UNL     1       7.002   4.023  11.761  0.00  0.00    +0.000 A 
ATOM     10  C   UNL     1       6.076   3.384  12.583  0.00  0.00    +0.000 A 
ATOM     11  C   UNL     1       5.944   3.764  13.924  0.00  0.00    +0.000 A 
ENDBRANCH   3   6
BRANCH   1  12
ATOM     12  C   UNL     1       5.249   4.991  19.133  0.00  0.00    +0.000 C 
ATOM     13  C   UNL     1       5.249   3.512  19.502  0.00  0.00    +0.000 C 
BRANCH  12  14
ATOM     14  O   UNL     1       3.936   5.540  19.007  0.00  0.00    +0.000 OA
BRANCH  14  21
ATOM     15  C   UNL     1       2.633   3.647  16.901  0.00  0.00    +0.000 C 
ATOM     16  C   UNL     1       2.221   3.861  18.330  0.00  0.00    +0.000 A 
ATOM     17  C   UNL     1       1.133   3.083  18.784  0.00  0.00    +0.000 A 
ATOM     18  C   UNL     1       0.728   3.104  20.117  0.00  0.00    +0.000 A 
ATOM     19  C   UNL     1       1.390   3.922  21.020  0.00  0.00    +0.000 A 
ATOM     20  C   UNL     1       2.442   4.728  20.580  0.00  0.00    +0.000 A 
ATOM     21  C   UNL     1       2.851   4.730  19.236  0.00  0.00    +0.000 A 
ENDBRANCH  14  21
ENDBRANCH  12  14
ENDBRANCH   1  12
TORSDOF 4
ENDMDL
MODEL 5
REMARK VINA RESULT:      -7.6      1.121      1.738
REMARK  Name = 
REMARK  6 active torsions:
REMARK  status: ('A' for Active; 'I' for Inactive)
REMARK    1  A    between atoms: C_1  and  C_2
REMARK    2  A    between atoms: C_7  and  O_8
REMARK    3  A    between atoms: O_8  and  C_9
REMARK    4  A    between atoms: C_9  and  C_10
REMARK    5  A    between atoms: C_9  and  C_11
REMARK    6  A    between atoms: C_13  and  C_14
REMARK                            x       y       z     vdW  Elec       q    Type
REMARK                         _______ _______ _______ _____ _____    ______ ____
ROOT
ATOM      1  C   UNL     1       5.215   5.206  17.066  0.00  0.00    +0.000 A 
ATOM      2  N   UNL     1       5.445   4.266  16.179  0.00  0.00    +0.000 NA
ATOM      3  C   UNL     1       5.596   4.978  15.011  0.00  0.00    +0.000 A 
ATOM      4  N   UNL     1       5.475   6.309  15.166  0.00  0.00    +0.000 NA
ATOM      5  O   UNL     1       5.215   6.461  16.533  0.00  0.00    +0.000 OA
ENDROOT
BRANCH   3   6
ATOM      6  C   UNL     1       5.827   4.299  13.741  0.00  0.00    +0.000 A 
ATOM      7  C   UNL     1       7.111   4.313  13.169  0.00  0.00    +0.000 A 
ATOM      8  C   UNL     1       7.366   3.656  11.964  0.00  0.00    +0.000 A 
ATOM      9  C   UNL     1       6.337   2.975  11.315  0.00  0.00    +0.000 A 
ATOM     10  C   UNL     1       5.059   2.951  11.869  0.00  0.00    +0.000 A 
ATOM     11  C   UNL     1       4.803   3.610  13.077  0.00  0.00    +0.000 A 
ENDBRANCH   3   6
BRANCH   1  12
ATOM     12  C   UNL     1       4.875   5.033  18.509  0.00  0.00    +0.000 C 
ATOM     13  C   UNL     1       6.092   5.347  19.371  0.00  0.00    +0.000 C 
BRANCH  12  14
ATOM     14  O   UNL     1       4.377   3.708  18.698  0.00  0.00    +0.000 OA
BRANCH  14  21
ATOM     15  C   UNL     1       1.466   4.267  17.735  0.00  0.00    +0.000 C 
ATOM     16  C   UNL     1       1.912   3.758  19.076  0.00  0.00    +0.000 A 
ATOM     17  C   UNL     1       0.886   3.462  20.000  0.00  0.00    +0.000 A 
ATOM     18  C   UNL     1       1.163   2.877  21.234  0.00  0.00    +0.000 A 
ATOM     19  C   UNL     1       2.476   2.593  21.578  0.00  0.00    +0.000 A 
ATOM     20  C   UNL     1       3.507   2.917  20.694  0.00  0.00    +0.000 A 
ATOM     21  C   UNL     1       3.246   3.523  19.454  0.00  0.00    +0.000 A 
ENDBRANCH  14  21
ENDBRANCH  12  14
ENDBRANCH   1  12
TORSDOF 4
ENDMDL
MODEL 6
REMARK VINA RESULT:      -7.6      1.807      2.906
REMARK  Name = 
REMARK  6 active torsions:
REMARK  status: ('A' for Active; 'I' for Inactive)
REMARK    1  A    between atoms: C_1  and  C_2
REMARK    2  A    between atoms: C_7  and  O_8
REMARK    3  A    between atoms: O_8  and  C_9
REMARK    4  A    between atoms: C_9  and  C_10
REMARK    5  A    between atoms: C_9  and  C_11
REMARK    6  A    between atoms: C_13  and  C_14
REMARK                            x       y       z     vdW  Elec       q    Type
REMARK                         _______ _______ _______ _____ _____    ______ ____
ROOT
ATOM      1  C   UNL     1       5.580   4.282  17.796  0.00  0.00    +0.000 A 
ATOM      2  N   UNL     1       5.344   4.227  16.506  0.00  0.00    +0.000 NA
ATOM      3  C   UNL     1       6.598   4.366  15.958  0.00  0.00    +0.000 A 
ATOM      4  N   UNL     1       7.579   4.492  16.871  0.00  0.00    +0.000 NA
ATOM      5  O   UNL     1       6.901   4.442  18.095  0.00  0.00    +0.000 OA
ENDROOT
BRANCH   3   6
ATOM      6  C   UNL     1       6.788   4.405  14.513  0.00  0.00    +0.000 A 
ATOM      7  C   UNL     1       7.700   5.317  13.956  0.00  0.00    +0.000 A 
ATOM      8  C   UNL     1       7.917   5.365  12.578  0.00  0.00    +0.000 A 
ATOM      9  C   UNL     1       7.220   4.497  11.737  0.00  0.00    +0.000 A 
ATOM     10  C   UNL     1       6.313   3.587  12.273  0.00  0.00    +0.000 A 
ATOM     11  C   UNL     1       6.095   3.540  13.655  0.00  0.00    +0.000 A 
ENDBRANCH   3   6
BRANCH   1  12
ATOM     12  C   UNL     1       4.583   4.283  18.906  0.00  0.00    +0.000 C 
ATOM     13  C   UNL     1       4.549   2.914  19.576  0.00  0.00    +0.000 C 
BRANCH  12  14
ATOM     14  O   UNL     1       3.319   4.681  18.374  0.00  0.00    +0.000 OA
BRANCH  14  21
ATOM     15  C   UNL     1       1.960   5.037  21.157  0.00  0.00    +0.000 C 
ATOM     16  C   UNL     1       2.113   6.060  20.067  0.00  0.00    +0.000 A 
ATOM     17  C   UNL     1       1.613   7.350  20.353  0.00  0.00    +0.000 A 
ATOM     18  C   UNL     1       1.796   8.414  19.472  0.00  0.00    +0.000 A 
ATOM     19  C   UNL     1       2.466   8.205  18.276  0.00  0.00    +0.000 A 
ATOM     20  C   UNL     1       2.931   6.927  17.959  0.00  0.00    +0.000 A 
ATOM     21  C   UNL     1       2.740   5.841  18.828  0.00  0.00    +0.000 A 
ENDBRANCH  14  21
ENDBRANCH  12  14
ENDBRANCH   1  12
TORSDOF 4
ENDMDL
MODEL 7
REMARK VINA RESULT:      -7.5      0.657      1.945
REMARK  Name = 
REMARK  6 active torsions:
REMARK  status: ('A' for Active; 'I' for Inactive)
REMARK    1  A    between atoms: C_1  and  C_2
REMARK    2  A    between atoms: C_7  and  O_8
REMARK    3  A    between atoms: O_8  and  C_9
REMARK    4  A    between atoms: C_9  and  C_10
REMARK    5  A    between atoms: C_9  and  C_11
REMARK    6  A    between atoms: C_13  and  C_14
REMARK                            x       y       z     vdW  Elec       q    Type
REMARK                         _______ _______ _______ _____ _____    ______ ____
ROOT
ATOM      1  C   UNL     1       5.877   5.521  17.578  0.00  0.00    +0.000 A 
ATOM      2  N   UNL     1       6.307   4.700  16.648  0.00  0.00    +0.000 NA
ATOM      3  C   UNL     1       5.983   5.359  15.485  0.00  0.00    +0.000 A 
ATOM      4  N   UNL     1       5.385   6.548  15.682  0.00  0.00    +0.000 NA
ATOM      5  O   UNL     1       5.309   6.654  17.076  0.00  0.00    +0.000 OA
ENDROOT
BRANCH   3   6
ATOM      6  C   UNL     1       6.251   4.760  14.182  0.00  0.00    +0.000 A 
ATOM      7  C   UNL     1       7.392   5.149  13.461  0.00  0.00    +0.000 A 
ATOM      8  C   UNL     1       7.685   4.580  12.220  0.00  0.00    +0.000 A 
ATOM      9  C   UNL     1       6.836   3.613  11.684  0.00  0.00    +0.000 A 
ATOM     10  C   UNL     1       5.701   3.216  12.387  0.00  0.00    +0.000 A 
ATOM     11  C   UNL     1       5.407   3.787  13.631  0.00  0.00    +0.000 A 
ENDBRANCH   3   6
BRANCH   1  12
ATOM     12  C   UNL     1       5.866   5.300  19.054  0.00  0.00    +0.000 C 
ATOM     13  C   UNL     1       7.266   5.502  19.621  0.00  0.00    +0.000 C 
BRANCH  12  14
ATOM     14  O   UNL     1       5.338   3.998  19.310  0.00  0.00    +0.000 OA
BRANCH  14  21
ATOM     15  C   UNL     1       2.973   5.910  19.992  0.00  0.00    +0.000 C 
ATOM     16  C   UNL     1       2.910   4.568  19.319  0.00  0.00    +0.000 A 
ATOM     17  C   UNL     1       1.627   4.138  18.914  0.00  0.00    +0.000 A 
ATOM     18  C   UNL     1       1.450   2.967  18.178  0.00  0.00    +0.000 A 
ATOM     19  C   UNL     1       2.552   2.191  17.851  0.00  0.00    +0.000 A 
ATOM     20  C   UNL     1       3.823   2.581  18.279  0.00  0.00    +0.000 A 
ATOM     21  C   UNL     1       4.016   3.749  19.035  0.00  0.00    +0.000 A 
ENDBRANCH  14  21
ENDBRANCH  12  14
ENDBRANCH   1  12
TORSDOF 4
ENDMDL
MODEL 8
REMARK VINA RESULT:      -7.5      1.210      1.680
REMARK  Name = 
REMARK  6 active torsions:
REMARK  status: ('A' for Active; 'I' for Inactive)
REMARK    1  A    between atoms: C_1  and  C_2
REMARK    2  A    between atoms: C_7  and  O_8
REMARK    3  A    between atoms: O_8  and  C_9
REMARK    4  A    between atoms: C_9  and  C_10
REMARK    5  A    between atoms: C_9  and  C_11
REMARK    6  A    between atoms: C_13  and  C_14
REMARK                            x       y       z     vdW  Elec       q    Type
REMARK                         _______ _______ _______ _____ _____    ______ ____
ROOT
ATOM      1  C   UNL     1       5.340   5.662  17.145  0.00  0.00    +0.000 A 
ATOM      2  N   UNL     1       5.126   5.033  16.012  0.00  0.00    +0.000 NA
ATOM      3  C   UNL     1       6.323   5.183  15.350  0.00  0.00    +0.000 A 
ATOM      4  N   UNL     1       7.248   5.870  16.045  0.00  0.00    +0.000 NA
ATOM      5  O   UNL     1       6.592   6.194  17.239  0.00  0.00    +0.000 OA
ENDROOT
BRANCH   3   6
ATOM      6  C   UNL     1       6.506   4.660  14.000  0.00  0.00    +0.000 A 
ATOM      7  C   UNL     1       7.512   5.195  13.178  0.00  0.00    +0.000 A 
ATOM      8  C   UNL     1       7.723   4.701  11.889  0.00  0.00    +0.000 A 
ATOM      9  C   UNL     1       6.927   3.664  11.407  0.00  0.00    +0.000 A 
ATOM     10  C   UNL     1       5.925   3.122  12.209  0.00  0.00    +0.000 A 
ATOM     11  C   UNL     1       5.713   3.617  13.501  0.00  0.00    +0.000 A 
ENDBRANCH   3   6
BRANCH   1  12
ATOM     12  C   UNL     1       4.361   5.920  18.242  0.00  0.00    +0.000 C 
ATOM     13  C   UNL     1       4.881   5.336  19.551  0.00  0.00    +0.000 C 
BRANCH  12  14
ATOM     14  O   UNL     1       3.096   5.386  17.851  0.00  0.00    +0.000 OA
BRANCH  14  21
ATOM     15  C   UNL     1       3.495   2.299  17.679  0.00  0.00    +0.000 C 
ATOM     16  C   UNL     1       2.621   3.065  18.631  0.00  0.00    +0.000 A 
ATOM     17  C   UNL     1       1.923   2.295  19.588  0.00  0.00    +0.000 A 
ATOM     18  C   UNL     1       1.171   2.894  20.597  0.00  0.00    +0.000 A 
ATOM     19  C   UNL     1       1.085   4.276  20.658  0.00  0.00    +0.000 A 
ATOM     20  C   UNL     1       1.735   5.052  19.695  0.00  0.00    +0.000 A 
ATOM     21  C   UNL     1       2.482   4.463  18.662  0.00  0.00    +0.000 A 
ENDBRANCH  14  21
ENDBRANCH  12  14
ENDBRANCH   1  12
TORSDOF 4
ENDMDL
MODEL 9
REMARK VINA RESULT:      -7.5      1.313      1.566
REMARK  Name = 
REMARK  6 active torsions:
REMARK  status: ('A' for Active; 'I' for Inactive)
REMARK    1  A    between atoms: C_1  and  C_2
REMARK    2  A    between atoms: C_7  and  O_8
REMARK    3  A    between atoms: O_8  and  C_9
REMARK    4  A    between atoms: C_9  and  C_10
REMARK    5  A    between atoms: C_9  and  C_11
REMARK    6  A    between atoms: C_13  and  C_14
REMARK                            x       y       z     vdW  Elec       q    Type
REMARK                         _______ _______ _______ _____ _____    ______ ____
ROOT
ATOM      1  C   UNL     1       5.876   4.871  17.740  0.00  0.00    +0.000 A 
ATOM      2  N   UNL     1       5.577   4.866  16.462  0.00  0.00    +0.000 NA
ATOM      3  C   UNL     1       6.784   4.581  15.866  0.00  0.00    +0.000 A 
ATOM      4  N   UNL     1       7.793   4.405  16.739  0.00  0.00    +0.000 NA
ATOM      5  O   UNL     1       7.190   4.603  17.987  0.00  0.00    +0.000 OA
ENDROOT
BRANCH   3   6
ATOM      6  C   UNL     1       6.912   4.526  14.414  0.00  0.00    +0.000 A 
ATOM      7  C   UNL     1       6.147   3.600  13.685  0.00  0.00    +0.000 A 
ATOM      8  C   UNL     1       6.234   3.537  12.293  0.00  0.00    +0.000 A 
ATOM      9  C   UNL     1       7.090   4.401  11.613  0.00  0.00    +0.000 A 
ATOM     10  C   UNL     1       7.856   5.325  12.321  0.00  0.00    +0.000 A 
ATOM     11  C   UNL     1       7.769   5.387  13.717  0.00  0.00    +0.000 A 
ENDBRANCH   3   6
BRANCH   1  12
ATOM     12  C   UNL     1       4.982   5.217  18.883  0.00  0.00    +0.000 C 
ATOM     13  C   UNL     1       5.022   4.109  19.930  0.00  0.00    +0.000 C 
BRANCH  12  14
ATOM     14  O   UNL     1       3.671   5.461  18.372  0.00  0.00    +0.000 OA
BRANCH  14  21
ATOM     15  C   UNL     1       2.795   2.813  16.979  0.00  0.00    +0.000 C 
ATOM     16  C   UNL     1       2.194   3.459  18.195  0.00  0.00    +0.000 A 
ATOM     17  C   UNL     1       1.126   2.762  18.803  0.00  0.00    +0.000 A 
ATOM     18  C   UNL     1       0.560   3.197  20.000  0.00  0.00    +0.000 A 
ATOM     19  C   UNL     1       1.038   4.350  20.605  0.00  0.00    +0.000 A 
ATOM     20  C   UNL     1       2.066   5.073  19.996  0.00  0.00    +0.000 A 
ATOM     21  C   UNL     1       2.635   4.658  18.781  0.00  0.00    +0.000 A 
ENDBRANCH  14  21
ENDBRANCH  12  14
ENDBRANCH   1  12
TORSDOF 4
ENDMDL
