MODEL 1
REMARK VINA RESULT:      -7.6      0.000      0.000
REMARK  Name = 
REMARK  11 active torsions:
REMARK  status: ('A' for Active; 'I' for Inactive)
REMARK    1  A    between atoms: C_1  and  O_2
REMARK    2  A    between atoms: O_2  and  C_3
REMARK    3  A    between atoms: C_3  and  C_4
REMARK    4  A    between atoms: C_4  and  S_5
REMARK    5  A    between atoms: S_5  and  C_8
REMARK    6  A    between atoms: C_11  and  C_12
REMARK    7  A    between atoms: C_14  and  C_15
REMARK    8  A    between atoms: C_19  and  C_20
REMARK    9  A    between atoms: C_20  and  C_21
REMARK   10  A    between atoms: C_20  and  C_22
REMARK   11  A    between atoms: C_20  and  C_23
REMARK                            x       y       z     vdW  Elec       q    Type
REMARK                         _______ _______ _______ _____ _____    ______ ____
ROOT
ATOM      1  C   UNL     1       8.013   8.523  18.059  0.00  0.00    +0.000 A 
ATOM      2  N   UNL     1       7.087   8.165  17.197  0.00  0.00    +0.000 NA
ATOM      3  C   UNL     1       7.006   6.812  17.397  0.00  0.00    +0.000 A 
ATOM      4  N   UNL     1       7.804   6.338  18.363  0.00  0.00    +0.000 NA
ATOM      5  O   UNL     1       8.481   7.477  18.804  0.00  0.00    +0.000 OA
ENDROOT
BRANCH   1   9
ATOM      6  C   UNL     1       9.765  12.327  18.823  0.00  0.00    +0.000 A 
ATOM      7  C   UNL     1      10.098  11.231  19.621  0.00  0.00    +0.000 A 
ATOM      8  C   UNL     1       9.519   9.990  19.353  0.00  0.00    +0.000 A 
ATOM      9  C   UNL     1       8.602   9.834  18.298  0.00  0.00    +0.000 A 
ATOM     10  C   UNL     1       8.265  10.956  17.526  0.00  0.00    +0.000 A 
ATOM     11  C   UNL     1       8.839  12.202  17.787  0.00  0.00    +0.000 A 
BRANCH   6  12
ATOM     12  S   UNL     1      10.511  13.907  19.149  0.00  0.00    +0.000 S 
ATOM     13  O   UNL     1      11.761  13.660  19.841  0.00  0.00    +0.000 OA
ATOM     14  O   UNL     1       9.491  14.752  19.741  0.00  0.00    +0.000 OA
BRANCH  12  15
ATOM     15  C   UNL     1      10.876  14.513  17.524  0.00  0.00    +0.000 C 
BRANCH  15  16
ATOM     16  C   UNL     1      12.053  15.462  17.575  0.00  0.00    +0.000 C 
BRANCH  16  18
ATOM     17  C   UNL     1      10.550  17.243  17.229  0.00  0.00    +0.000 C 
ATOM     18  O   UNL     1      11.589  16.726  18.055  0.00  0.00    +0.000 OA
ENDBRANCH  16  18
ENDBRANCH  15  16
ENDBRANCH  12  15
ENDBRANCH   6  12
ENDBRANCH   1   9
BRANCH   3  19
ATOM     19  C   UNL     1       6.148   5.920  16.583  0.00  0.00    +0.000 C 
ATOM     20  C   UNL     1       6.928   5.100  15.573  0.00  0.00    +0.000 C 
ATOM     21  C   UNL     1       5.948   3.998  15.253  0.00  0.00    +0.000 C 
ATOM     22  O   UNL     1       5.267   3.699  16.475  0.00  0.00    +0.000 OA
ATOM     23  C   UNL     1       5.406   4.828  17.376  0.00  0.00    +0.000 C 
BRANCH  23  24
ATOM     24  C   UNL     1       4.008   5.202  17.956  0.00  0.00    +0.000 C 
ATOM     25  C   UNL     1       4.082   5.200  19.499  0.00  0.00    +0.000 C 
ATOM     26  C   UNL     1       3.574   6.608  17.506  0.00  0.00    +0.000 C 
ATOM     27  C   UNL     1       2.926   4.186  17.541  0.00  0.00    +0.000 C 
ENDBRANCH  23  24
ENDBRANCH   3  19
TORSDOF 7
ENDMDL
MODEL 2
REMARK VINA RESULT:      -7.5      1.326      2.228
REMARK  Name = 
REMARK  11 active torsions:
REMARK  status: ('A' for Active; 'I' for Inactive)
REMARK    1  A    between atoms: C_1  and  O_2
REMARK    2  A    between atoms: O_2  and  C_3
REMARK    3  A    between atoms: C_3  and  C_4
REMARK    4  A    between atoms: C_4  and  S_5
REMARK    5  A    between atoms: S_5  and  C_8
REMARK    6  A    between atoms: C_11  and  C_12
REMARK    7  A    between atoms: C_14  and  C_15
REMARK    8  A    between atoms: C_19  and  C_20
REMARK    9  A    between atoms: C_20  and  C_21
REMARK   10  A    between atoms: C_20  and  C_22
REMARK   11  A    between atoms: C_20  and  C_23
REMARK                            x       y       z     vdW  Elec       q    Type
REMARK                         _______ _______ _______ _____ _____    ______ ____
ROOT
ATOM      1  C   UNL     1       8.037   8.477  18.079  0.00  0.00    +0.000 A 
ATOM      2  N   UNL     1       7.132   8.123  17.193  0.00  0.00    +0.000 NA
ATOM      3  C   UNL     1       7.057   6.767  17.375  0.00  0.00    +0.000 A 
ATOM      4  N   UNL     1       7.839   6.288  18.352  0.00  0.00    +0.000 NA
ATOM      5  O   UNL     1       8.497   7.426  18.821  0.00  0.00    +0.000 OA
ENDROOT
BRANCH   1   9
ATOM      6  C   UNL     1       9.685  12.337  18.796  0.00  0.00    +0.000 A 
ATOM      7  C   UNL     1       8.804  12.140  17.731  0.00  0.00    +0.000 A 
ATOM      8  C   UNL     1       8.268  10.869  17.514  0.00  0.00    +0.000 A 
ATOM      9  C   UNL     1       8.611   9.789  18.347  0.00  0.00    +0.000 A 
ATOM     10  C   UNL     1       9.518  10.007  19.396  0.00  0.00    +0.000 A 
ATOM     11  C   UNL     1      10.059  11.275  19.620  0.00  0.00    +0.000 A 
BRANCH   6  12
ATOM     12  S   UNL     1      10.358  13.956  19.088  0.00  0.00    +0.000 S 
ATOM     13  O   UNL     1      10.365  14.655  17.817  0.00  0.00    +0.000 OA
ATOM     14  O   UNL     1      11.582  13.784  19.847  0.00  0.00    +0.000 OA
BRANCH  12  15
ATOM     15  C   UNL     1       9.142  14.705  20.137  0.00  0.00    +0.000 C 
BRANCH  15  16
ATOM     16  C   UNL     1       8.149  15.486  19.305  0.00  0.00    +0.000 C 
BRANCH  16  18
ATOM     17  C   UNL     1       6.327  14.910  17.927  0.00  0.00    +0.000 C 
ATOM     18  O   UNL     1       6.953  14.712  19.190  0.00  0.00    +0.000 OA
ENDBRANCH  16  18
ENDBRANCH  15  16
ENDBRANCH  12  15
ENDBRANCH   6  12
ENDBRANCH   1   9
BRANCH   3  19
ATOM     19  C   UNL     1       6.224   5.879  16.531  0.00  0.00    +0.000 C 
ATOM     20  C   UNL     1       7.021   5.142  15.473  0.00  0.00    +0.000 C 
ATOM     21  C   UNL     1       6.082   4.016  15.114  0.00  0.00    +0.000 C 
ATOM     22  O   UNL     1       5.435   3.630  16.330  0.00  0.00    +0.000 OA
ATOM     23  C   UNL     1       5.542   4.720  17.282  0.00  0.00    +0.000 C 
BRANCH  23  24
ATOM     24  C   UNL     1       4.139   5.007  17.900  0.00  0.00    +0.000 C 
ATOM     25  C   UNL     1       3.134   3.949  17.392  0.00  0.00    +0.000 C 
ATOM     26  C   UNL     1       4.177   4.923  19.436  0.00  0.00    +0.000 C 
ATOM     27  C   UNL     1       3.605   6.392  17.487  0.00  0.00    +0.000 C 
ENDBRANCH  23  24
ENDBRANCH   3  19
TORSDOF 7
ENDMDL
MODEL 3
REMARK VINA RESULT:      -7.5      0.745      1.459
REMARK  Name = 
REMARK  11 active torsions:
REMARK  status: ('A' for Active; 'I' for Inactive)
REMARK    1  A    between atoms: C_1  and  O_2
REMARK    2  A    between atoms: O_2  and  C_3
REMARK    3  A    between atoms: C_3  and  C_4
REMARK    4  A    between atoms: C_4  and  S_5
REMARK    5  A    between atoms: S_5  and  C_8
REMARK    6  A    between atoms: C_11  and  C_12
REMARK    7  A    between atoms: C_14  and  C_15
REMARK    8  A    between atoms: C_19  and  C_20
REMARK    9  A    between atoms: C_20  and  C_21
REMARK   10  A    between atoms: C_20  and  C_22
REMARK   11  A    between atoms: C_20  and  C_23
REMARK                            x       y       z     vdW  Elec       q    Type
REMARK                         _______ _______ _______ _____ _____    ______ ____
ROOT
ATOM      1  C   UNL     1       8.025   8.406  18.081  0.00  0.00    +0.000 A 
ATOM      2  N   UNL     1       7.162   8.054  17.152  0.00  0.00    +0.000 NA
ATOM      3  C   UNL     1       7.121   6.692  17.290  0.00  0.00    +0.000 A 
ATOM      4  N   UNL     1       7.882   6.205  18.280  0.00  0.00    +0.000 NA
ATOM      5  O   UNL     1       8.490   7.346  18.807  0.00  0.00    +0.000 OA
ENDROOT
BRANCH   1   9
ATOM      6  C   UNL     1       9.535  12.286  18.970  0.00  0.00    +0.000 A 
ATOM      7  C   UNL     1       8.752  12.086  17.832  0.00  0.00    +0.000 A 
ATOM      8  C   UNL     1       8.260  10.808  17.559  0.00  0.00    +0.000 A 
ATOM      9  C   UNL     1       8.550   9.725  18.408  0.00  0.00    +0.000 A 
ATOM     10  C   UNL     1       9.360   9.948  19.533  0.00  0.00    +0.000 A 
ATOM     11  C   UNL     1       9.857  11.223  19.814  0.00  0.00    +0.000 A 
BRANCH   6  12
ATOM     12  S   UNL     1      10.152  13.913  19.333  0.00  0.00    +0.000 S 
ATOM     13  O   UNL     1      10.435  13.960  20.755  0.00  0.00    +0.000 OA
ATOM     14  O   UNL     1       9.242  14.866  18.726  0.00  0.00    +0.000 OA
BRANCH  12  15
ATOM     15  C   UNL     1      11.689  13.957  18.451  0.00  0.00    +0.000 C 
BRANCH  15  16
ATOM     16  C   UNL     1      11.475  14.521  17.063  0.00  0.00    +0.000 C 
BRANCH  16  18
ATOM     17  C   UNL     1      11.706  16.847  17.360  0.00  0.00    +0.000 C 
ATOM     18  O   UNL     1      12.333  15.653  16.902  0.00  0.00    +0.000 OA
ENDBRANCH  16  18
ENDBRANCH  15  16
ENDBRANCH  12  15
ENDBRANCH   6  12
ENDBRANCH   1   9
BRANCH   3  19
ATOM     19  C   UNL     1       6.344   5.807  16.391  0.00  0.00    +0.000 C 
ATOM     20  C   UNL     1       7.172   5.237  15.255  0.00  0.00    +0.000 C 
ATOM     21  C   UNL     1       6.325   4.066  14.820  0.00  0.00    +0.000 C 
ATOM     22  O   UNL     1       5.751   3.522  16.012  0.00  0.00    +0.000 OA
ATOM     23  C   UNL     1       5.789   4.532  17.052  0.00  0.00    +0.000 C 
BRANCH  23  24
ATOM     24  C   UNL     1       4.386   4.638  17.724  0.00  0.00    +0.000 C 
ATOM     25  C   UNL     1       3.778   6.025  17.415  0.00  0.00    +0.000 C 
ATOM     26  C   UNL     1       3.423   3.568  17.179  0.00  0.00    +0.000 C 
ATOM     27  C   UNL     1       4.473   4.499  19.256  0.00  0.00    +0.000 C 
ENDBRANCH  23  24
ENDBRANCH   3  19
TORSDOF 7
ENDMDL
MODEL 4
REMARK VINA RESULT:      -7.5      1.034      1.164
REMARK  Name = 
REMARK  11 active torsions:
REMARK  status: ('A' for Active; 'I' for Inactive)
REMARK    1  A    between atoms: C_1  and  O_2
REMARK    2  A    between atoms: O_2  and  C_3
REMARK    3  A    between atoms: C_3  and  C_4
REMARK    4  A    between atoms: C_4  and  S_5
REMARK    5  A    between atoms: S_5  and  C_8
REMARK    6  A    between atoms: C_11  and  C_12
REMARK    7  A    between atoms: C_14  and  C_15
REMARK    8  A    between atoms: C_19  and  C_20
REMARK    9  A    between atoms: C_20  and  C_21
REMARK   10  A    between atoms: C_20  and  C_22
REMARK   11  A    between atoms: C_20  and  C_23
REMARK                            x       y       z     vdW  Elec       q    Type
REMARK                         _______ _______ _______ _____ _____    ______ ____
ROOT
ATOM      1  C   UNL     1       8.007   8.518  18.050  0.00  0.00    +0.000 A 
ATOM      2  N   UNL     1       7.111   8.145  17.163  0.00  0.00    +0.000 NA
ATOM      3  C   UNL     1       7.035   6.793  17.372  0.00  0.00    +0.000 A 
ATOM      4  N   UNL     1       7.808   6.334  18.366  0.00  0.00    +0.000 NA
ATOM      5  O   UNL     1       8.462   7.483  18.818  0.00  0.00    +0.000 OA
ENDROOT
BRANCH   1   9
ATOM      6  C   UNL     1       9.704  12.343  18.834  0.00  0.00    +0.000 A 
ATOM      7  C   UNL     1      10.026  11.256  19.648  0.00  0.00    +0.000 A 
ATOM      8  C   UNL     1       9.465  10.007  19.373  0.00  0.00    +0.000 A 
ATOM      9  C   UNL     1       8.578   9.836  18.296  0.00  0.00    +0.000 A 
ATOM     10  C   UNL     1       8.251  10.950  17.507  0.00  0.00    +0.000 A 
ATOM     11  C   UNL     1       8.807  12.203  17.775  0.00  0.00    +0.000 A 
BRANCH   6  12
ATOM     12  S   UNL     1      10.427  13.933  19.169  0.00  0.00    +0.000 S 
ATOM     13  O   UNL     1      11.283  14.262  18.046  0.00  0.00    +0.000 OA
ATOM     14  O   UNL     1      10.956  13.891  20.519  0.00  0.00    +0.000 OA
BRANCH  12  15
ATOM     15  C   UNL     1       9.024  15.015  19.144  0.00  0.00    +0.000 C 
BRANCH  15  16
ATOM     16  C   UNL     1       9.042  15.861  17.890  0.00  0.00    +0.000 C 
BRANCH  16  18
ATOM     17  C   UNL     1       9.356  18.181  18.155  0.00  0.00    +0.000 C 
ATOM     18  O   UNL     1       8.416  17.112  18.184  0.00  0.00    +0.000 OA
ENDBRANCH  16  18
ENDBRANCH  15  16
ENDBRANCH  12  15
ENDBRANCH   6  12
ENDBRANCH   1   9
BRANCH   3  19
ATOM     19  C   UNL     1       6.210   5.886  16.540  0.00  0.00    +0.000 C 
ATOM     20  C   UNL     1       7.020   5.117  15.514  0.00  0.00    +0.000 C 
ATOM     21  C   UNL     1       6.080   3.987  15.171  0.00  0.00    +0.000 C 
ATOM     22  O   UNL     1       5.413   3.638  16.386  0.00  0.00    +0.000 OA
ATOM     23  C   UNL     1       5.510   4.752  17.310  0.00  0.00    +0.000 C 
BRANCH  23  24
ATOM     24  C   UNL     1       4.100   5.062  17.898  0.00  0.00    +0.000 C 
ATOM     25  C   UNL     1       4.175   5.031  19.441  0.00  0.00    +0.000 C 
ATOM     26  C   UNL     1       3.614   6.460  17.478  0.00  0.00    +0.000 C 
ATOM     27  C   UNL     1       3.056   4.016  17.462  0.00  0.00    +0.000 C 
ENDBRANCH  23  24
ENDBRANCH   3  19
TORSDOF 7
ENDMDL
MODEL 5
REMARK VINA RESULT:      -7.5      0.570      1.423
REMARK  Name = 
REMARK  11 active torsions:
REMARK  status: ('A' for Active; 'I' for Inactive)
REMARK    1  A    between atoms: C_1  and  O_2
REMARK    2  A    between atoms: O_2  and  C_3
REMARK    3  A    between atoms: C_3  and  C_4
REMARK    4  A    between atoms: C_4  and  S_5
REMARK    5  A    between atoms: S_5  and  C_8
REMARK    6  A    between atoms: C_11  and  C_12
REMARK    7  A    between atoms: C_14  and  C_15
REMARK    8  A    between atoms: C_19  and  C_20
REMARK    9  A    between atoms: C_20  and  C_21
REMARK   10  A    between atoms: C_20  and  C_22
REMARK   11  A    between atoms: C_20  and  C_23
REMARK                            x       y       z     vdW  Elec       q    Type
REMARK                         _______ _______ _______ _____ _____    ______ ____
ROOT
ATOM      1  C   UNL     1       8.115   8.563  18.162  0.00  0.00    +0.000 A 
ATOM      2  N   UNL     1       7.180   8.256  17.289  0.00  0.00    +0.000 NA
ATOM      3  C   UNL     1       7.076   6.898  17.436  0.00  0.00    +0.000 A 
ATOM      4  N   UNL     1       7.869   6.373  18.379  0.00  0.00    +0.000 NA
ATOM      5  O   UNL     1       8.567   7.481  18.863  0.00  0.00    +0.000 OA
ENDROOT
BRANCH   1   9
ATOM      6  C   UNL     1       9.886  12.357  18.937  0.00  0.00    +0.000 A 
ATOM      7  C   UNL     1       9.116  12.167  17.788  0.00  0.00    +0.000 A 
ATOM      8  C   UNL     1       8.538  10.918  17.552  0.00  0.00    +0.000 A 
ATOM      9  C   UNL     1       8.728   9.853  18.451  0.00  0.00    +0.000 A 
ATOM     10  C   UNL     1       9.526  10.063  19.586  0.00  0.00    +0.000 A 
ATOM     11  C   UNL     1      10.110  11.309  19.830  0.00  0.00    +0.000 A 
BRANCH   6  12
ATOM     12  S   UNL     1      10.612  13.949  19.251  0.00  0.00    +0.000 S 
ATOM     13  O   UNL     1      12.024  13.735  19.507  0.00  0.00    +0.000 OA
ATOM     14  O   UNL     1       9.775  14.621  20.226  0.00  0.00    +0.000 OA
BRANCH  12  15
ATOM     15  C   UNL     1      10.440  14.774  17.693  0.00  0.00    +0.000 C 
BRANCH  15  16
ATOM     16  C   UNL     1       9.512  15.961  17.833  0.00  0.00    +0.000 C 
BRANCH  16  18
ATOM     17  C   UNL     1      11.450  17.196  17.313  0.00  0.00    +0.000 C 
ATOM     18  O   UNL     1      10.054  17.046  17.076  0.00  0.00    +0.000 OA
ENDBRANCH  16  18
ENDBRANCH  15  16
ENDBRANCH  12  15
ENDBRANCH   6  12
ENDBRANCH   1   9
BRANCH   3  19
ATOM     19  C   UNL     1       6.200   6.054  16.590  0.00  0.00    +0.000 C 
ATOM     20  C   UNL     1       6.962   5.267  15.541  0.00  0.00    +0.000 C 
ATOM     21  C   UNL     1       5.963   4.195  15.181  0.00  0.00    +0.000 C 
ATOM     22  O   UNL     1       5.286   3.854  16.393  0.00  0.00    +0.000 OA
ATOM     23  C   UNL     1       5.447   4.941  17.340  0.00  0.00    +0.000 C 
BRANCH  23  24
ATOM     24  C   UNL     1       4.058   5.311  17.945  0.00  0.00    +0.000 C 
ATOM     25  C   UNL     1       3.633   6.703  17.427  0.00  0.00    +0.000 C 
ATOM     26  C   UNL     1       2.977   4.300  17.524  0.00  0.00    +0.000 C 
ATOM     27  C   UNL     1       4.105   5.382  19.484  0.00  0.00    +0.000 C 
ENDBRANCH  23  24
ENDBRANCH   3  19
TORSDOF 7
ENDMDL
MODEL 6
REMARK VINA RESULT:      -7.5      1.144      1.765
REMARK  Name = 
REMARK  11 active torsions:
REMARK  status: ('A' for Active; 'I' for Inactive)
REMARK    1  A    between atoms: C_1  and  O_2
REMARK    2  A    between atoms: O_2  and  C_3
REMARK    3  A    between atoms: C_3  and  C_4
REMARK    4  A    between atoms: C_4  and  S_5
REMARK    5  A    between atoms: S_5  and  C_8
REMARK    6  A    between atoms: C_11  and  C_12
REMARK    7  A    between atoms: C_14  and  C_15
REMARK    8  A    between atoms: C_19  and  C_20
REMARK    9  A    between atoms: C_20  and  C_21
REMARK   10  A    between atoms: C_20  and  C_22
REMARK   11  A    between atoms: C_20  and  C_23
REMARK                            x       y       z     vdW  Elec       q    Type
REMARK                         _______ _______ _______ _____ _____    ______ ____
ROOT
ATOM      1  C   UNL     1       8.076   8.590  18.096  0.00  0.00    +0.000 A 
ATOM      2  N   UNL     1       7.167   8.225  17.218  0.00  0.00    +0.000 NA
ATOM      3  C   UNL     1       7.085   6.873  17.425  0.00  0.00    +0.000 A 
ATOM      4  N   UNL     1       7.867   6.408  18.408  0.00  0.00    +0.000 NA
ATOM      5  O   UNL     1       8.533   7.551  18.856  0.00  0.00    +0.000 OA
ENDROOT
BRANCH   1   9
ATOM      6  C   UNL     1       9.802  12.404  18.871  0.00  0.00    +0.000 A 
ATOM      7  C   UNL     1      10.095  11.323  19.704  0.00  0.00    +0.000 A 
ATOM      8  C   UNL     1       9.525  10.077  19.431  0.00  0.00    +0.000 A 
ATOM      9  C   UNL     1       8.657   9.904  18.338  0.00  0.00    +0.000 A 
ATOM     10  C   UNL     1       8.359  11.013  17.531  0.00  0.00    +0.000 A 
ATOM     11  C   UNL     1       8.924  12.263  17.796  0.00  0.00    +0.000 A 
BRANCH   6  12
ATOM     12  S   UNL     1      10.537  13.989  19.203  0.00  0.00    +0.000 S 
ATOM     13  O   UNL     1      11.845  13.996  18.578  0.00  0.00    +0.000 OA
ATOM     14  O   UNL     1      10.392  14.243  20.624  0.00  0.00    +0.000 OA
BRANCH  12  15
ATOM     15  C   UNL     1       9.482  15.104  18.317  0.00  0.00    +0.000 C 
BRANCH  15  16
ATOM     16  C   UNL     1       8.542  15.801  19.276  0.00  0.00    +0.000 C 
BRANCH  16  18
ATOM     17  C   UNL     1       6.605  15.106  18.130  0.00  0.00    +0.000 C 
ATOM     18  O   UNL     1       7.334  15.042  19.351  0.00  0.00    +0.000 OA
ENDBRANCH  16  18
ENDBRANCH  15  16
ENDBRANCH  12  15
ENDBRANCH   6  12
ENDBRANCH   1   9
BRANCH   3  19
ATOM     19  C   UNL     1       6.245   5.974  16.600  0.00  0.00    +0.000 C 
ATOM     20  C   UNL     1       7.044   5.168  15.594  0.00  0.00    +0.000 C 
ATOM     21  C   UNL     1       6.079   4.056  15.261  0.00  0.00    +0.000 C 
ATOM     22  O   UNL     1       5.392   3.744  16.476  0.00  0.00    +0.000 OA
ATOM     23  C   UNL     1       5.509   4.871  17.382  0.00  0.00    +0.000 C 
BRANCH  23  24
ATOM     24  C   UNL     1       4.102   5.226  17.952  0.00  0.00    +0.000 C 
ATOM     25  C   UNL     1       3.083   4.160  17.491  0.00  0.00    +0.000 C 
ATOM     26  C   UNL     1       4.108   5.239  19.490  0.00  0.00    +0.000 C 
ATOM     27  C   UNL     1       3.607   6.594  17.441  0.00  0.00    +0.000 C 
ENDBRANCH  23  24
ENDBRANCH   3  19
TORSDOF 7
ENDMDL
MODEL 7
REMARK VINA RESULT:      -7.4      0.766      1.146
REMARK  Name = 
REMARK  11 active torsions:
REMARK  status: ('A' for Active; 'I' for Inactive)
REMARK    1  A    between atoms: C_1  and  O_2
REMARK    2  A    between atoms: O_2  and  C_3
REMARK    3  A    between atoms: C_3  and  C_4
REMARK    4  A    between atoms: C_4  and  S_5
REMARK    5  A    between atoms: S_5  and  C_8
REMARK    6  A    between atoms: C_11  and  C_12
REMARK    7  A    between atoms: C_14  and  C_15
REMARK    8  A    between atoms: C_19  and  C_20
REMARK    9  A    between atoms: C_20  and  C_21
REMARK   10  A    between atoms: C_20  and  C_22
REMARK   11  A    between atoms: C_20  and  C_23
REMARK                            x       y       z     vdW  Elec       q    Type
REMARK                         _______ _______ _______ _____ _____    ______ ____
ROOT
ATOM      1  C   UNL     1       8.036   8.474  18.075  0.00  0.00    +0.000 A 
ATOM      2  N   UNL     1       7.132   8.127  17.185  0.00  0.00    +0.000 NA
ATOM      3  C   UNL     1       7.036   6.774  17.374  0.00  0.00    +0.000 A 
ATOM      4  N   UNL     1       7.803   6.289  18.359  0.00  0.00    +0.000 NA
ATOM      5  O   UNL     1       8.476   7.420  18.827  0.00  0.00    +0.000 OA
ENDROOT
BRANCH   1   9
ATOM      6  C   UNL     1       9.793  12.261  18.912  0.00  0.00    +0.000 A 
ATOM      7  C   UNL     1      10.081  11.162  19.723  0.00  0.00    +0.000 A 
ATOM      8  C   UNL     1       9.501   9.926  19.430  0.00  0.00    +0.000 A 
ATOM      9  C   UNL     1       8.628   9.779  18.339  0.00  0.00    +0.000 A 
ATOM     10  C   UNL     1       8.334  10.904  17.552  0.00  0.00    +0.000 A 
ATOM     11  C   UNL     1       8.909  12.145  17.838  0.00  0.00    +0.000 A 
BRANCH   6  12
ATOM     12  S   UNL     1      10.540  13.834  19.269  0.00  0.00    +0.000 S 
ATOM     13  O   UNL     1      11.924  13.760  18.844  0.00  0.00    +0.000 OA
ATOM     14  O   UNL     1      10.201  14.172  20.638  0.00  0.00    +0.000 OA
BRANCH  12  15
ATOM     15  C   UNL     1       9.674  14.935  18.183  0.00  0.00    +0.000 C 
BRANCH  15  16
ATOM     16  C   UNL     1       9.820  16.361  18.667  0.00  0.00    +0.000 C 
BRANCH  16  18
ATOM     17  C   UNL     1      11.077  17.916  17.421  0.00  0.00    +0.000 C 
ATOM     18  O   UNL     1       9.838  17.222  17.526  0.00  0.00    +0.000 OA
ENDBRANCH  16  18
ENDBRANCH  15  16
ENDBRANCH  12  15
ENDBRANCH   6  12
ENDBRANCH   1   9
BRANCH   3  19
ATOM     19  C   UNL     1       6.195   5.893  16.530  0.00  0.00    +0.000 C 
ATOM     20  C   UNL     1       6.984   5.161  15.462  0.00  0.00    +0.000 C 
ATOM     21  C   UNL     1       6.040   4.039  15.102  0.00  0.00    +0.000 C 
ATOM     22  O   UNL     1       5.400   3.648  16.319  0.00  0.00    +0.000 OA
ATOM     23  C   UNL     1       5.515   4.731  17.278  0.00  0.00    +0.000 C 
BRANCH  23  24
ATOM     24  C   UNL     1       4.117   5.017  17.907  0.00  0.00    +0.000 C 
ATOM     25  C   UNL     1       3.620   6.401  17.432  0.00  0.00    +0.000 C 
ATOM     26  C   UNL     1       3.081   3.967  17.468  0.00  0.00    +0.000 C 
ATOM     27  C   UNL     1       4.179   5.048  19.446  0.00  0.00    +0.000 C 
ENDBRANCH  23  24
ENDBRANCH   3  19
TORSDOF 7
ENDMDL
MODEL 8
REMARK VINA RESULT:      -7.4      7.263      9.582
REMARK  Name = 
REMARK  11 active torsions:
REMARK  status: ('A' for Active; 'I' for Inactive)
REMARK    1  A    between atoms: C_1  and  O_2
REMARK    2  A    between atoms: O_2  and  C_3
REMARK    3  A    between atoms: C_3  and  C_4
REMARK    4  A    between atoms: C_4  and  S_5
REMARK    5  A    between atoms: S_5  and  C_8
REMARK    6  A    between atoms: C_11  and  C_12
REMARK    7  A    between atoms: C_14  and  C_15
REMARK    8  A    between atoms: C_19  and  C_20
REMARK    9  A    between atoms: C_20  and  C_21
REMARK   10  A    between atoms: C_20  and  C_22
REMARK   11  A    between atoms: C_20  and  C_23
REMARK                            x       y       z     vdW  Elec       q    Type
REMARK                         _______ _______ _______ _____ _____    ______ ____
ROOT
ATOM      1  C   UNL     1       1.722   8.482  19.533  0.00  0.00    +0.000 A 
ATOM      2  N   UNL     1       2.215   7.291  19.794  0.00  0.00    +0.000 NA
ATOM      3  C   UNL     1       2.874   6.984  18.633  0.00  0.00    +0.000 A 
ATOM      4  N   UNL     1       2.842   7.944  17.699  0.00  0.00    +0.000 NA
ATOM      5  O   UNL     1       2.070   8.944  18.295  0.00  0.00    +0.000 OA
ENDROOT
BRANCH   1   9
ATOM      6  C   UNL     1      -0.770  11.024  21.869  0.00  0.00    +0.000 A 
ATOM      7  C   UNL     1      -0.326  11.443  20.614  0.00  0.00    +0.000 A 
ATOM      8  C   UNL     1       0.486  10.594  19.858  0.00  0.00    +0.000 A 
ATOM      9  C   UNL     1       0.865   9.332  20.349  0.00  0.00    +0.000 A 
ATOM     10  C   UNL     1       0.426   8.944  21.625  0.00  0.00    +0.000 A 
ATOM     11  C   UNL     1      -0.386   9.787  22.388  0.00  0.00    +0.000 A 
BRANCH   6  12
ATOM     12  S   UNL     1      -1.817  12.093  22.829  0.00  0.00    +0.000 S 
ATOM     13  O   UNL     1      -0.969  13.113  23.415  0.00  0.00    +0.000 OA
ATOM     14  O   UNL     1      -2.646  11.247  23.666  0.00  0.00    +0.000 OA
BRANCH  12  15
ATOM     15  C   UNL     1      -2.841  12.850  21.597  0.00  0.00    +0.000 C 
BRANCH  15  16
ATOM     16  C   UNL     1      -4.163  13.266  22.205  0.00  0.00    +0.000 C 
BRANCH  16  18
ATOM     17  C   UNL     1      -6.240  12.869  21.166  0.00  0.00    +0.000 C 
ATOM     18  O   UNL     1      -5.143  12.284  21.861  0.00  0.00    +0.000 OA
ENDBRANCH  16  18
ENDBRANCH  15  16
ENDBRANCH  12  15
ENDBRANCH   6  12
ENDBRANCH   1   9
BRANCH   3  19
ATOM     19  C   UNL     1       3.532   5.679  18.393  0.00  0.00    +0.000 C 
ATOM     20  C   UNL     1       5.046   5.760  18.422  0.00  0.00    +0.000 C 
ATOM     21  C   UNL     1       5.424   4.314  18.634  0.00  0.00    +0.000 C 
ATOM     22  O   UNL     1       4.434   3.765  19.507  0.00  0.00    +0.000 OA
ATOM     23  C   UNL     1       3.250   4.602  19.456  0.00  0.00    +0.000 C 
BRANCH  23  24
ATOM     24  C   UNL     1       1.992   3.707  19.239  0.00  0.00    +0.000 C 
ATOM     25  C   UNL     1       2.398   2.221  19.360  0.00  0.00    +0.000 C 
ATOM     26  C   UNL     1       0.914   3.989  20.301  0.00  0.00    +0.000 C 
ATOM     27  C   UNL     1       1.381   3.909  17.839  0.00  0.00    +0.000 C 
ENDBRANCH  23  24
ENDBRANCH   3  19
TORSDOF 7
ENDMDL
MODEL 9
REMARK VINA RESULT:      -7.4      5.984      9.813
REMARK  Name = 
REMARK  11 active torsions:
REMARK  status: ('A' for Active; 'I' for Inactive)
REMARK    1  A    between atoms: C_1  and  O_2
REMARK    2  A    between atoms: O_2  and  C_3
REMARK    3  A    between atoms: C_3  and  C_4
REMARK    4  A    between atoms: C_4  and  S_5
REMARK    5  A    between atoms: S_5  and  C_8
REMARK    6  A    between atoms: C_11  and  C_12
REMARK    7  A    between atoms: C_14  and  C_15
REMARK    8  A    between atoms: C_19  and  C_20
REMARK    9  A    between atoms: C_20  and  C_21
REMARK   10  A    between atoms: C_20  and  C_22
REMARK   11  A    between atoms: C_20  and  C_23
REMARK                            x       y       z     vdW  Elec       q    Type
REMARK                         _______ _______ _______ _____ _____    ______ ____
ROOT
ATOM      1  C   UNL     1       1.338   9.042  18.954  0.00  0.00    +0.000 A 
ATOM      2  N   UNL     1       1.131   9.793  20.013  0.00  0.00    +0.000 NA
ATOM      3  C   UNL     1       0.240  10.722  19.545  0.00  0.00    +0.000 A 
ATOM      4  N   UNL     1      -0.135  10.547  18.270  0.00  0.00    +0.000 NA
ATOM      5  O   UNL     1       0.600   9.429  17.872  0.00  0.00    +0.000 OA
ENDROOT
BRANCH   1   9
ATOM      6  C   UNL     1       3.948   5.705  18.521  0.00  0.00    +0.000 A 
ATOM      7  C   UNL     1       3.121   5.804  19.640  0.00  0.00    +0.000 A 
ATOM      8  C   UNL     1       2.267   6.902  19.764  0.00  0.00    +0.000 A 
ATOM      9  C   UNL     1       2.237   7.908  18.781  0.00  0.00    +0.000 A 
ATOM     10  C   UNL     1       3.096   7.798  17.677  0.00  0.00    +0.000 A 
ATOM     11  C   UNL     1       3.955   6.703  17.545  0.00  0.00    +0.000 A 
BRANCH   6  12
ATOM     12  S   UNL     1       5.027   4.303  18.349  0.00  0.00    +0.000 S 
ATOM     13  O   UNL     1       4.190   3.120  18.295  0.00  0.00    +0.000 OA
ATOM     14  O   UNL     1       6.066   4.432  19.353  0.00  0.00    +0.000 OA
BRANCH  12  15
ATOM     15  C   UNL     1       5.750   4.556  16.751  0.00  0.00    +0.000 C 
BRANCH  15  16
ATOM     16  C   UNL     1       7.224   4.865  16.891  0.00  0.00    +0.000 C 
BRANCH  16  18
ATOM     17  C   UNL     1       7.566   7.118  17.488  0.00  0.00    +0.000 C 
ATOM     18  O   UNL     1       7.452   6.192  16.412  0.00  0.00    +0.000 OA
ENDBRANCH  16  18
ENDBRANCH  15  16
ENDBRANCH  12  15
ENDBRANCH   6  12
ENDBRANCH   1   9
BRANCH   3  19
ATOM     19  C   UNL     1      -0.242  11.866  20.353  0.00  0.00    +0.000 C 
ATOM     20  C   UNL     1      -0.743  11.458  21.725  0.00  0.00    +0.000 C 
ATOM     21  C   UNL     1      -0.706  12.772  22.466  0.00  0.00    +0.000 C 
ATOM     22  O   UNL     1       0.447  13.470  21.988  0.00  0.00    +0.000 OA
ATOM     23  C   UNL     1       0.831  12.913  20.704  0.00  0.00    +0.000 C 
BRANCH  23  24
ATOM     24  C   UNL     1       1.050  14.071  19.683  0.00  0.00    +0.000 C 
ATOM     25  C   UNL     1       2.190  13.684  18.713  0.00  0.00    +0.000 C 
ATOM     26  C   UNL     1      -0.216  14.325  18.846  0.00  0.00    +0.000 C 
ATOM     27  C   UNL     1       1.460  15.381  20.383  0.00  0.00    +0.000 C 
ENDBRANCH  23  24
ENDBRANCH   3  19
TORSDOF 7
ENDMDL
