MODEL 1
REMARK VINA RESULT:      -8.7      0.000      0.000
REMARK  Name = 
REMARK  11 active torsions:
REMARK  status: ('A' for Active; 'I' for Inactive)
REMARK    1  A    between atoms: C_1  and  O_2
REMARK    2  A    between atoms: O_2  and  C_3
REMARK    3  A    between atoms: C_6  and  N_7
REMARK    4  A    between atoms: N_10  and  C_11
REMARK    5  A    between atoms: C_11  and  C_12
REMARK    6  A    between atoms: C_11  and  C_20
REMARK    7  A    between atoms: C_12  and  N_13
REMARK    8  A    between atoms: C_14  and  C_16
REMARK    9  A    between atoms: C_16  and  C_17
REMARK   10  A    between atoms: C_17  and  C_18
REMARK   11  A    between atoms: C_17  and  C_19
REMARK                            x       y       z     vdW  Elec       q    Type
REMARK                         _______ _______ _______ _____ _____    ______ ____
ROOT
ATOM      1  C   UNL     1       5.289   4.482  16.992  0.00  0.00    +0.000 C 
ENDROOT
BRANCH   1   2
ATOM      2  C   UNL     1       4.444   3.422  17.720  0.00  0.00    +0.000 A 
ATOM      3  C   UNL     1       4.845   2.740  18.892  0.00  0.00    +0.000 A 
ATOM      4  C   UNL     1       3.890   2.217  19.776  0.00  0.00    +0.000 A 
ATOM      5  C   UNL     1       2.567   2.339  19.421  0.00  0.00    +0.000 A 
ATOM      6  C   UNL     1       2.193   2.809  18.185  0.00  0.00    +0.000 A 
ATOM      7  C   UNL     1       3.105   3.313  17.298  0.00  0.00    +0.000 A 
ATOM      8  O   UNL     1       0.842   2.908  18.049  0.00  0.00    +0.000 OA
ATOM      9  C   UNL     1       0.487   2.844  19.441  0.00  0.00    +0.000 C 
ATOM     10  O   UNL     1       1.482   2.147  20.224  0.00  0.00    +0.000 OA
ENDBRANCH   1   2
BRANCH   1  14
ATOM     11  N   UNL     1       3.126   7.090  18.290  0.00  0.00    +0.000 N 
ATOM     12  C   UNL     1       3.759   7.140  16.965  0.00  0.00    +0.000 C 
ATOM     13  C   UNL     1       5.294   6.944  17.090  0.00  0.00    +0.000 C 
ATOM     14  N   UNL     1       5.705   5.684  17.792  0.00  0.00    +0.000 NA
ATOM     15  C   UNL     1       5.045   5.784  19.134  0.00  0.00    +0.000 C 
ATOM     16  C   UNL     1       3.508   5.962  19.146  0.00  0.00    +0.000 C 
BRANCH  11  20
ATOM     17  C   UNL     1       0.469  10.069  19.670  0.00  0.00    +0.000 A 
ATOM     18  C   UNL     1       0.947  10.101  18.365  0.00  0.00    +0.000 A 
ATOM     19  C   UNL     1       1.826   9.112  17.905  0.00  0.00    +0.000 A 
ATOM     20  C   UNL     1       2.267   8.072  18.738  0.00  0.00    +0.000 A 
ATOM     21  C   UNL     1       1.771   8.071  20.049  0.00  0.00    +0.000 A 
ATOM     22  C   UNL     1       0.895   9.051  20.522  0.00  0.00    +0.000 A 
BRANCH  17  24
ATOM     23  C   UNL     1      -1.458  11.316  19.130  0.00  0.00    +0.000 C 
ATOM     24  O   UNL     1      -0.373  11.083  20.023  0.00  0.00    +0.000 OA
ENDBRANCH  17  24
ENDBRANCH  11  20
ENDBRANCH   1  14
BRANCH   1  25
ATOM     25  C   UNL     1       6.464   3.791  16.235  0.00  0.00    +0.000 C 
BRANCH  25  26
ATOM     26  N   UNL     1       6.246   3.686  14.811  0.00  0.00    +0.000 N 
ATOM     27  C   UNL     1       6.870   4.539  13.936  0.00  0.00    +0.000 C 
ATOM     28  O   UNL     1       7.723   5.350  14.282  0.00  0.00    +0.000 OA
ATOM     29  H   UNL     1       5.629   2.956  14.477  0.00  0.00    +0.000 HD
BRANCH  27  30
ATOM     30  C   UNL     1       6.401   4.413  12.500  0.00  0.00    +0.000 C 
BRANCH  30  31
ATOM     31  C   UNL     1       5.686   3.075  12.248  0.00  0.00    +0.000 C 
ATOM     32  C   UNL     1       4.373   3.262  11.485  0.00  0.00    +0.000 C 
ATOM     33  C   UNL     1       6.614   2.137  11.480  0.00  0.00    +0.000 C 
ENDBRANCH  30  31
ENDBRANCH  27  30
ENDBRANCH  25  26
ENDBRANCH   1  25
TORSDOF 8
ENDMDL
MODEL 2
REMARK VINA RESULT:      -7.4      2.240      5.585
REMARK  Name = 
REMARK  11 active torsions:
REMARK  status: ('A' for Active; 'I' for Inactive)
REMARK    1  A    between atoms: C_1  and  O_2
REMARK    2  A    between atoms: O_2  and  C_3
REMARK    3  A    between atoms: C_6  and  N_7
REMARK    4  A    between atoms: N_10  and  C_11
REMARK    5  A    between atoms: C_11  and  C_12
REMARK    6  A    between atoms: C_11  and  C_20
REMARK    7  A    between atoms: C_12  and  N_13
REMARK    8  A    between atoms: C_14  and  C_16
REMARK    9  A    between atoms: C_16  and  C_17
REMARK   10  A    between atoms: C_17  and  C_18
REMARK   11  A    between atoms: C_17  and  C_19
REMARK                            x       y       z     vdW  Elec       q    Type
REMARK                         _______ _______ _______ _____ _____    ______ ____
ROOT
ATOM      1  C   UNL     1       3.954   6.496  18.689  0.00  0.00    +0.000 C 
ENDROOT
BRANCH   1   2
ATOM      2  C   UNL     1       4.945   6.596  17.516  0.00  0.00    +0.000 A 
ATOM      3  C   UNL     1       6.270   7.080  17.622  0.00  0.00    +0.000 A 
ATOM      4  C   UNL     1       7.254   6.673  16.710  0.00  0.00    +0.000 A 
ATOM      5  C   UNL     1       6.861   5.847  15.683  0.00  0.00    +0.000 A 
ATOM      6  C   UNL     1       5.537   5.553  15.462  0.00  0.00    +0.000 A 
ATOM      7  C   UNL     1       4.555   5.948  16.329  0.00  0.00    +0.000 A 
ATOM      8  O   UNL     1       5.359   4.675  14.437  0.00  0.00    +0.000 OA
ATOM      9  C   UNL     1       6.706   4.176  14.354  0.00  0.00    +0.000 C 
ATOM     10  O   UNL     1       7.670   5.131  14.852  0.00  0.00    +0.000 OA
ENDBRANCH   1   2
BRANCH   1  14
ATOM     11  N   UNL     1       1.517   8.615  20.344  0.00  0.00    +0.000 N 
ATOM     12  C   UNL     1       1.809   7.233  20.753  0.00  0.00    +0.000 C 
ATOM     13  C   UNL     1       1.655   6.267  19.548  0.00  0.00    +0.000 C 
ATOM     14  N   UNL     1       2.494   6.623  18.355  0.00  0.00    +0.000 NA
ATOM     15  C   UNL     1       2.064   8.016  18.012  0.00  0.00    +0.000 C 
ATOM     16  C   UNL     1       2.187   9.082  19.126  0.00  0.00    +0.000 C 
BRANCH  11  20
ATOM     17  C   UNL     1      -1.201  11.096  22.416  0.00  0.00    +0.000 A 
ATOM     18  C   UNL     1      -0.592  10.025  23.061  0.00  0.00    +0.000 A 
ATOM     19  C   UNL     1       0.312   9.202  22.375  0.00  0.00    +0.000 A 
ATOM     20  C   UNL     1       0.622   9.415  21.024  0.00  0.00    +0.000 A 
ATOM     21  C   UNL     1      -0.012  10.499  20.401  0.00  0.00    +0.000 A 
ATOM     22  C   UNL     1      -0.916  11.327  21.072  0.00  0.00    +0.000 A 
BRANCH  17  24
ATOM     23  C   UNL     1      -3.039  12.573  22.432  0.00  0.00    +0.000 C 
ATOM     24  O   UNL     1      -2.073  11.829  23.168  0.00  0.00    +0.000 OA
ENDBRANCH  17  24
ENDBRANCH  11  20
ENDBRANCH   1  14
BRANCH   1  25
ATOM     25  C   UNL     1       4.295   5.250  19.562  0.00  0.00    +0.000 C 
BRANCH  25  26
ATOM     26  N   UNL     1       3.466   4.102  19.273  0.00  0.00    +0.000 N 
ATOM     27  C   UNL     1       3.919   2.828  19.505  0.00  0.00    +0.000 C 
ATOM     28  O   UNL     1       4.981   2.584  20.066  0.00  0.00    +0.000 OA
ATOM     29  H   UNL     1       2.538   4.267  18.906  0.00  0.00    +0.000 HD
BRANCH  27  30
ATOM     30  C   UNL     1       3.003   1.737  18.985  0.00  0.00    +0.000 C 
BRANCH  30  31
ATOM     31  C   UNL     1       1.608   1.809  19.628  0.00  0.00    +0.000 C 
ATOM     32  C   UNL     1       1.645   2.483  21.002  0.00  0.00    +0.000 C 
ATOM     33  C   UNL     1       0.655   2.556  18.699  0.00  0.00    +0.000 C 
ENDBRANCH  30  31
ENDBRANCH  27  30
ENDBRANCH  25  26
ENDBRANCH   1  25
TORSDOF 8
ENDMDL
MODEL 3
REMARK VINA RESULT:      -7.2      1.436      5.669
REMARK  Name = 
REMARK  11 active torsions:
REMARK  status: ('A' for Active; 'I' for Inactive)
REMARK    1  A    between atoms: C_1  and  O_2
REMARK    2  A    between atoms: O_2  and  C_3
REMARK    3  A    between atoms: C_6  and  N_7
REMARK    4  A    between atoms: N_10  and  C_11
REMARK    5  A    between atoms: C_11  and  C_12
REMARK    6  A    between atoms: C_11  and  C_20
REMARK    7  A    between atoms: C_12  and  N_13
REMARK    8  A    between atoms: C_14  and  C_16
REMARK    9  A    between atoms: C_16  and  C_17
REMARK   10  A    between atoms: C_17  and  C_18
REMARK   11  A    between atoms: C_17  and  C_19
REMARK                            x       y       z     vdW  Elec       q    Type
REMARK                         _______ _______ _______ _____ _____    ______ ____
ROOT
ATOM      1  C   UNL     1       5.331   4.417  16.990  0.00  0.00    +0.000 C 
ENDROOT
BRANCH   1   2
ATOM      2  C   UNL     1       6.018   4.075  15.656  0.00  0.00    +0.000 A 
ATOM      3  C   UNL     1       5.414   3.350  14.603  0.00  0.00    +0.000 A 
ATOM      4  C   UNL     1       5.845   3.518  13.280  0.00  0.00    +0.000 A 
ATOM      5  C   UNL     1       6.914   4.358  13.066  0.00  0.00    +0.000 A 
ATOM      6  C   UNL     1       7.631   4.891  14.110  0.00  0.00    +0.000 A 
ATOM      7  C   UNL     1       7.239   4.732  15.411  0.00  0.00    +0.000 A 
ATOM      8  O   UNL     1       8.610   5.740  13.693  0.00  0.00    +0.000 OA
ATOM      9  C   UNL     1       8.135   5.966  12.354  0.00  0.00    +0.000 C 
ATOM     10  O   UNL     1       7.330   4.867  11.871  0.00  0.00    +0.000 OA
ENDBRANCH   1   2
BRANCH   1  14
ATOM     11  N   UNL     1       3.152   6.781  18.673  0.00  0.00    +0.000 N 
ATOM     12  C   UNL     1       3.470   6.842  17.239  0.00  0.00    +0.000 C 
ATOM     13  C   UNL     1       5.008   6.860  17.025  0.00  0.00    +0.000 C 
ATOM     14  N   UNL     1       5.736   5.705  17.649  0.00  0.00    +0.000 NA
ATOM     15  C   UNL     1       5.373   5.790  19.101  0.00  0.00    +0.000 C 
ATOM     16  C   UNL     1       3.866   5.762  19.450  0.00  0.00    +0.000 C 
BRANCH  11  20
ATOM     17  C   UNL     1       0.457   9.453  20.526  0.00  0.00    +0.000 A 
ATOM     18  C   UNL     1       0.869   9.664  19.215  0.00  0.00    +0.000 A 
ATOM     19  C   UNL     1       1.761   8.777  18.598  0.00  0.00    +0.000 A 
ATOM     20  C   UNL     1       2.280   7.664  19.276  0.00  0.00    +0.000 A 
ATOM     21  C   UNL     1       1.849   7.481  20.597  0.00  0.00    +0.000 A 
ATOM     22  C   UNL     1       0.961   8.357  21.225  0.00  0.00    +0.000 A 
BRANCH  17  24
ATOM     23  C   UNL     1      -0.322  11.677  20.459  0.00  0.00    +0.000 C 
ATOM     24  O   UNL     1      -0.404  10.379  21.039  0.00  0.00    +0.000 OA
ENDBRANCH  17  24
ENDBRANCH  11  20
ENDBRANCH   1  14
BRANCH   1  25
ATOM     25  C   UNL     1       3.789   4.237  16.849  0.00  0.00    +0.000 C 
BRANCH  25  26
ATOM     26  N   UNL     1       3.258   3.173  17.670  0.00  0.00    +0.000 N 
ATOM     27  C   UNL     1       1.918   3.102  17.953  0.00  0.00    +0.000 C 
ATOM     28  O   UNL     1       1.084   3.846  17.449  0.00  0.00    +0.000 OA
ATOM     29  H   UNL     1       3.902   2.476  18.019  0.00  0.00    +0.000 HD
BRANCH  27  30
ATOM     30  C   UNL     1       1.550   2.036  18.967  0.00  0.00    +0.000 C 
BRANCH  30  31
ATOM     31  C   UNL     1       1.424   2.616  20.385  0.00  0.00    +0.000 C 
ATOM     32  C   UNL     1       2.768   2.640  21.116  0.00  0.00    +0.000 C 
ATOM     33  C   UNL     1       0.839   4.025  20.310  0.00  0.00    +0.000 C 
ENDBRANCH  30  31
ENDBRANCH  27  30
ENDBRANCH  25  26
ENDBRANCH   1  25
TORSDOF 8
ENDMDL
MODEL 4
REMARK VINA RESULT:      -7.2      4.044     10.042
REMARK  Name = 
REMARK  11 active torsions:
REMARK  status: ('A' for Active; 'I' for Inactive)
REMARK    1  A    between atoms: C_1  and  O_2
REMARK    2  A    between atoms: O_2  and  C_3
REMARK    3  A    between atoms: C_6  and  N_7
REMARK    4  A    between atoms: N_10  and  C_11
REMARK    5  A    between atoms: C_11  and  C_12
REMARK    6  A    between atoms: C_11  and  C_20
REMARK    7  A    between atoms: C_12  and  N_13
REMARK    8  A    between atoms: C_14  and  C_16
REMARK    9  A    between atoms: C_16  and  C_17
REMARK   10  A    between atoms: C_17  and  C_18
REMARK   11  A    between atoms: C_17  and  C_19
REMARK                            x       y       z     vdW  Elec       q    Type
REMARK                         _______ _______ _______ _____ _____    ______ ____
ROOT
ATOM      1  C   UNL     1      -0.196  11.660  20.937  0.00  0.00    +0.000 C 
ENDROOT
BRANCH   1   2
ATOM      2  C   UNL     1      -0.773  12.330  22.197  0.00  0.00    +0.000 A 
ATOM      3  C   UNL     1      -0.499  13.658  22.598  0.00  0.00    +0.000 A 
ATOM      4  C   UNL     1      -1.410  14.365  23.396  0.00  0.00    +0.000 A 
ATOM      5  C   UNL     1      -2.533  13.694  23.820  0.00  0.00    +0.000 A 
ATOM      6  C   UNL     1      -2.689  12.345  23.607  0.00  0.00    +0.000 A 
ATOM      7  C   UNL     1      -1.809  11.628  22.843  0.00  0.00    +0.000 A 
ATOM      8  O   UNL     1      -3.889  11.880  24.049  0.00  0.00    +0.000 OA
ATOM      9  C   UNL     1      -4.572  13.141  24.163  0.00  0.00    +0.000 C 
ATOM     10  O   UNL     1      -3.655  14.239  24.369  0.00  0.00    +0.000 OA
ENDBRANCH   1   2
BRANCH   1  14
ATOM     11  N   UNL     1       1.503   8.652  19.825  0.00  0.00    +0.000 N 
ATOM     12  C   UNL     1       1.087   9.735  18.923  0.00  0.00    +0.000 C 
ATOM     13  C   UNL     1      -0.426  10.035  19.099  0.00  0.00    +0.000 C 
ATOM     14  N   UNL     1      -0.835  10.371  20.503  0.00  0.00    +0.000 NA
ATOM     15  C   UNL     1      -0.408   9.176  21.300  0.00  0.00    +0.000 C 
ATOM     16  C   UNL     1       1.087   8.783  21.226  0.00  0.00    +0.000 C 
BRANCH  11  20
ATOM     17  C   UNL     1       3.636   5.255  18.502  0.00  0.00    +0.000 A 
ATOM     18  C   UNL     1       3.644   6.428  17.755  0.00  0.00    +0.000 A 
ATOM     19  C   UNL     1       2.939   7.556  18.194  0.00  0.00    +0.000 A 
ATOM     20  C   UNL     1       2.193   7.542  19.382  0.00  0.00    +0.000 A 
ATOM     21  C   UNL     1       2.200   6.344  20.109  0.00  0.00    +0.000 A 
ATOM     22  C   UNL     1       2.898   5.211  19.684  0.00  0.00    +0.000 A 
BRANCH  17  24
ATOM     23  C   UNL     1       4.084   2.942  18.575  0.00  0.00    +0.000 C 
ATOM     24  O   UNL     1       4.344   4.211  17.983  0.00  0.00    +0.000 OA
ENDBRANCH  17  24
ENDBRANCH  11  20
ENDBRANCH   1  14
BRANCH   1  25
ATOM     25  C   UNL     1      -0.060  12.712  19.796  0.00  0.00    +0.000 C 
BRANCH  25  26
ATOM     26  N   UNL     1       1.155  13.491  19.875  0.00  0.00    +0.000 N 
ATOM     27  C   UNL     1       2.085  13.452  18.868  0.00  0.00    +0.000 C 
ATOM     28  O   UNL     1       1.904  12.863  17.808  0.00  0.00    +0.000 OA
ATOM     29  H   UNL     1       1.292  14.075  20.689  0.00  0.00    +0.000 HD
BRANCH  27  30
ATOM     30  C   UNL     1       3.376  14.182  19.183  0.00  0.00    +0.000 C 
BRANCH  30  31
ATOM     31  C   UNL     1       3.875  15.003  17.983  0.00  0.00    +0.000 C 
ATOM     32  C   UNL     1       3.498  16.482  18.104  0.00  0.00    +0.000 C 
ATOM     33  C   UNL     1       5.389  14.853  17.855  0.00  0.00    +0.000 C 
ENDBRANCH  30  31
ENDBRANCH  27  30
ENDBRANCH  25  26
ENDBRANCH   1  25
TORSDOF 8
ENDMDL
MODEL 5
REMARK VINA RESULT:      -7.2      2.181      5.422
REMARK  Name = 
REMARK  11 active torsions:
REMARK  status: ('A' for Active; 'I' for Inactive)
REMARK    1  A    between atoms: C_1  and  O_2
REMARK    2  A    between atoms: O_2  and  C_3
REMARK    3  A    between atoms: C_6  and  N_7
REMARK    4  A    between atoms: N_10  and  C_11
REMARK    5  A    between atoms: C_11  and  C_12
REMARK    6  A    between atoms: C_11  and  C_20
REMARK    7  A    between atoms: C_12  and  N_13
REMARK    8  A    between atoms: C_14  and  C_16
REMARK    9  A    between atoms: C_16  and  C_17
REMARK   10  A    between atoms: C_17  and  C_18
REMARK   11  A    between atoms: C_17  and  C_19
REMARK                            x       y       z     vdW  Elec       q    Type
REMARK                         _______ _______ _______ _____ _____    ______ ____
ROOT
ATOM      1  C   UNL     1       3.913   6.489  18.660  0.00  0.00    +0.000 C 
ENDROOT
BRANCH   1   2
ATOM      2  C   UNL     1       4.972   6.532  17.544  0.00  0.00    +0.000 A 
ATOM      3  C   UNL     1       6.329   6.880  17.736  0.00  0.00    +0.000 A 
ATOM      4  C   UNL     1       7.318   6.411  16.860  0.00  0.00    +0.000 A 
ATOM      5  C   UNL     1       6.904   5.663  15.782  0.00  0.00    +0.000 A 
ATOM      6  C   UNL     1       5.572   5.508  15.482  0.00  0.00    +0.000 A 
ATOM      7  C   UNL     1       4.587   5.967  16.313  0.00  0.00    +0.000 A 
ATOM      8  O   UNL     1       5.368   4.688  14.416  0.00  0.00    +0.000 OA
ATOM      9  C   UNL     1       6.663   4.063  14.381  0.00  0.00    +0.000 C 
ATOM     10  O   UNL     1       7.686   4.900  14.966  0.00  0.00    +0.000 OA
ENDBRANCH   1   2
BRANCH   1  14
ATOM     11  N   UNL     1       1.504   9.025  19.624  0.00  0.00    +0.000 N 
ATOM     12  C   UNL     1       1.720   7.778  20.372  0.00  0.00    +0.000 C 
ATOM     13  C   UNL     1       1.574   6.551  19.432  0.00  0.00    +0.000 C 
ATOM     14  N   UNL     1       2.475   6.576  18.233  0.00  0.00    +0.000 NA
ATOM     15  C   UNL     1       2.119   7.855  17.538  0.00  0.00    +0.000 C 
ATOM     16  C   UNL     1       2.242   9.158  18.364  0.00  0.00    +0.000 C 
BRANCH  11  20
ATOM     17  C   UNL     1      -1.223  11.972  20.934  0.00  0.00    +0.000 A 
ATOM     18  C   UNL     1      -1.286  11.481  19.635  0.00  0.00    +0.000 A 
ATOM     19  C   UNL     1      -0.383  10.502  19.200  0.00  0.00    +0.000 A 
ATOM     20  C   UNL     1       0.617   9.995  20.043  0.00  0.00    +0.000 A 
ATOM     21  C   UNL     1       0.657  10.513  21.344  0.00  0.00    +0.000 A 
ATOM     22  C   UNL     1      -0.236  11.490  21.792  0.00  0.00    +0.000 A 
BRANCH  17  24
ATOM     23  C   UNL     1      -3.417  12.786  20.644  0.00  0.00    +0.000 C 
ATOM     24  O   UNL     1      -2.139  12.930  21.256  0.00  0.00    +0.000 OA
ENDBRANCH  17  24
ENDBRANCH  11  20
ENDBRANCH   1  14
BRANCH   1  25
ATOM     25  C   UNL     1       4.214   5.302  19.625  0.00  0.00    +0.000 C 
BRANCH  25  26
ATOM     26  N   UNL     1       3.417   4.127  19.355  0.00  0.00    +0.000 N 
ATOM     27  C   UNL     1       3.936   2.869  19.523  0.00  0.00    +0.000 C 
ATOM     28  O   UNL     1       5.040   2.657  20.012  0.00  0.00    +0.000 OA
ATOM     29  H   UNL     1       2.461   4.261  19.051  0.00  0.00    +0.000 HD
BRANCH  27  30
ATOM     30  C   UNL     1       3.036   1.752  19.031  0.00  0.00    +0.000 C 
BRANCH  30  31
ATOM     31  C   UNL     1       1.633   1.833  19.655  0.00  0.00    +0.000 C 
ATOM     32  C   UNL     1       1.658   2.492  21.036  0.00  0.00    +0.000 C 
ATOM     33  C   UNL     1       0.702   2.602  18.720  0.00  0.00    +0.000 C 
ENDBRANCH  30  31
ENDBRANCH  27  30
ENDBRANCH  25  26
ENDBRANCH   1  25
TORSDOF 8
ENDMDL
MODEL 6
REMARK VINA RESULT:      -7.2      2.592      5.783
REMARK  Name = 
REMARK  11 active torsions:
REMARK  status: ('A' for Active; 'I' for Inactive)
REMARK    1  A    between atoms: C_1  and  O_2
REMARK    2  A    between atoms: O_2  and  C_3
REMARK    3  A    between atoms: C_6  and  N_7
REMARK    4  A    between atoms: N_10  and  C_11
REMARK    5  A    between atoms: C_11  and  C_12
REMARK    6  A    between atoms: C_11  and  C_20
REMARK    7  A    between atoms: C_12  and  N_13
REMARK    8  A    between atoms: C_14  and  C_16
REMARK    9  A    between atoms: C_16  and  C_17
REMARK   10  A    between atoms: C_17  and  C_18
REMARK   11  A    between atoms: C_17  and  C_19
REMARK                            x       y       z     vdW  Elec       q    Type
REMARK                         _______ _______ _______ _____ _____    ______ ____
ROOT
ATOM      1  C   UNL     1       3.661   3.665  18.787  0.00  0.00    +0.000 C 
ENDROOT
BRANCH   1   2
ATOM      2  C   UNL     1       4.950   4.044  18.037  0.00  0.00    +0.000 A 
ATOM      3  C   UNL     1       5.125   3.947  16.638  0.00  0.00    +0.000 A 
ATOM      4  C   UNL     1       6.054   4.762  15.975  0.00  0.00    +0.000 A 
ATOM      5  C   UNL     1       6.825   5.599  16.748  0.00  0.00    +0.000 A 
ATOM      6  C   UNL     1       6.802   5.536  18.121  0.00  0.00    +0.000 A 
ATOM      7  C   UNL     1       5.914   4.740  18.793  0.00  0.00    +0.000 A 
ATOM      8  O   UNL     1       7.589   6.482  18.702  0.00  0.00    +0.000 OA
ATOM      9  C   UNL     1       7.744   7.351  17.565  0.00  0.00    +0.000 C 
ATOM     10  O   UNL     1       7.588   6.642  16.315  0.00  0.00    +0.000 OA
ENDBRANCH   1   2
BRANCH   1  14
ATOM     11  N   UNL     1       2.203   6.777  19.953  0.00  0.00    +0.000 N 
ATOM     12  C   UNL     1       1.907   5.464  20.545  0.00  0.00    +0.000 C 
ATOM     13  C   UNL     1       1.429   4.472  19.450  0.00  0.00    +0.000 C 
ATOM     14  N   UNL     1       2.386   4.299  18.307  0.00  0.00    +0.000 NA
ATOM     15  C   UNL     1       2.558   5.686  17.766  0.00  0.00    +0.000 C 
ATOM     16  C   UNL     1       3.051   6.768  18.756  0.00  0.00    +0.000 C 
BRANCH  11  20
ATOM     17  C   UNL     1       0.551  10.347  21.488  0.00  0.00    +0.000 A 
ATOM     18  C   UNL     1       0.767  10.201  20.123  0.00  0.00    +0.000 A 
ATOM     19  C   UNL     1       1.312   9.016  19.612  0.00  0.00    +0.000 A 
ATOM     20  C   UNL     1       1.673   7.950  20.449  0.00  0.00    +0.000 A 
ATOM     21  C   UNL     1       1.448   8.130  21.821  0.00  0.00    +0.000 A 
ATOM     22  C   UNL     1       0.906   9.306  22.344  0.00  0.00    +0.000 A 
BRANCH  17  24
ATOM     23  C   UNL     1      -1.234  11.468  22.544  0.00  0.00    +0.000 C 
ATOM     24  O   UNL     1       0.026  11.543  21.886  0.00  0.00    +0.000 OA
ENDBRANCH  17  24
ENDBRANCH  11  20
ENDBRANCH   1  14
BRANCH   1  25
ATOM     25  C   UNL     1       3.577   2.116  18.938  0.00  0.00    +0.000 C 
BRANCH  25  26
ATOM     26  N   UNL     1       4.699   1.546  19.649  0.00  0.00    +0.000 N 
ATOM     27  C   UNL     1       4.700   1.466  21.018  0.00  0.00    +0.000 C 
ATOM     28  O   UNL     1       3.730   1.756  21.710  0.00  0.00    +0.000 OA
ATOM     29  H   UNL     1       5.478   1.197  19.105  0.00  0.00    +0.000 HD
BRANCH  27  30
ATOM     30  C   UNL     1       6.018   1.010  21.615  0.00  0.00    +0.000 C 
BRANCH  30  31
ATOM     31  C   UNL     1       6.057  -0.513  21.814  0.00  0.00    +0.000 C 
ATOM     32  C   UNL     1       6.252  -1.259  20.491  0.00  0.00    +0.000 C 
ATOM     33  C   UNL     1       7.173  -0.872  22.792  0.00  0.00    +0.000 C 
ENDBRANCH  30  31
ENDBRANCH  27  30
ENDBRANCH  25  26
ENDBRANCH   1  25
TORSDOF 8
ENDMDL
MODEL 7
REMARK VINA RESULT:      -7.2      4.151     10.340
REMARK  Name = 
REMARK  11 active torsions:
REMARK  status: ('A' for Active; 'I' for Inactive)
REMARK    1  A    between atoms: C_1  and  O_2
REMARK    2  A    between atoms: O_2  and  C_3
REMARK    3  A    between atoms: C_6  and  N_7
REMARK    4  A    between atoms: N_10  and  C_11
REMARK    5  A    between atoms: C_11  and  C_12
REMARK    6  A    between atoms: C_11  and  C_20
REMARK    7  A    between atoms: C_12  and  N_13
REMARK    8  A    between atoms: C_14  and  C_16
REMARK    9  A    between atoms: C_16  and  C_17
REMARK   10  A    between atoms: C_17  and  C_18
REMARK   11  A    between atoms: C_17  and  C_19
REMARK                            x       y       z     vdW  Elec       q    Type
REMARK                         _______ _______ _______ _____ _____    ______ ____
ROOT
ATOM      1  C   UNL     1      -0.080  11.599  21.056  0.00  0.00    +0.000 C 
ENDROOT
BRANCH   1   2
ATOM      2  C   UNL     1      -0.714  12.315  22.261  0.00  0.00    +0.000 A 
ATOM      3  C   UNL     1      -0.476  13.664  22.612  0.00  0.00    +0.000 A 
ATOM      4  C   UNL     1      -1.426  14.390  23.343  0.00  0.00    +0.000 A 
ATOM      5  C   UNL     1      -2.554  13.719  23.755  0.00  0.00    +0.000 A 
ATOM      6  C   UNL     1      -2.682  12.360  23.597  0.00  0.00    +0.000 A 
ATOM      7  C   UNL     1      -1.763  11.625  22.899  0.00  0.00    +0.000 A 
ATOM      8  O   UNL     1      -3.891  11.896  24.015  0.00  0.00    +0.000 OA
ATOM      9  C   UNL     1      -4.597  13.149  24.047  0.00  0.00    +0.000 C 
ATOM     10  O   UNL     1      -3.704  14.270  24.238  0.00  0.00    +0.000 OA
ENDBRANCH   1   2
BRANCH   1  14
ATOM     11  N   UNL     1       1.586   8.632  19.794  0.00  0.00    +0.000 N 
ATOM     12  C   UNL     1       1.133   9.739  18.940  0.00  0.00    +0.000 C 
ATOM     13  C   UNL     1      -0.373  10.028  19.180  0.00  0.00    +0.000 C 
ATOM     14  N   UNL     1      -0.731  10.321  20.607  0.00  0.00    +0.000 NA
ATOM     15  C   UNL     1      -0.270   9.105  21.353  0.00  0.00    +0.000 C 
ATOM     16  C   UNL     1       1.222   8.720  21.212  0.00  0.00    +0.000 C 
BRANCH  11  20
ATOM     17  C   UNL     1       3.635   5.288  18.226  0.00  0.00    +0.000 A 
ATOM     18  C   UNL     1       2.922   5.184  19.415  0.00  0.00    +0.000 A 
ATOM     19  C   UNL     1       2.240   6.292  19.935  0.00  0.00    +0.000 A 
ATOM     20  C   UNL     1       2.262   7.539  19.293  0.00  0.00    +0.000 A 
ATOM     21  C   UNL     1       2.993   7.613  18.099  0.00  0.00    +0.000 A 
ATOM     22  C   UNL     1       3.679   6.517  17.569  0.00  0.00    +0.000 A 
BRANCH  17  24
ATOM     23  C   UNL     1       3.591   2.935  18.081  0.00  0.00    +0.000 C 
ATOM     24  O   UNL     1       4.273   4.156  17.811  0.00  0.00    +0.000 OA
ENDBRANCH  17  24
ENDBRANCH  11  20
ENDBRANCH   1  14
BRANCH   1  25
ATOM     25  C   UNL     1       0.162  12.621  19.904  0.00  0.00    +0.000 C 
BRANCH  25  26
ATOM     26  N   UNL     1       1.533  13.067  19.811  0.00  0.00    +0.000 N 
ATOM     27  C   UNL     1       1.835  14.398  19.675  0.00  0.00    +0.000 C 
ATOM     28  O   UNL     1       0.994  15.288  19.740  0.00  0.00    +0.000 OA
ATOM     29  H   UNL     1       2.264  12.369  19.861  0.00  0.00    +0.000 HD
BRANCH  27  30
ATOM     30  C   UNL     1       3.302  14.681  19.413  0.00  0.00    +0.000 C 
BRANCH  30  31
ATOM     31  C   UNL     1       3.505  16.036  18.716  0.00  0.00    +0.000 C 
ATOM     32  C   UNL     1       4.789  16.730  19.176  0.00  0.00    +0.000 C 
ATOM     33  C   UNL     1       3.528  15.833  17.203  0.00  0.00    +0.000 C 
ENDBRANCH  30  31
ENDBRANCH  27  30
ENDBRANCH  25  26
ENDBRANCH   1  25
TORSDOF 8
ENDMDL
MODEL 8
REMARK VINA RESULT:      -7.1      2.175      5.018
REMARK  Name = 
REMARK  11 active torsions:
REMARK  status: ('A' for Active; 'I' for Inactive)
REMARK    1  A    between atoms: C_1  and  O_2
REMARK    2  A    between atoms: O_2  and  C_3
REMARK    3  A    between atoms: C_6  and  N_7
REMARK    4  A    between atoms: N_10  and  C_11
REMARK    5  A    between atoms: C_11  and  C_12
REMARK    6  A    between atoms: C_11  and  C_20
REMARK    7  A    between atoms: C_12  and  N_13
REMARK    8  A    between atoms: C_14  and  C_16
REMARK    9  A    between atoms: C_16  and  C_17
REMARK   10  A    between atoms: C_17  and  C_18
REMARK   11  A    between atoms: C_17  and  C_19
REMARK                            x       y       z     vdW  Elec       q    Type
REMARK                         _______ _______ _______ _____ _____    ______ ____
ROOT
ATOM      1  C   UNL     1       3.942   6.381  18.895  0.00  0.00    +0.000 C 
ENDROOT
BRANCH   1   2
ATOM      2  C   UNL     1       4.954   6.399  17.736  0.00  0.00    +0.000 A 
ATOM      3  C   UNL     1       6.326   6.715  17.872  0.00  0.00    +0.000 A 
ATOM      4  C   UNL     1       7.267   6.221  16.956  0.00  0.00    +0.000 A 
ATOM      5  C   UNL     1       6.790   5.484  15.897  0.00  0.00    +0.000 A 
ATOM      6  C   UNL     1       5.444   5.360  15.653  0.00  0.00    +0.000 A 
ATOM      7  C   UNL     1       4.505   5.843  16.523  0.00  0.00    +0.000 A 
ATOM      8  O   UNL     1       5.175   4.545  14.597  0.00  0.00    +0.000 OA
ATOM      9  C   UNL     1       6.453   3.889  14.509  0.00  0.00    +0.000 C 
ATOM     10  O   UNL     1       7.519   4.702  15.050  0.00  0.00    +0.000 OA
ENDBRANCH   1   2
BRANCH   1  14
ATOM     11  N   UNL     1       1.467   8.976  19.452  0.00  0.00    +0.000 N 
ATOM     12  C   UNL     1       1.761   7.908  20.418  0.00  0.00    +0.000 C 
ATOM     13  C   UNL     1       1.632   6.516  19.743  0.00  0.00    +0.000 C 
ATOM     14  N   UNL     1       2.487   6.335  18.523  0.00  0.00    +0.000 NA
ATOM     15  C   UNL     1       2.053   7.441  17.609  0.00  0.00    +0.000 C 
ATOM     16  C   UNL     1       2.152   8.884  18.158  0.00  0.00    +0.000 C 
BRANCH  11  20
ATOM     17  C   UNL     1      -1.311  12.065  20.212  0.00  0.00    +0.000 A 
ATOM     18  C   UNL     1      -0.264  11.826  21.095  0.00  0.00    +0.000 A 
ATOM     19  C   UNL     1       0.659  10.803  20.843  0.00  0.00    +0.000 A 
ATOM     20  C   UNL     1       0.557   9.980  19.711  0.00  0.00    +0.000 A 
ATOM     21  C   UNL     1      -0.511  10.244  18.843  0.00  0.00    +0.000 A 
ATOM     22  C   UNL     1      -1.440  11.260  19.082  0.00  0.00    +0.000 A 
BRANCH  17  24
ATOM     23  C   UNL     1      -3.263  12.698  21.374  0.00  0.00    +0.000 C 
ATOM     24  O   UNL     1      -2.162  13.076  20.553  0.00  0.00    +0.000 OA
ENDBRANCH  17  24
ENDBRANCH  11  20
ENDBRANCH   1  14
BRANCH   1  25
ATOM     25  C   UNL     1       4.359   5.305  19.942  0.00  0.00    +0.000 C 
BRANCH  25  26
ATOM     26  N   UNL     1       3.677   4.043  19.771  0.00  0.00    +0.000 N 
ATOM     27  C   UNL     1       4.261   3.013  19.079  0.00  0.00    +0.000 C 
ATOM     28  O   UNL     1       5.417   3.049  18.669  0.00  0.00    +0.000 OA
ATOM     29  H   UNL     1       2.761   3.938  20.188  0.00  0.00    +0.000 HD
BRANCH  27  30
ATOM     30  C   UNL     1       3.348   1.827  18.838  0.00  0.00    +0.000 C 
BRANCH  30  31
ATOM     31  C   UNL     1       2.127   2.211  17.987  0.00  0.00    +0.000 C 
ATOM     32  C   UNL     1       0.968   2.721  18.847  0.00  0.00    +0.000 C 
ATOM     33  C   UNL     1       2.530   3.269  16.963  0.00  0.00    +0.000 C 
ENDBRANCH  30  31
ENDBRANCH  27  30
ENDBRANCH  25  26
ENDBRANCH   1  25
TORSDOF 8
ENDMDL
MODEL 9
REMARK VINA RESULT:      -7.0      1.082      1.374
REMARK  Name = 
REMARK  11 active torsions:
REMARK  status: ('A' for Active; 'I' for Inactive)
REMARK    1  A    between atoms: C_1  and  O_2
REMARK    2  A    between atoms: O_2  and  C_3
REMARK    3  A    between atoms: C_6  and  N_7
REMARK    4  A    between atoms: N_10  and  C_11
REMARK    5  A    between atoms: C_11  and  C_12
REMARK    6  A    between atoms: C_11  and  C_20
REMARK    7  A    between atoms: C_12  and  N_13
REMARK    8  A    between atoms: C_14  and  C_16
REMARK    9  A    between atoms: C_16  and  C_17
REMARK   10  A    between atoms: C_17  and  C_18
REMARK   11  A    between atoms: C_17  and  C_19
REMARK                            x       y       z     vdW  Elec       q    Type
REMARK                         _______ _______ _______ _____ _____    ______ ____
ROOT
ATOM      1  C   UNL     1       4.365   5.632  17.003  0.00  0.00    +0.000 C 
ENDROOT
BRANCH   1   2
ATOM      2  C   UNL     1       3.921   4.227  17.448  0.00  0.00    +0.000 A 
ATOM      3  C   UNL     1       4.681   3.367  18.273  0.00  0.00    +0.000 A 
ATOM      4  C   UNL     1       4.054   2.386  19.054  0.00  0.00    +0.000 A 
ATOM      5  C   UNL     1       2.690   2.257  18.929  0.00  0.00    +0.000 A 
ATOM      6  C   UNL     1       1.985   2.947  17.972  0.00  0.00    +0.000 A 
ATOM      7  C   UNL     1       2.576   3.901  17.188  0.00  0.00    +0.000 A 
ATOM      8  O   UNL     1       0.644   2.728  18.049  0.00  0.00    +0.000 OA
ATOM      9  C   UNL     1       0.598   2.179  19.377  0.00  0.00    +0.000 C 
ATOM     10  O   UNL     1       1.853   1.570  19.757  0.00  0.00    +0.000 OA
ENDBRANCH   1   2
BRANCH   1  14
ATOM     11  N   UNL     1       2.183   7.946  18.750  0.00  0.00    +0.000 N 
ATOM     12  C   UNL     1       2.905   8.280  17.514  0.00  0.00    +0.000 C 
ATOM     13  C   UNL     1       4.423   8.000  17.682  0.00  0.00    +0.000 C 
ATOM     14  N   UNL     1       4.755   6.595  18.089  0.00  0.00    +0.000 NA
ATOM     15  C   UNL     1       4.008   6.404  19.374  0.00  0.00    +0.000 C 
ATOM     16  C   UNL     1       2.478   6.634  19.336  0.00  0.00    +0.000 C 
BRANCH  11  20
ATOM     17  C   UNL     1      -0.482  10.619  20.646  0.00  0.00    +0.000 A 
ATOM     18  C   UNL     1      -0.249  10.708  19.278  0.00  0.00    +0.000 A 
ATOM     19  C   UNL     1       0.633   9.820  18.647  0.00  0.00    +0.000 A 
ATOM     20  C   UNL     1       1.320   8.829  19.365  0.00  0.00    +0.000 A 
ATOM     21  C   UNL     1       1.067   8.769  20.742  0.00  0.00    +0.000 A 
ATOM     22  C   UNL     1       0.191   9.648  21.385  0.00  0.00    +0.000 A 
BRANCH  17  24
ATOM     23  C   UNL     1      -1.605  12.670  20.342  0.00  0.00    +0.000 C 
ATOM     24  O   UNL     1      -1.349  11.536  21.165  0.00  0.00    +0.000 OA
ENDBRANCH  17  24
ENDBRANCH  11  20
ENDBRANCH   1  14
BRANCH   1  25
ATOM     25  C   UNL     1       5.415   5.514  15.858  0.00  0.00    +0.000 C 
BRANCH  25  26
ATOM     26  N   UNL     1       5.356   4.255  15.152  0.00  0.00    +0.000 N 
ATOM     27  C   UNL     1       6.112   4.039  14.028  0.00  0.00    +0.000 C 
ATOM     28  O   UNL     1       6.954   4.832  13.622  0.00  0.00    +0.000 OA
ATOM     29  H   UNL     1       4.750   3.532  15.519  0.00  0.00    +0.000 HD
BRANCH  27  30
ATOM     30  C   UNL     1       5.803   2.740  13.309  0.00  0.00    +0.000 C 
BRANCH  30  31
ATOM     31  C   UNL     1       5.791   2.923  11.782  0.00  0.00    +0.000 C 
ATOM     32  C   UNL     1       6.361   1.702  11.055  0.00  0.00    +0.000 C 
ATOM     33  C   UNL     1       4.365   3.199  11.313  0.00  0.00    +0.000 C 
ENDBRANCH  30  31
ENDBRANCH  27  30
ENDBRANCH  25  26
ENDBRANCH   1  25
TORSDOF 8
ENDMDL
