MODEL 1
REMARK VINA RESULT:      -7.4      0.000      0.000
REMARK  Name = 
REMARK  13 active torsions:
REMARK  status: ('A' for Active; 'I' for Inactive)
REMARK    1  A    between atoms: C_2  and  C_3
REMARK    2  A    between atoms: C_3  and  O_4
REMARK    3  A    between atoms: C_3  and  C_24
REMARK    4  A    between atoms: O_4  and  C_5
REMARK    5  A    between atoms: C_5  and  C_6
REMARK    6  A    between atoms: C_6  and  O_7
REMARK    7  A    between atoms: C_6  and  C_8
REMARK    8  A    between atoms: C_8  and  N_9
REMARK    9  A    between atoms: N_9  and  C_10
REMARK   10  A    between atoms: C_10  and  C_11
REMARK   11  A    between atoms: C_10  and  C_12
REMARK   12  A    between atoms: C_10  and  C_13
REMARK   13  A    between atoms: C_13  and  C_14
REMARK                            x       y       z     vdW  Elec       q    Type
REMARK                         _______ _______ _______ _____ _____    ______ ____
ROOT
ATOM      1  N   UNL     1       4.772   6.334  16.259  0.00  0.00    +0.000 NA
ATOM      2  H   UNL     1       5.014   6.969  15.497  0.00  0.00    +0.000 HD
ENDROOT
BRANCH   1   3
ATOM      3  C   UNL     1       5.778   5.243  16.359  0.00  0.00    +0.000 C 
ATOM      4  C   UNL     1       6.651   5.405  15.093  0.00  0.00    +0.000 C 
ATOM      5  C   UNL     1       6.657   5.439  17.612  0.00  0.00    +0.000 C 
BRANCH   3   6
ATOM      6  C   UNL     1       5.076   3.844  16.343  0.00  0.00    +0.000 C 
BRANCH   6   7
ATOM      7  C   UNL     1       3.929   3.638  17.317  0.00  0.00    +0.000 A 
ATOM      8  C   UNL     1       2.598   3.793  16.911  0.00  0.00    +0.000 A 
ATOM      9  C   UNL     1       1.552   3.613  17.828  0.00  0.00    +0.000 A 
ATOM     10  C   UNL     1       1.818   3.274  19.167  0.00  0.00    +0.000 A 
ATOM     11  C   UNL     1       0.787   3.090  20.104  0.00  0.00    +0.000 A 
ATOM     12  C   UNL     1       1.081   2.764  21.430  0.00  0.00    +0.000 A 
ATOM     13  C   UNL     1       2.402   2.622  21.839  0.00  0.00    +0.000 A 
ATOM     14  C   UNL     1       3.438   2.798  20.916  0.00  0.00    +0.000 A 
ATOM     15  C   UNL     1       3.159   3.117  19.576  0.00  0.00    +0.000 A 
ATOM     16  C   UNL     1       4.189   3.291  18.654  0.00  0.00    +0.000 A 
ENDBRANCH   6   7
ENDBRANCH   3   6
ENDBRANCH   1   3
BRANCH   1  17
ATOM     17  C   UNL     1       4.548   7.109  17.480  0.00  0.00    +0.000 C 
BRANCH  17  18
ATOM     18  C   UNL     1       3.066   7.184  17.904  0.00  0.00    +0.000 C 
BRANCH  18  19
ATOM     19  O   UNL     1       2.888   6.685  19.234  0.00  0.00    +0.000 OA
ATOM     20  H   UNL     1       2.078   7.085  19.592  0.00  0.00    +0.000 HD
ENDBRANCH  18  19
BRANCH  18  21
ATOM     21  C   UNL     1       2.646   8.658  17.825  0.00  0.00    +0.000 C 
BRANCH  21  22
ATOM     22  O   UNL     1       1.232   8.798  17.951  0.00  0.00    +0.000 OA
BRANCH  22  23
ATOM     23  C   UNL     1       0.806   9.930  18.729  0.00  0.00    +0.000 C 
BRANCH  23  24
ATOM     24  C   UNL     1      -0.636  10.322  18.404  0.00  0.00    +0.000 A 
ATOM     25  C   UNL     1      -1.351   9.741  17.342  0.00  0.00    +0.000 A 
ATOM     26  C   UNL     1      -2.624  10.193  16.998  0.00  0.00    +0.000 A 
ATOM     27  C   UNL     1      -3.220  11.218  17.726  0.00  0.00    +0.000 A 
ATOM     28  C   UNL     1      -2.545  11.786  18.805  0.00  0.00    +0.000 A 
ATOM     29  C   UNL     1      -1.263  11.343  19.143  0.00  0.00    +0.000 A 
ENDBRANCH  23  24
BRANCH  23  31
ATOM     30  C   UNL     1       0.483   8.732  20.953  0.00  0.00    +0.000 C 
ATOM     31  C   UNL     1       1.082   9.654  20.185  0.00  0.00    +0.000 C 
ENDBRANCH  23  31
ENDBRANCH  22  23
ENDBRANCH  21  22
ENDBRANCH  18  21
ENDBRANCH  17  18
ENDBRANCH   1  17
TORSDOF 11
ENDMDL
MODEL 2
REMARK VINA RESULT:      -7.2      2.406      7.515
REMARK  Name = 
REMARK  13 active torsions:
REMARK  status: ('A' for Active; 'I' for Inactive)
REMARK    1  A    between atoms: C_2  and  C_3
REMARK    2  A    between atoms: C_3  and  O_4
REMARK    3  A    between atoms: C_3  and  C_24
REMARK    4  A    between atoms: O_4  and  C_5
REMARK    5  A    between atoms: C_5  and  C_6
REMARK    6  A    between atoms: C_6  and  O_7
REMARK    7  A    between atoms: C_6  and  C_8
REMARK    8  A    between atoms: C_8  and  N_9
REMARK    9  A    between atoms: N_9  and  C_10
REMARK   10  A    between atoms: C_10  and  C_11
REMARK   11  A    between atoms: C_10  and  C_12
REMARK   12  A    between atoms: C_10  and  C_13
REMARK   13  A    between atoms: C_13  and  C_14
REMARK                            x       y       z     vdW  Elec       q    Type
REMARK                         _______ _______ _______ _____ _____    ______ ____
ROOT
ATOM      1  N   UNL     1       2.034   3.015  19.087  0.00  0.00    +0.000 NA
ATOM      2  H   UNL     1       1.401   2.220  19.182  0.00  0.00    +0.000 HD
ENDROOT
BRANCH   1   3
ATOM      3  C   UNL     1       2.123   3.758  20.373  0.00  0.00    +0.000 C 
ATOM      4  C   UNL     1       0.723   4.389  20.552  0.00  0.00    +0.000 C 
ATOM      5  C   UNL     1       2.395   2.783  21.537  0.00  0.00    +0.000 C 
BRANCH   3   6
ATOM      6  C   UNL     1       3.206   4.886  20.283  0.00  0.00    +0.000 C 
BRANCH   6   7
ATOM      7  C   UNL     1       2.777   6.203  19.661  0.00  0.00    +0.000 A 
ATOM      8  C   UNL     1       3.155   6.545  18.356  0.00  0.00    +0.000 A 
ATOM      9  C   UNL     1       2.762   7.772  17.803  0.00  0.00    +0.000 A 
ATOM     10  C   UNL     1       1.984   8.680  18.544  0.00  0.00    +0.000 A 
ATOM     11  C   UNL     1       1.580   9.916  18.012  0.00  0.00    +0.000 A 
ATOM     12  C   UNL     1       0.817  10.803  18.773  0.00  0.00    +0.000 A 
ATOM     13  C   UNL     1       0.451  10.473  20.074  0.00  0.00    +0.000 A 
ATOM     14  C   UNL     1       0.843   9.244  20.615  0.00  0.00    +0.000 A 
ATOM     15  C   UNL     1       1.603   8.337  19.858  0.00  0.00    +0.000 A 
ATOM     16  C   UNL     1       1.993   7.111  20.394  0.00  0.00    +0.000 A 
ENDBRANCH   6   7
ENDBRANCH   3   6
ENDBRANCH   1   3
BRANCH   1  17
ATOM     17  C   UNL     1       3.306   2.555  18.528  0.00  0.00    +0.000 C 
BRANCH  17  18
ATOM     18  C   UNL     1       3.430   2.774  17.006  0.00  0.00    +0.000 C 
BRANCH  18  19
ATOM     19  O   UNL     1       2.182   3.195  16.446  0.00  0.00    +0.000 OA
ATOM     20  H   UNL     1       2.358   3.963  15.877  0.00  0.00    +0.000 HD
ENDBRANCH  18  19
BRANCH  18  21
ATOM     21  C   UNL     1       4.503   3.849  16.788  0.00  0.00    +0.000 C 
BRANCH  21  22
ATOM     22  O   UNL     1       4.904   3.908  15.420  0.00  0.00    +0.000 OA
BRANCH  22  23
ATOM     23  C   UNL     1       5.793   4.992  15.099  0.00  0.00    +0.000 C 
BRANCH  23  24
ATOM     24  C   UNL     1       6.577   5.456  16.326  0.00  0.00    +0.000 A 
ATOM     25  C   UNL     1       7.273   4.559  17.156  0.00  0.00    +0.000 A 
ATOM     26  C   UNL     1       7.889   4.992  18.329  0.00  0.00    +0.000 A 
ATOM     27  C   UNL     1       7.844   6.336  18.685  0.00  0.00    +0.000 A 
ATOM     28  C   UNL     1       7.189   7.250  17.861  0.00  0.00    +0.000 A 
ATOM     29  C   UNL     1       6.560   6.815  16.690  0.00  0.00    +0.000 A 
ENDBRANCH  23  24
BRANCH  23  31
ATOM     30  C   UNL     1       6.298   3.733  12.944  0.00  0.00    +0.000 C 
ATOM     31  C   UNL     1       6.634   4.597  13.912  0.00  0.00    +0.000 C 
ENDBRANCH  23  31
ENDBRANCH  22  23
ENDBRANCH  21  22
ENDBRANCH  18  21
ENDBRANCH  17  18
ENDBRANCH   1  17
TORSDOF 11
ENDMDL
MODEL 3
REMARK VINA RESULT:      -7.2      2.515      7.429
REMARK  Name = 
REMARK  13 active torsions:
REMARK  status: ('A' for Active; 'I' for Inactive)
REMARK    1  A    between atoms: C_2  and  C_3
REMARK    2  A    between atoms: C_3  and  O_4
REMARK    3  A    between atoms: C_3  and  C_24
REMARK    4  A    between atoms: O_4  and  C_5
REMARK    5  A    between atoms: C_5  and  C_6
REMARK    6  A    between atoms: C_6  and  O_7
REMARK    7  A    between atoms: C_6  and  C_8
REMARK    8  A    between atoms: C_8  and  N_9
REMARK    9  A    between atoms: N_9  and  C_10
REMARK   10  A    between atoms: C_10  and  C_11
REMARK   11  A    between atoms: C_10  and  C_12
REMARK   12  A    between atoms: C_10  and  C_13
REMARK   13  A    between atoms: C_13  and  C_14
REMARK                            x       y       z     vdW  Elec       q    Type
REMARK                         _______ _______ _______ _____ _____    ______ ____
ROOT
ATOM      1  N   UNL     1       1.617   3.268  19.455  0.00  0.00    +0.000 NA
ATOM      2  H   UNL     1       0.597   3.250  19.471  0.00  0.00    +0.000 HD
ENDROOT
BRANCH   1   3
ATOM      3  C   UNL     1       2.154   3.224  20.842  0.00  0.00    +0.000 C 
ATOM      4  C   UNL     1       1.113   2.399  21.633  0.00  0.00    +0.000 C 
ATOM      5  C   UNL     1       3.511   2.492  20.867  0.00  0.00    +0.000 C 
BRANCH   3   6
ATOM      6  C   UNL     1       2.251   4.668  21.440  0.00  0.00    +0.000 C 
BRANCH   6   7
ATOM      7  C   UNL     1       2.268   5.822  20.453  0.00  0.00    +0.000 A 
ATOM      8  C   UNL     1       3.033   5.762  19.281  0.00  0.00    +0.000 A 
ATOM      9  C   UNL     1       3.049   6.842  18.389  0.00  0.00    +0.000 A 
ATOM     10  C   UNL     1       2.299   8.004  18.650  0.00  0.00    +0.000 A 
ATOM     11  C   UNL     1       2.300   9.100  17.771  0.00  0.00    +0.000 A 
ATOM     12  C   UNL     1       1.554  10.244  18.060  0.00  0.00    +0.000 A 
ATOM     13  C   UNL     1       0.803  10.313  19.229  0.00  0.00    +0.000 A 
ATOM     14  C   UNL     1       0.791   9.228  20.111  0.00  0.00    +0.000 A 
ATOM     15  C   UNL     1       1.528   8.065  19.830  0.00  0.00    +0.000 A 
ATOM     16  C   UNL     1       1.515   6.982  20.705  0.00  0.00    +0.000 A 
ENDBRANCH   6   7
ENDBRANCH   3   6
ENDBRANCH   1   3
BRANCH   1  17
ATOM     17  C   UNL     1       2.104   2.227  18.550  0.00  0.00    +0.000 C 
BRANCH  17  18
ATOM     18  C   UNL     1       3.574   2.417  18.118  0.00  0.00    +0.000 C 
BRANCH  18  19
ATOM     19  O   UNL     1       4.162   1.169  17.737  0.00  0.00    +0.000 OA
ATOM     20  H   UNL     1       3.446   0.587  17.432  0.00  0.00    +0.000 HD
ENDBRANCH  18  19
BRANCH  18  21
ATOM     21  C   UNL     1       3.574   3.393  16.933  0.00  0.00    +0.000 C 
BRANCH  21  22
ATOM     22  O   UNL     1       4.891   3.573  16.415  0.00  0.00    +0.000 OA
BRANCH  22  23
ATOM     23  C   UNL     1       5.186   4.907  15.968  0.00  0.00    +0.000 C 
BRANCH  23  24
ATOM     24  C   UNL     1       6.142   5.621  16.925  0.00  0.00    +0.000 A 
ATOM     25  C   UNL     1       6.402   6.999  16.837  0.00  0.00    +0.000 A 
ATOM     26  C   UNL     1       7.359   7.605  17.650  0.00  0.00    +0.000 A 
ATOM     27  C   UNL     1       8.059   6.849  18.586  0.00  0.00    +0.000 A 
ATOM     28  C   UNL     1       7.794   5.487  18.715  0.00  0.00    +0.000 A 
ATOM     29  C   UNL     1       6.843   4.876  17.892  0.00  0.00    +0.000 A 
ENDBRANCH  23  24
BRANCH  23  31
ATOM     30  C   UNL     1       6.448   3.933  13.983  0.00  0.00    +0.000 C 
ATOM     31  C   UNL     1       5.641   4.852  14.532  0.00  0.00    +0.000 C 
ENDBRANCH  23  31
ENDBRANCH  22  23
ENDBRANCH  21  22
ENDBRANCH  18  21
ENDBRANCH  17  18
ENDBRANCH   1  17
TORSDOF 11
ENDMDL
MODEL 4
REMARK VINA RESULT:      -7.2      2.123      4.670
REMARK  Name = 
REMARK  13 active torsions:
REMARK  status: ('A' for Active; 'I' for Inactive)
REMARK    1  A    between atoms: C_2  and  C_3
REMARK    2  A    between atoms: C_3  and  O_4
REMARK    3  A    between atoms: C_3  and  C_24
REMARK    4  A    between atoms: O_4  and  C_5
REMARK    5  A    between atoms: C_5  and  C_6
REMARK    6  A    between atoms: C_6  and  O_7
REMARK    7  A    between atoms: C_6  and  C_8
REMARK    8  A    between atoms: C_8  and  N_9
REMARK    9  A    between atoms: N_9  and  C_10
REMARK   10  A    between atoms: C_10  and  C_11
REMARK   11  A    between atoms: C_10  and  C_12
REMARK   12  A    between atoms: C_10  and  C_13
REMARK   13  A    between atoms: C_13  and  C_14
REMARK                            x       y       z     vdW  Elec       q    Type
REMARK                         _______ _______ _______ _____ _____    ______ ____
ROOT
ATOM      1  N   UNL     1       2.349   4.674  20.907  0.00  0.00    +0.000 NA
ATOM      2  H   UNL     1       2.366   4.642  21.927  0.00  0.00    +0.000 HD
ENDROOT
BRANCH   1   3
ATOM      3  C   UNL     1       2.065   3.322  20.354  0.00  0.00    +0.000 C 
ATOM      4  C   UNL     1       1.977   2.408  21.598  0.00  0.00    +0.000 C 
ATOM      5  C   UNL     1       0.707   3.318  19.622  0.00  0.00    +0.000 C 
BRANCH   3   6
ATOM      6  C   UNL     1       3.236   2.849  19.430  0.00  0.00    +0.000 C 
BRANCH   6   7
ATOM      7  C   UNL     1       4.055   3.931  18.747  0.00  0.00    +0.000 A 
ATOM      8  C   UNL     1       3.622   4.520  17.552  0.00  0.00    +0.000 A 
ATOM      9  C   UNL     1       4.397   5.507  16.928  0.00  0.00    +0.000 A 
ATOM     10  C   UNL     1       5.619   5.924  17.486  0.00  0.00    +0.000 A 
ATOM     11  C   UNL     1       6.414   6.910  16.878  0.00  0.00    +0.000 A 
ATOM     12  C   UNL     1       7.628   7.297  17.449  0.00  0.00    +0.000 A 
ATOM     13  C   UNL     1       8.067   6.705  18.629  0.00  0.00    +0.000 A 
ATOM     14  C   UNL     1       7.284   5.725  19.247  0.00  0.00    +0.000 A 
ATOM     15  C   UNL     1       6.055   5.331  18.690  0.00  0.00    +0.000 A 
ATOM     16  C   UNL     1       5.272   4.357  19.305  0.00  0.00    +0.000 A 
ENDBRANCH   6   7
ENDBRANCH   3   6
ENDBRANCH   1   3
BRANCH   1  17
ATOM     17  C   UNL     1       1.448   5.743  20.472  0.00  0.00    +0.000 C 
BRANCH  17  18
ATOM     18  C   UNL     1       2.117   7.132  20.411  0.00  0.00    +0.000 C 
BRANCH  18  19
ATOM     19  O   UNL     1       2.358   7.526  19.057  0.00  0.00    +0.000 OA
ATOM     20  H   UNL     1       3.000   6.903  18.678  0.00  0.00    +0.000 HD
ENDBRANCH  18  19
BRANCH  18  21
ATOM     21  C   UNL     1       1.165   8.123  21.095  0.00  0.00    +0.000 C 
BRANCH  21  22
ATOM     22  O   UNL     1       1.107   9.357  20.381  0.00  0.00    +0.000 OA
BRANCH  22  23
ATOM     23  C   UNL     1       0.781  10.504  21.186  0.00  0.00    +0.000 C 
BRANCH  23  24
ATOM     24  C   UNL     1       0.434  11.716  20.319  0.00  0.00    +0.000 A 
ATOM     25  C   UNL     1       0.918  13.005  20.604  0.00  0.00    +0.000 A 
ATOM     26  C   UNL     1       0.500  14.110  19.865  0.00  0.00    +0.000 A 
ATOM     27  C   UNL     1      -0.392  13.946  18.809  0.00  0.00    +0.000 A 
ATOM     28  C   UNL     1      -0.858  12.673  18.486  0.00  0.00    +0.000 A 
ATOM     29  C   UNL     1      -0.450  11.565  19.235  0.00  0.00    +0.000 A 
ENDBRANCH  23  24
BRANCH  23  31
ATOM     30  C   UNL     1      -1.077  10.941  22.871  0.00  0.00    +0.000 C 
ATOM     31  C   UNL     1      -0.272  10.112  22.190  0.00  0.00    +0.000 C 
ENDBRANCH  23  31
ENDBRANCH  22  23
ENDBRANCH  21  22
ENDBRANCH  18  21
ENDBRANCH  17  18
ENDBRANCH   1  17
TORSDOF 11
ENDMDL
MODEL 5
REMARK VINA RESULT:      -7.1      2.420      7.869
REMARK  Name = 
REMARK  13 active torsions:
REMARK  status: ('A' for Active; 'I' for Inactive)
REMARK    1  A    between atoms: C_2  and  C_3
REMARK    2  A    between atoms: C_3  and  O_4
REMARK    3  A    between atoms: C_3  and  C_24
REMARK    4  A    between atoms: O_4  and  C_5
REMARK    5  A    between atoms: C_5  and  C_6
REMARK    6  A    between atoms: C_6  and  O_7
REMARK    7  A    between atoms: C_6  and  C_8
REMARK    8  A    between atoms: C_8  and  N_9
REMARK    9  A    between atoms: N_9  and  C_10
REMARK   10  A    between atoms: C_10  and  C_11
REMARK   11  A    between atoms: C_10  and  C_12
REMARK   12  A    between atoms: C_10  and  C_13
REMARK   13  A    between atoms: C_13  and  C_14
REMARK                            x       y       z     vdW  Elec       q    Type
REMARK                         _______ _______ _______ _____ _____    ______ ____
ROOT
ATOM      1  N   UNL     1       2.057   5.352  18.084  0.00  0.00    +0.000 NA
ATOM      2  H   UNL     1       1.402   5.868  17.495  0.00  0.00    +0.000 HD
ENDROOT
BRANCH   1   3
ATOM      3  C   UNL     1       2.409   6.154  19.286  0.00  0.00    +0.000 C 
ATOM      4  C   UNL     1       1.379   5.722  20.355  0.00  0.00    +0.000 C 
ATOM      5  C   UNL     1       3.829   5.795  19.772  0.00  0.00    +0.000 C 
BRANCH   3   6
ATOM      6  C   UNL     1       2.256   7.684  18.991  0.00  0.00    +0.000 C 
BRANCH   6   7
ATOM      7  C   UNL     1       1.493   8.509  20.012  0.00  0.00    +0.000 A 
ATOM      8  C   UNL     1       1.635   8.274  21.386  0.00  0.00    +0.000 A 
ATOM      9  C   UNL     1       0.912   9.036  22.314  0.00  0.00    +0.000 A 
ATOM     10  C   UNL     1       0.033  10.048  21.887  0.00  0.00    +0.000 A 
ATOM     11  C   UNL     1      -0.703  10.823  22.799  0.00  0.00    +0.000 A 
ATOM     12  C   UNL     1      -1.576  11.814  22.346  0.00  0.00    +0.000 A 
ATOM     13  C   UNL     1      -1.730  12.042  20.983  0.00  0.00    +0.000 A 
ATOM     14  C   UNL     1      -1.000  11.280  20.065  0.00  0.00    +0.000 A 
ATOM     15  C   UNL     1      -0.111  10.285  20.504  0.00  0.00    +0.000 A 
ATOM     16  C   UNL     1       0.619   9.527  19.592  0.00  0.00    +0.000 A 
ENDBRANCH   6   7
ENDBRANCH   3   6
ENDBRANCH   1   3
BRANCH   1  17
ATOM     17  C   UNL     1       1.521   4.015  18.344  0.00  0.00    +0.000 C 
BRANCH  17  18
ATOM     18  C   UNL     1       2.561   2.887  18.178  0.00  0.00    +0.000 C 
BRANCH  18  19
ATOM     19  O   UNL     1       1.925   1.606  18.133  0.00  0.00    +0.000 OA
ATOM     20  H   UNL     1       1.044   1.700  18.531  0.00  0.00    +0.000 HD
ENDBRANCH  18  19
BRANCH  18  21
ATOM     21  C   UNL     1       3.316   3.156  16.869  0.00  0.00    +0.000 C 
BRANCH  21  22
ATOM     22  O   UNL     1       4.652   3.587  17.124  0.00  0.00    +0.000 OA
BRANCH  22  23
ATOM     23  C   UNL     1       5.059   4.755  16.390  0.00  0.00    +0.000 C 
BRANCH  23  24
ATOM     24  C   UNL     1       6.174   5.511  17.114  0.00  0.00    +0.000 A 
ATOM     25  C   UNL     1       6.980   4.903  18.091  0.00  0.00    +0.000 A 
ATOM     26  C   UNL     1       7.916   5.641  18.814  0.00  0.00    +0.000 A 
ATOM     27  C   UNL     1       8.083   6.998  18.557  0.00  0.00    +0.000 A 
ATOM     28  C   UNL     1       7.319   7.615  17.568  0.00  0.00    +0.000 A 
ATOM     29  C   UNL     1       6.371   6.879  16.851  0.00  0.00    +0.000 A 
ENDBRANCH  23  24
BRANCH  23  31
ATOM     30  C   UNL     1       6.591   4.173  14.441  0.00  0.00    +0.000 C 
ATOM     31  C   UNL     1       5.373   4.355  14.971  0.00  0.00    +0.000 C 
ENDBRANCH  23  31
ENDBRANCH  22  23
ENDBRANCH  21  22
ENDBRANCH  18  21
ENDBRANCH  17  18
ENDBRANCH   1  17
TORSDOF 11
ENDMDL
MODEL 6
REMARK VINA RESULT:      -7.1      2.255      7.419
REMARK  Name = 
REMARK  13 active torsions:
REMARK  status: ('A' for Active; 'I' for Inactive)
REMARK    1  A    between atoms: C_2  and  C_3
REMARK    2  A    between atoms: C_3  and  O_4
REMARK    3  A    between atoms: C_3  and  C_24
REMARK    4  A    between atoms: O_4  and  C_5
REMARK    5  A    between atoms: C_5  and  C_6
REMARK    6  A    between atoms: C_6  and  O_7
REMARK    7  A    between atoms: C_6  and  C_8
REMARK    8  A    between atoms: C_8  and  N_9
REMARK    9  A    between atoms: N_9  and  C_10
REMARK   10  A    between atoms: C_10  and  C_11
REMARK   11  A    between atoms: C_10  and  C_12
REMARK   12  A    between atoms: C_10  and  C_13
REMARK   13  A    between atoms: C_13  and  C_14
REMARK                            x       y       z     vdW  Elec       q    Type
REMARK                         _______ _______ _______ _____ _____    ______ ____
ROOT
ATOM      1  N   UNL     1       1.931   3.413  19.066  0.00  0.00    +0.000 NA
ATOM      2  H   UNL     1       0.960   3.106  19.011  0.00  0.00    +0.000 HD
ENDROOT
BRANCH   1   3
ATOM      3  C   UNL     1       2.175   4.121  20.352  0.00  0.00    +0.000 C 
ATOM      4  C   UNL     1       0.786   4.660  20.765  0.00  0.00    +0.000 C 
ATOM      5  C   UNL     1       2.675   3.130  21.423  0.00  0.00    +0.000 C 
BRANCH   3   6
ATOM      6  C   UNL     1       3.166   5.316  20.143  0.00  0.00    +0.000 C 
BRANCH   6   7
ATOM      7  C   UNL     1       2.575   6.620  19.636  0.00  0.00    +0.000 A 
ATOM      8  C   UNL     1       2.650   6.970  18.282  0.00  0.00    +0.000 A 
ATOM      9  C   UNL     1       2.112   8.185  17.834  0.00  0.00    +0.000 A 
ATOM     10  C   UNL     1       1.489   9.072  18.731  0.00  0.00    +0.000 A 
ATOM     11  C   UNL     1       0.945  10.295  18.306  0.00  0.00    +0.000 A 
ATOM     12  C   UNL     1       0.341  11.161  19.220  0.00  0.00    +0.000 A 
ATOM     13  C   UNL     1       0.277  10.822  20.567  0.00  0.00    +0.000 A 
ATOM     14  C   UNL     1       0.811   9.605  21.004  0.00  0.00    +0.000 A 
ATOM     15  C   UNL     1       1.414   8.719  20.095  0.00  0.00    +0.000 A 
ATOM     16  C   UNL     1       1.945   7.506  20.527  0.00  0.00    +0.000 A 
ENDBRANCH   6   7
ENDBRANCH   3   6
ENDBRANCH   1   3
BRANCH   1  17
ATOM     17  C   UNL     1       2.813   2.278  18.788  0.00  0.00    +0.000 C 
BRANCH  17  18
ATOM     18  C   UNL     1       3.392   2.280  17.358  0.00  0.00    +0.000 C 
BRANCH  18  19
ATOM     19  O   UNL     1       2.437   2.784  16.418  0.00  0.00    +0.000 OA
ATOM     20  H   UNL     1       2.026   3.572  16.809  0.00  0.00    +0.000 HD
ENDBRANCH  18  19
BRANCH  18  21
ATOM     21  C   UNL     1       4.644   3.169  17.377  0.00  0.00    +0.000 C 
BRANCH  21  22
ATOM     22  O   UNL     1       4.338   4.498  16.956  0.00  0.00    +0.000 OA
BRANCH  22  23
ATOM     23  C   UNL     1       5.379   5.147  16.206  0.00  0.00    +0.000 C 
BRANCH  23  24
ATOM     24  C   UNL     1       6.333   5.916  17.121  0.00  0.00    +0.000 A 
ATOM     25  C   UNL     1       6.646   7.270  16.911  0.00  0.00    +0.000 A 
ATOM     26  C   UNL     1       7.601   7.918  17.692  0.00  0.00    +0.000 A 
ATOM     27  C   UNL     1       8.245   7.232  18.717  0.00  0.00    +0.000 A 
ATOM     28  C   UNL     1       7.927   5.899  18.967  0.00  0.00    +0.000 A 
ATOM     29  C   UNL     1       6.978   5.244  18.176  0.00  0.00    +0.000 A 
ENDBRANCH  23  24
BRANCH  23  31
ATOM     30  C   UNL     1       5.796   3.951  13.997  0.00  0.00    +0.000 C 
ATOM     31  C   UNL     1       6.035   4.133  15.304  0.00  0.00    +0.000 C 
ENDBRANCH  23  31
ENDBRANCH  22  23
ENDBRANCH  21  22
ENDBRANCH  18  21
ENDBRANCH  17  18
ENDBRANCH   1  17
TORSDOF 11
ENDMDL
MODEL 7
REMARK VINA RESULT:      -7.0      2.500      7.664
REMARK  Name = 
REMARK  13 active torsions:
REMARK  status: ('A' for Active; 'I' for Inactive)
REMARK    1  A    between atoms: C_2  and  C_3
REMARK    2  A    between atoms: C_3  and  O_4
REMARK    3  A    between atoms: C_3  and  C_24
REMARK    4  A    between atoms: O_4  and  C_5
REMARK    5  A    between atoms: C_5  and  C_6
REMARK    6  A    between atoms: C_6  and  O_7
REMARK    7  A    between atoms: C_6  and  C_8
REMARK    8  A    between atoms: C_8  and  N_9
REMARK    9  A    between atoms: N_9  and  C_10
REMARK   10  A    between atoms: C_10  and  C_11
REMARK   11  A    between atoms: C_10  and  C_12
REMARK   12  A    between atoms: C_10  and  C_13
REMARK   13  A    between atoms: C_13  and  C_14
REMARK                            x       y       z     vdW  Elec       q    Type
REMARK                         _______ _______ _______ _____ _____    ______ ____
ROOT
ATOM      1  N   UNL     1       2.469   4.928  18.164  0.00  0.00    +0.000 NA
ATOM      2  H   UNL     1       1.515   5.041  17.820  0.00  0.00    +0.000 HD
ENDROOT
BRANCH   1   3
ATOM      3  C   UNL     1       2.823   6.049  19.076  0.00  0.00    +0.000 C 
ATOM      4  C   UNL     1       1.834   5.914  20.256  0.00  0.00    +0.000 C 
ATOM      5  C   UNL     1       4.265   5.881  19.596  0.00  0.00    +0.000 C 
BRANCH   3   6
ATOM      6  C   UNL     1       2.609   7.426  18.361  0.00  0.00    +0.000 C 
BRANCH   6   7
ATOM      7  C   UNL     1       1.698   8.426  19.051  0.00  0.00    +0.000 A 
ATOM      8  C   UNL     1       1.073   9.453  18.331  0.00  0.00    +0.000 A 
ATOM      9  C   UNL     1       0.246  10.375  18.987  0.00  0.00    +0.000 A 
ATOM     10  C   UNL     1       0.027  10.290  20.374  0.00  0.00    +0.000 A 
ATOM     11  C   UNL     1      -0.795  11.204  21.052  0.00  0.00    +0.000 A 
ATOM     12  C   UNL     1      -0.986  11.101  22.432  0.00  0.00    +0.000 A 
ATOM     13  C   UNL     1      -0.357  10.091  23.152  0.00  0.00    +0.000 A 
ATOM     14  C   UNL     1       0.462   9.172  22.488  0.00  0.00    +0.000 A 
ATOM     15  C   UNL     1       0.657   9.256  21.099  0.00  0.00    +0.000 A 
ATOM     16  C   UNL     1       1.470   8.340  20.435  0.00  0.00    +0.000 A 
ENDBRANCH   6   7
ENDBRANCH   3   6
ENDBRANCH   1   3
BRANCH   1  17
ATOM     17  C   UNL     1       2.626   3.583  18.719  0.00  0.00    +0.000 C 
BRANCH  17  18
ATOM     18  C   UNL     1       3.650   2.714  17.958  0.00  0.00    +0.000 C 
BRANCH  18  19
ATOM     19  O   UNL     1       3.152   1.386  17.765  0.00  0.00    +0.000 OA
ATOM     20  H   UNL     1       2.299   1.321  18.225  0.00  0.00    +0.000 HD
ENDBRANCH  18  19
BRANCH  18  21
ATOM     21  C   UNL     1       3.903   3.393  16.605  0.00  0.00    +0.000 C 
BRANCH  21  22
ATOM     22  O   UNL     1       5.299   3.473  16.322  0.00  0.00    +0.000 OA
BRANCH  22  23
ATOM     23  C   UNL     1       5.739   4.747  15.818  0.00  0.00    +0.000 C 
BRANCH  23  24
ATOM     24  C   UNL     1       6.529   5.523  16.872  0.00  0.00    +0.000 A 
ATOM     25  C   UNL     1       6.718   6.914  16.794  0.00  0.00    +0.000 A 
ATOM     26  C   UNL     1       7.533   7.583  17.706  0.00  0.00    +0.000 A 
ATOM     27  C   UNL     1       8.157   6.878  18.731  0.00  0.00    +0.000 A 
ATOM     28  C   UNL     1       7.958   5.503  18.849  0.00  0.00    +0.000 A 
ATOM     29  C   UNL     1       7.151   4.830  17.927  0.00  0.00    +0.000 A 
ENDBRANCH  23  24
BRANCH  23  31
ATOM     30  C   UNL     1       6.062   3.741  13.501  0.00  0.00    +0.000 C 
ATOM     31  C   UNL     1       6.455   4.533  14.509  0.00  0.00    +0.000 C 
ENDBRANCH  23  31
ENDBRANCH  22  23
ENDBRANCH  21  22
ENDBRANCH  18  21
ENDBRANCH  17  18
ENDBRANCH   1  17
TORSDOF 11
ENDMDL
MODEL 8
REMARK VINA RESULT:      -7.0      2.034      4.408
REMARK  Name = 
REMARK  13 active torsions:
REMARK  status: ('A' for Active; 'I' for Inactive)
REMARK    1  A    between atoms: C_2  and  C_3
REMARK    2  A    between atoms: C_3  and  O_4
REMARK    3  A    between atoms: C_3  and  C_24
REMARK    4  A    between atoms: O_4  and  C_5
REMARK    5  A    between atoms: C_5  and  C_6
REMARK    6  A    between atoms: C_6  and  O_7
REMARK    7  A    between atoms: C_6  and  C_8
REMARK    8  A    between atoms: C_8  and  N_9
REMARK    9  A    between atoms: N_9  and  C_10
REMARK   10  A    between atoms: C_10  and  C_11
REMARK   11  A    between atoms: C_10  and  C_12
REMARK   12  A    between atoms: C_10  and  C_13
REMARK   13  A    between atoms: C_13  and  C_14
REMARK                            x       y       z     vdW  Elec       q    Type
REMARK                         _______ _______ _______ _____ _____    ______ ____
ROOT
ATOM      1  N   UNL     1       2.108   3.746  20.084  0.00  0.00    +0.000 NA
ATOM      2  H   UNL     1       1.866   3.009  20.746  0.00  0.00    +0.000 HD
ENDROOT
BRANCH   1   3
ATOM      3  C   UNL     1       2.086   3.216  18.694  0.00  0.00    +0.000 C 
ATOM      4  C   UNL     1       1.260   1.913  18.791  0.00  0.00    +0.000 C 
ATOM      5  C   UNL     1       1.367   4.207  17.755  0.00  0.00    +0.000 C 
BRANCH   3   6
ATOM      6  C   UNL     1       3.538   2.888  18.207  0.00  0.00    +0.000 C 
BRANCH   6   7
ATOM      7  C   UNL     1       4.436   4.067  17.877  0.00  0.00    +0.000 A 
ATOM      8  C   UNL     1       4.242   4.821  16.712  0.00  0.00    +0.000 A 
ATOM      9  C   UNL     1       5.090   5.897  16.415  0.00  0.00    +0.000 A 
ATOM     10  C   UNL     1       6.147   6.241  17.277  0.00  0.00    +0.000 A 
ATOM     11  C   UNL     1       7.010   7.314  17.000  0.00  0.00    +0.000 A 
ATOM     12  C   UNL     1       8.058   7.626  17.869  0.00  0.00    +0.000 A 
ATOM     13  C   UNL     1       8.261   6.872  19.020  0.00  0.00    +0.000 A 
ATOM     14  C   UNL     1       7.407   5.803  19.310  0.00  0.00    +0.000 A 
ATOM     15  C   UNL     1       6.342   5.482  18.451  0.00  0.00    +0.000 A 
ATOM     16  C   UNL     1       5.488   4.420  18.738  0.00  0.00    +0.000 A 
ENDBRANCH   6   7
ENDBRANCH   3   6
ENDBRANCH   1   3
BRANCH   1  17
ATOM     17  C   UNL     1       1.265   4.916  20.333  0.00  0.00    +0.000 C 
BRANCH  17  18
ATOM     18  C   UNL     1       2.056   6.170  20.762  0.00  0.00    +0.000 C 
BRANCH  18  19
ATOM     19  O   UNL     1       2.977   6.569  19.743  0.00  0.00    +0.000 OA
ATOM     20  H   UNL     1       2.953   7.539  19.686  0.00  0.00    +0.000 HD
ENDBRANCH  18  19
BRANCH  18  21
ATOM     21  C   UNL     1       1.031   7.284  21.023  0.00  0.00    +0.000 C 
BRANCH  21  22
ATOM     22  O   UNL     1       1.476   8.528  20.485  0.00  0.00    +0.000 OA
BRANCH  22  23
ATOM     23  C   UNL     1       0.978   9.692  21.168  0.00  0.00    +0.000 C 
BRANCH  23  24
ATOM     24  C   UNL     1       0.212  10.614  20.218  0.00  0.00    +0.000 A 
ATOM     25  C   UNL     1      -0.825  10.146  19.391  0.00  0.00    +0.000 A 
ATOM     26  C   UNL     1      -1.433  10.981  18.456  0.00  0.00    +0.000 A 
ATOM     27  C   UNL     1      -1.035  12.310  18.344  0.00  0.00    +0.000 A 
ATOM     28  C   UNL     1      -0.033  12.806  19.176  0.00  0.00    +0.000 A 
ATOM     29  C   UNL     1       0.587  11.966  20.106  0.00  0.00    +0.000 A 
ENDBRANCH  23  24
BRANCH  23  31
ATOM     30  C   UNL     1      -0.620  10.001  23.126  0.00  0.00    +0.000 C 
ATOM     31  C   UNL     1       0.212   9.251  22.389  0.00  0.00    +0.000 C 
ENDBRANCH  23  31
ENDBRANCH  22  23
ENDBRANCH  21  22
ENDBRANCH  18  21
ENDBRANCH  17  18
ENDBRANCH   1  17
TORSDOF 11
ENDMDL
MODEL 9
REMARK VINA RESULT:      -7.0      1.481      4.381
REMARK  Name = 
REMARK  13 active torsions:
REMARK  status: ('A' for Active; 'I' for Inactive)
REMARK    1  A    between atoms: C_2  and  C_3
REMARK    2  A    between atoms: C_3  and  O_4
REMARK    3  A    between atoms: C_3  and  C_24
REMARK    4  A    between atoms: O_4  and  C_5
REMARK    5  A    between atoms: C_5  and  C_6
REMARK    6  A    between atoms: C_6  and  O_7
REMARK    7  A    between atoms: C_6  and  C_8
REMARK    8  A    between atoms: C_8  and  N_9
REMARK    9  A    between atoms: N_9  and  C_10
REMARK   10  A    between atoms: C_10  and  C_11
REMARK   11  A    between atoms: C_10  and  C_12
REMARK   12  A    between atoms: C_10  and  C_13
REMARK   13  A    between atoms: C_13  and  C_14
REMARK                            x       y       z     vdW  Elec       q    Type
REMARK                         _______ _______ _______ _____ _____    ______ ____
ROOT
ATOM      1  N   UNL     1       2.295   5.870  19.562  0.00  0.00    +0.000 NA
ATOM      2  H   UNL     1       1.604   6.300  20.178  0.00  0.00    +0.000 HD
ENDROOT
BRANCH   1   3
ATOM      3  C   UNL     1       2.045   4.408  19.450  0.00  0.00    +0.000 C 
ATOM      4  C   UNL     1       1.153   4.074  20.667  0.00  0.00    +0.000 C 
ATOM      5  C   UNL     1       1.274   4.094  18.152  0.00  0.00    +0.000 C 
BRANCH   3   6
ATOM      6  C   UNL     1       3.390   3.611  19.545  0.00  0.00    +0.000 C 
BRANCH   6   7
ATOM      7  C   UNL     1       4.489   3.996  18.570  0.00  0.00    +0.000 A 
ATOM      8  C   UNL     1       5.658   4.630  19.011  0.00  0.00    +0.000 A 
ATOM      9  C   UNL     1       6.656   4.991  18.095  0.00  0.00    +0.000 A 
ATOM     10  C   UNL     1       6.504   4.726  16.722  0.00  0.00    +0.000 A 
ATOM     11  C   UNL     1       7.489   5.080  15.785  0.00  0.00    +0.000 A 
ATOM     12  C   UNL     1       7.307   4.814  14.426  0.00  0.00    +0.000 A 
ATOM     13  C   UNL     1       6.142   4.197  13.984  0.00  0.00    +0.000 A 
ATOM     14  C   UNL     1       5.154   3.836  14.906  0.00  0.00    +0.000 A 
ATOM     15  C   UNL     1       5.326   4.088  16.278  0.00  0.00    +0.000 A 
ATOM     16  C   UNL     1       4.346   3.727  17.198  0.00  0.00    +0.000 A 
ENDBRANCH   6   7
ENDBRANCH   3   6
ENDBRANCH   1   3
BRANCH   1  17
ATOM     17  C   UNL     1       2.341   6.607  18.298  0.00  0.00    +0.000 C 
BRANCH  17  18
ATOM     18  C   UNL     1       2.515   8.130  18.475  0.00  0.00    +0.000 C 
BRANCH  18  19
ATOM     19  O   UNL     1       2.223   8.824  17.257  0.00  0.00    +0.000 OA
ATOM     20  H   UNL     1       3.047   8.883  16.747  0.00  0.00    +0.000 HD
ENDBRANCH  18  19
BRANCH  18  21
ATOM     21  C   UNL     1       1.550   8.571  19.585  0.00  0.00    +0.000 C 
BRANCH  21  22
ATOM     22  O   UNL     1       1.204   9.948  19.449  0.00  0.00    +0.000 OA
BRANCH  22  23
ATOM     23  C   UNL     1      -0.026  10.326  20.092  0.00  0.00    +0.000 C 
BRANCH  23  24
ATOM     24  C   UNL     1      -1.145  10.547  19.073  0.00  0.00    +0.000 A 
ATOM     25  C   UNL     1      -1.143   9.929  17.810  0.00  0.00    +0.000 A 
ATOM     26  C   UNL     1      -2.115  10.232  16.858  0.00  0.00    +0.000 A 
ATOM     27  C   UNL     1      -3.127  11.139  17.159  0.00  0.00    +0.000 A 
ATOM     28  C   UNL     1      -3.170  11.737  18.417  0.00  0.00    +0.000 A 
ATOM     29  C   UNL     1      -2.188  11.445  19.368  0.00  0.00    +0.000 A 
ENDBRANCH  23  24
BRANCH  23  31
ATOM     30  C   UNL     1      -0.176   9.504  22.497  0.00  0.00    +0.000 C 
ATOM     31  C   UNL     1      -0.337   9.328  21.178  0.00  0.00    +0.000 C 
ENDBRANCH  23  31
ENDBRANCH  22  23
ENDBRANCH  21  22
ENDBRANCH  18  21
ENDBRANCH  17  18
ENDBRANCH   1  17
TORSDOF 11
ENDMDL
