MODEL 1
REMARK VINA RESULT:      -9.6      0.000      0.000
REMARK  Name = 
REMARK  6 active torsions:
REMARK  status: ('A' for Active; 'I' for Inactive)
REMARK    1  A    between atoms: C_1  and  N_2
REMARK    2  A    between atoms: C_5  and  C_6
REMARK    3  A    between atoms: N_10  and  C_11
REMARK    4  A    between atoms: C_11  and  C_12
REMARK    5  A    between atoms: C_18  and  C_19
REMARK    6  A    between atoms: C_19  and  O_20
REMARK                            x       y       z     vdW  Elec       q    Type
REMARK                         _______ _______ _______ _____ _____    ______ ____
ROOT
ATOM      1  C   UNL     1       6.425   7.828  17.427  0.00  0.00    +0.000 C 
ATOM      2  N   UNL     1       5.565   6.643  17.589  0.00  0.00    +0.000 N 
ATOM      3  C   UNL     1       4.126   7.036  17.635  0.00  0.00    +0.000 C 
ATOM      4  C   UNL     1       3.240   6.167  18.446  0.00  0.00    +0.000 A 
ATOM      5  C   UNL     1       2.273   6.477  19.381  0.00  0.00    +0.000 A 
ATOM      6  N   UNL     1       1.759   5.300  19.871  0.00  0.00    +0.000 N 
ATOM      7  C   UNL     1       2.374   4.243  19.256  0.00  0.00    +0.000 A 
ATOM      8  N   UNL     1       2.116   2.951  19.512  0.00  0.00    +0.000 NA
ATOM      9  C   UNL     1       2.888   2.125  18.771  0.00  0.00    +0.000 A 
ATOM     10  C   UNL     1       3.823   2.521  17.817  0.00  0.00    +0.000 A 
ATOM     11  C   UNL     1       4.038   3.888  17.556  0.00  0.00    +0.000 A 
ATOM     12  C   UNL     1       3.289   4.758  18.353  0.00  0.00    +0.000 A 
ATOM     13  C   UNL     1       4.990   4.409  16.544  0.00  0.00    +0.000 A 
ATOM     14  C   UNL     1       5.098   3.683  15.337  0.00  0.00    +0.000 A 
ATOM     15  C   UNL     1       6.131   3.918  14.444  0.00  0.00    +0.000 A 
ATOM     16  F   UNL     1       6.173   3.255  13.282  0.00  0.00    +0.000 F 
ATOM     17  C   UNL     1       7.141   4.795  14.769  0.00  0.00    +0.000 A 
ATOM     18  C   UNL     1       7.006   5.582  15.909  0.00  0.00    +0.000 A 
ATOM     19  C   UNL     1       5.841   5.546  16.713  0.00  0.00    +0.000 A 
ATOM     20  H   UNL     1       1.051   5.206  20.583  0.00  0.00    +0.000 HD
ENDROOT
BRANCH   5  21
ATOM     21  C   UNL     1       1.740   7.696  19.871  0.00  0.00    +0.000 C 
ATOM     22  C   UNL     1       1.648   7.802  21.210  0.00  0.00    +0.000 C 
ATOM     23  C   UNL     1       1.156   9.056  21.862  0.00  0.00    +0.000 C 
ATOM     24  C   UNL     1       1.270  10.274  20.934  0.00  0.00    +0.000 C 
ATOM     25  N   UNL     1       0.701   9.987  19.616  0.00  0.00    +0.000 NA
ATOM     26  C   UNL     1       1.348   8.846  18.953  0.00  0.00    +0.000 C 
BRANCH  25  27
ATOM     27  C   UNL     1       0.655  11.179  18.749  0.00  0.00    +0.000 C 
BRANCH  27  28
ATOM     28  C   UNL     1      -0.722  11.878  18.662  0.00  0.00    +0.000 C 
ATOM     29  O   UNL     1      -0.965  12.976  19.164  0.00  0.00    +0.000 OA
ATOM     30  N   UNL     1      -1.701  11.210  17.955  0.00  0.00    +0.000 N 
ATOM     31  C   UNL     1      -1.566   9.946  17.263  0.00  0.00    +0.000 C 
ATOM     32  C   UNL     1      -2.635  10.007  16.190  0.00  0.00    +0.000 C 
ATOM     33  C   UNL     1      -3.761  10.798  16.847  0.00  0.00    +0.000 C 
ATOM     34  C   UNL     1      -3.055  11.748  17.829  0.00  0.00    +0.000 C 
BRANCH  34  35
ATOM     35  C   UNL     1      -3.797  11.818  19.175  0.00  0.00    +0.000 C 
BRANCH  35  36
ATOM     36  O   UNL     1      -3.876  13.163  19.650  0.00  0.00    +0.000 OA
ATOM     37  H   UNL     1      -2.999  13.555  19.528  0.00  0.00    +0.000 HD
ENDBRANCH  35  36
ENDBRANCH  34  35
ENDBRANCH  27  28
ENDBRANCH  25  27
ENDBRANCH   5  21
TORSDOF 5
ENDMDL
MODEL 2
REMARK VINA RESULT:      -9.0      4.424      9.363
REMARK  Name = 
REMARK  6 active torsions:
REMARK  status: ('A' for Active; 'I' for Inactive)
REMARK    1  A    between atoms: C_1  and  N_2
REMARK    2  A    between atoms: C_5  and  C_6
REMARK    3  A    between atoms: N_10  and  C_11
REMARK    4  A    between atoms: C_11  and  C_12
REMARK    5  A    between atoms: C_18  and  C_19
REMARK    6  A    between atoms: C_19  and  O_20
REMARK                            x       y       z     vdW  Elec       q    Type
REMARK                         _______ _______ _______ _____ _____    ______ ____
ROOT
ATOM      1  C   UNL     1      -0.009   9.222  23.729  0.00  0.00    +0.000 C 
ATOM      2  N   UNL     1       0.291   9.680  22.361  0.00  0.00    +0.000 N 
ATOM      3  C   UNL     1       0.196   8.549  21.392  0.00  0.00    +0.000 C 
ATOM      4  C   UNL     1       1.084   8.631  20.208  0.00  0.00    +0.000 A 
ATOM      5  C   UNL     1       1.905   7.688  19.622  0.00  0.00    +0.000 A 
ATOM      6  N   UNL     1       2.546   8.280  18.560  0.00  0.00    +0.000 N 
ATOM      7  C   UNL     1       2.139   9.583  18.450  0.00  0.00    +0.000 A 
ATOM      8  N   UNL     1       2.580  10.449  17.525  0.00  0.00    +0.000 NA
ATOM      9  C   UNL     1       2.021  11.671  17.669  0.00  0.00    +0.000 A 
ATOM     10  C   UNL     1       1.069  12.025  18.623  0.00  0.00    +0.000 A 
ATOM     11  C   UNL     1       0.609  11.074  19.554  0.00  0.00    +0.000 A 
ATOM     12  C   UNL     1       1.217   9.820  19.456  0.00  0.00    +0.000 A 
ATOM     13  C   UNL     1      -0.419  11.345  20.589  0.00  0.00    +0.000 A 
ATOM     14  C   UNL     1      -1.490  12.189  20.220  0.00  0.00    +0.000 A 
ATOM     15  C   UNL     1      -2.351  12.719  21.168  0.00  0.00    +0.000 A 
ATOM     16  F   UNL     1      -3.390  13.469  20.780  0.00  0.00    +0.000 F 
ATOM     17  C   UNL     1      -2.114  12.517  22.508  0.00  0.00    +0.000 A 
ATOM     18  C   UNL     1      -1.121  11.618  22.886  0.00  0.00    +0.000 A 
ATOM     19  C   UNL     1      -0.385  10.867  21.937  0.00  0.00    +0.000 A 
ATOM     20  H   UNL     1       3.224   7.847  17.952  0.00  0.00    +0.000 HD
ENDROOT
BRANCH   5  21
ATOM     21  C   UNL     1       2.167   6.320  19.884  0.00  0.00    +0.000 C 
ATOM     22  C   UNL     1       1.217   5.661  20.575  0.00  0.00    +0.000 C 
ATOM     23  C   UNL     1       1.340   4.200  20.871  0.00  0.00    +0.000 C 
ATOM     24  C   UNL     1       2.320   3.496  19.921  0.00  0.00    +0.000 C 
ATOM     25  N   UNL     1       3.585   4.228  19.834  0.00  0.00    +0.000 NA
ATOM     26  C   UNL     1       3.412   5.611  19.369  0.00  0.00    +0.000 C 
BRANCH  25  27
ATOM     27  C   UNL     1       4.604   3.502  19.052  0.00  0.00    +0.000 C 
BRANCH  27  28
ATOM     28  C   UNL     1       5.833   4.341  18.632  0.00  0.00    +0.000 C 
ATOM     29  O   UNL     1       6.643   4.814  19.430  0.00  0.00    +0.000 OA
ATOM     30  N   UNL     1       6.009   4.530  17.276  0.00  0.00    +0.000 N 
ATOM     31  C   UNL     1       5.185   4.002  16.210  0.00  0.00    +0.000 C 
ATOM     32  C   UNL     1       6.124   3.945  15.023  0.00  0.00    +0.000 C 
ATOM     33  C   UNL     1       7.036   5.150  15.227  0.00  0.00    +0.000 C 
ATOM     34  C   UNL     1       7.112   5.334  16.752  0.00  0.00    +0.000 C 
BRANCH  34  35
ATOM     35  C   UNL     1       7.010   6.817  17.145  0.00  0.00    +0.000 C 
BRANCH  35  36
ATOM     36  O   UNL     1       7.900   7.128  18.219  0.00  0.00    +0.000 OA
ATOM     37  H   UNL     1       7.948   6.341  18.781  0.00  0.00    +0.000 HD
ENDBRANCH  35  36
ENDBRANCH  34  35
ENDBRANCH  27  28
ENDBRANCH  25  27
ENDBRANCH   5  21
TORSDOF 5
ENDMDL
MODEL 3
REMARK VINA RESULT:      -8.9      1.859      2.803
REMARK  Name = 
REMARK  6 active torsions:
REMARK  status: ('A' for Active; 'I' for Inactive)
REMARK    1  A    between atoms: C_1  and  N_2
REMARK    2  A    between atoms: C_5  and  C_6
REMARK    3  A    between atoms: N_10  and  C_11
REMARK    4  A    between atoms: C_11  and  C_12
REMARK    5  A    between atoms: C_18  and  C_19
REMARK    6  A    between atoms: C_19  and  O_20
REMARK                            x       y       z     vdW  Elec       q    Type
REMARK                         _______ _______ _______ _____ _____    ______ ____
ROOT
ATOM      1  C   UNL     1       6.505   7.765  17.416  0.00  0.00    +0.000 C 
ATOM      2  N   UNL     1       5.618   6.595  17.535  0.00  0.00    +0.000 N 
ATOM      3  C   UNL     1       4.187   7.018  17.565  0.00  0.00    +0.000 C 
ATOM      4  C   UNL     1       3.269   6.149  18.339  0.00  0.00    +0.000 A 
ATOM      5  C   UNL     1       2.291   6.458  19.264  0.00  0.00    +0.000 A 
ATOM      6  N   UNL     1       1.744   5.282  19.717  0.00  0.00    +0.000 N 
ATOM      7  C   UNL     1       2.348   4.226  19.088  0.00  0.00    +0.000 A 
ATOM      8  N   UNL     1       2.058   2.934  19.309  0.00  0.00    +0.000 NA
ATOM      9  C   UNL     1       2.826   2.109  18.562  0.00  0.00    +0.000 A 
ATOM     10  C   UNL     1       3.786   2.507  17.635  0.00  0.00    +0.000 A 
ATOM     11  C   UNL     1       4.035   3.875  17.410  0.00  0.00    +0.000 A 
ATOM     12  C   UNL     1       3.289   4.742  18.214  0.00  0.00    +0.000 A 
ATOM     13  C   UNL     1       5.015   4.398  16.428  0.00  0.00    +0.000 A 
ATOM     14  C   UNL     1       5.130   3.699  15.206  0.00  0.00    +0.000 A 
ATOM     15  C   UNL     1       6.185   3.932  14.337  0.00  0.00    +0.000 A 
ATOM     16  F   UNL     1       6.233   3.295  13.161  0.00  0.00    +0.000 F 
ATOM     17  C   UNL     1       7.206   4.780  14.701  0.00  0.00    +0.000 A 
ATOM     18  C   UNL     1       7.066   5.543  15.856  0.00  0.00    +0.000 A 
ATOM     19  C   UNL     1       5.887   5.513  16.639  0.00  0.00    +0.000 A 
ATOM     20  H   UNL     1       1.021   5.186  20.414  0.00  0.00    +0.000 HD
ENDROOT
BRANCH   5  21
ATOM     21  C   UNL     1       1.775   7.676  19.772  0.00  0.00    +0.000 C 
ATOM     22  C   UNL     1       1.457   7.681  21.081  0.00  0.00    +0.000 C 
ATOM     23  C   UNL     1       0.956   8.916  21.759  0.00  0.00    +0.000 C 
ATOM     24  C   UNL     1       1.324  10.191  20.986  0.00  0.00    +0.000 C 
ATOM     25  N   UNL     1       0.975  10.066  19.569  0.00  0.00    +0.000 NA
ATOM     26  C   UNL     1       1.640   8.929  18.917  0.00  0.00    +0.000 C 
BRANCH  25  27
ATOM     27  C   UNL     1       1.173  11.325  18.827  0.00  0.00    +0.000 C 
BRANCH  27  28
ATOM     28  C   UNL     1       0.442  12.557  19.410  0.00  0.00    +0.000 C 
ATOM     29  O   UNL     1      -0.781  12.628  19.540  0.00  0.00    +0.000 OA
ATOM     30  N   UNL     1       1.241  13.607  19.814  0.00  0.00    +0.000 N 
ATOM     31  C   UNL     1       2.687  13.663  19.779  0.00  0.00    +0.000 C 
ATOM     32  C   UNL     1       3.035  14.660  20.866  0.00  0.00    +0.000 C 
ATOM     33  C   UNL     1       1.885  15.659  20.820  0.00  0.00    +0.000 C 
ATOM     34  C   UNL     1       0.671  14.842  20.349  0.00  0.00    +0.000 C 
BRANCH  34  35
ATOM     35  C   UNL     1      -0.159  15.615  19.309  0.00  0.00    +0.000 C 
BRANCH  35  36
ATOM     36  O   UNL     1      -1.558  15.489  19.570  0.00  0.00    +0.000 OA
ATOM     37  H   UNL     1      -1.885  16.376  19.781  0.00  0.00    +0.000 HD
ENDBRANCH  35  36
ENDBRANCH  34  35
ENDBRANCH  27  28
ENDBRANCH  25  27
ENDBRANCH   5  21
TORSDOF 5
ENDMDL
MODEL 4
REMARK VINA RESULT:      -8.8      1.589      2.017
REMARK  Name = 
REMARK  6 active torsions:
REMARK  status: ('A' for Active; 'I' for Inactive)
REMARK    1  A    between atoms: C_1  and  N_2
REMARK    2  A    between atoms: C_5  and  C_6
REMARK    3  A    between atoms: N_10  and  C_11
REMARK    4  A    between atoms: C_11  and  C_12
REMARK    5  A    between atoms: C_18  and  C_19
REMARK    6  A    between atoms: C_19  and  O_20
REMARK                            x       y       z     vdW  Elec       q    Type
REMARK                         _______ _______ _______ _____ _____    ______ ____
ROOT
ATOM      1  C   UNL     1       6.541   7.688  17.446  0.00  0.00    +0.000 C 
ATOM      2  N   UNL     1       5.647   6.519  17.529  0.00  0.00    +0.000 N 
ATOM      3  C   UNL     1       4.219   6.949  17.584  0.00  0.00    +0.000 C 
ATOM      4  C   UNL     1       3.300   6.059  18.333  0.00  0.00    +0.000 A 
ATOM      5  C   UNL     1       2.330   6.341  19.275  0.00  0.00    +0.000 A 
ATOM      6  N   UNL     1       1.780   5.152  19.690  0.00  0.00    +0.000 N 
ATOM      7  C   UNL     1       2.373   4.116  19.020  0.00  0.00    +0.000 A 
ATOM      8  N   UNL     1       2.076   2.819  19.197  0.00  0.00    +0.000 NA
ATOM      9  C   UNL     1       2.834   2.016  18.417  0.00  0.00    +0.000 A 
ATOM     10  C   UNL     1       3.791   2.441  17.498  0.00  0.00    +0.000 A 
ATOM     11  C   UNL     1       4.046   3.815  17.319  0.00  0.00    +0.000 A 
ATOM     12  C   UNL     1       3.312   4.657  18.158  0.00  0.00    +0.000 A 
ATOM     13  C   UNL     1       5.024   4.366  16.349  0.00  0.00    +0.000 A 
ATOM     14  C   UNL     1       5.126   3.710  15.103  0.00  0.00    +0.000 A 
ATOM     15  C   UNL     1       6.177   3.967  14.236  0.00  0.00    +0.000 A 
ATOM     16  F   UNL     1       6.214   3.372  13.038  0.00  0.00    +0.000 F 
ATOM     17  C   UNL     1       7.205   4.795  14.622  0.00  0.00    +0.000 A 
ATOM     18  C   UNL     1       7.078   5.518  15.805  0.00  0.00    +0.000 A 
ATOM     19  C   UNL     1       5.904   5.468  16.594  0.00  0.00    +0.000 A 
ATOM     20  H   UNL     1       1.060   5.037  20.388  0.00  0.00    +0.000 HD
ENDROOT
BRANCH   5  21
ATOM     21  C   UNL     1       1.825   7.544  19.829  0.00  0.00    +0.000 C 
ATOM     22  C   UNL     1       1.605   7.532  21.158  0.00  0.00    +0.000 C 
ATOM     23  C   UNL     1       1.126   8.751  21.880  0.00  0.00    +0.000 C 
ATOM     24  C   UNL     1       1.407  10.040  21.092  0.00  0.00    +0.000 C 
ATOM     25  N   UNL     1       0.958   9.915  19.704  0.00  0.00    +0.000 NA
ATOM     26  C   UNL     1       1.599   8.798  18.996  0.00  0.00    +0.000 C 
BRANCH  25  27
ATOM     27  C   UNL     1       1.072  11.183  18.959  0.00  0.00    +0.000 C 
BRANCH  27  28
ATOM     28  C   UNL     1       0.731  12.456  19.767  0.00  0.00    +0.000 C 
ATOM     29  O   UNL     1       1.560  13.315  20.073  0.00  0.00    +0.000 OA
ATOM     30  N   UNL     1      -0.591  12.613  20.131  0.00  0.00    +0.000 N 
ATOM     31  C   UNL     1      -1.692  11.730  19.809  0.00  0.00    +0.000 C 
ATOM     32  C   UNL     1      -2.906  12.636  19.858  0.00  0.00    +0.000 C 
ATOM     33  C   UNL     1      -2.568  13.632  20.962  0.00  0.00    +0.000 C 
ATOM     34  C   UNL     1      -1.036  13.755  20.927  0.00  0.00    +0.000 C 
BRANCH  34  35
ATOM     35  C   UNL     1      -0.440  13.763  22.345  0.00  0.00    +0.000 C 
BRANCH  35  36
ATOM     36  O   UNL     1      -0.545  12.475  22.955  0.00  0.00    +0.000 OA
ATOM     37  H   UNL     1      -0.108  11.847  22.362  0.00  0.00    +0.000 HD
ENDBRANCH  35  36
ENDBRANCH  34  35
ENDBRANCH  27  28
ENDBRANCH  25  27
ENDBRANCH   5  21
TORSDOF 5
ENDMDL
MODEL 5
REMARK VINA RESULT:      -8.7      2.014      2.896
REMARK  Name = 
REMARK  6 active torsions:
REMARK  status: ('A' for Active; 'I' for Inactive)
REMARK    1  A    between atoms: C_1  and  N_2
REMARK    2  A    between atoms: C_5  and  C_6
REMARK    3  A    between atoms: N_10  and  C_11
REMARK    4  A    between atoms: C_11  and  C_12
REMARK    5  A    between atoms: C_18  and  C_19
REMARK    6  A    between atoms: C_19  and  O_20
REMARK                            x       y       z     vdW  Elec       q    Type
REMARK                         _______ _______ _______ _____ _____    ______ ____
ROOT
ATOM      1  C   UNL     1       6.356   7.905  17.450  0.00  0.00    +0.000 C 
ATOM      2  N   UNL     1       5.518   6.704  17.616  0.00  0.00    +0.000 N 
ATOM      3  C   UNL     1       4.070   7.068  17.629  0.00  0.00    +0.000 C 
ATOM      4  C   UNL     1       3.188   6.194  18.437  0.00  0.00    +0.000 A 
ATOM      5  C   UNL     1       2.196   6.499  19.348  0.00  0.00    +0.000 A 
ATOM      6  N   UNL     1       1.698   5.320  19.849  0.00  0.00    +0.000 N 
ATOM      7  C   UNL     1       2.346   4.265  19.264  0.00  0.00    +0.000 A 
ATOM      8  N   UNL     1       2.111   2.973  19.537  0.00  0.00    +0.000 NA
ATOM      9  C   UNL     1       2.914   2.151  18.825  0.00  0.00    +0.000 A 
ATOM     10  C   UNL     1       3.858   2.551  17.882  0.00  0.00    +0.000 A 
ATOM     11  C   UNL     1       4.050   3.918  17.602  0.00  0.00    +0.000 A 
ATOM     12  C   UNL     1       3.267   4.784  18.369  0.00  0.00    +0.000 A 
ATOM     13  C   UNL     1       5.009   4.441  16.599  0.00  0.00    +0.000 A 
ATOM     14  C   UNL     1       5.155   3.698  15.407  0.00  0.00    +0.000 A 
ATOM     15  C   UNL     1       6.201   3.939  14.530  0.00  0.00    +0.000 A 
ATOM     16  F   UNL     1       6.279   3.257  13.380  0.00  0.00    +0.000 F 
ATOM     17  C   UNL     1       7.185   4.843  14.859  0.00  0.00    +0.000 A 
ATOM     18  C   UNL     1       7.012   5.646  15.982  0.00  0.00    +0.000 A 
ATOM     19  C   UNL     1       5.833   5.599  16.765  0.00  0.00    +0.000 A 
ATOM     20  H   UNL     1       0.978   5.223  20.549  0.00  0.00    +0.000 HD
ENDROOT
BRANCH   5  21
ATOM     21  C   UNL     1       1.628   7.714  19.807  0.00  0.00    +0.000 C 
ATOM     22  C   UNL     1       1.617   7.892  21.142  0.00  0.00    +0.000 C 
ATOM     23  C   UNL     1       1.099   9.153  21.757  0.00  0.00    +0.000 C 
ATOM     24  C   UNL     1       1.085  10.321  20.760  0.00  0.00    +0.000 C 
ATOM     25  N   UNL     1       0.450   9.930  19.500  0.00  0.00    +0.000 NA
ATOM     26  C   UNL     1       1.116   8.788  18.857  0.00  0.00    +0.000 C 
BRANCH  25  27
ATOM     27  C   UNL     1       0.281  11.067  18.576  0.00  0.00    +0.000 C 
BRANCH  27  28
ATOM     28  C   UNL     1       1.439  12.091  18.573  0.00  0.00    +0.000 C 
ATOM     29  O   UNL     1       2.584  11.829  18.200  0.00  0.00    +0.000 OA
ATOM     30  N   UNL     1       1.129  13.366  19.001  0.00  0.00    +0.000 N 
ATOM     31  C   UNL     1      -0.169  13.850  19.419  0.00  0.00    +0.000 C 
ATOM     32  C   UNL     1      -0.101  15.340  19.153  0.00  0.00    +0.000 C 
ATOM     33  C   UNL     1       1.357  15.690  19.432  0.00  0.00    +0.000 C 
ATOM     34  C   UNL     1       2.143  14.416  19.079  0.00  0.00    +0.000 C 
BRANCH  34  35
ATOM     35  C   UNL     1       3.231  14.119  20.124  0.00  0.00    +0.000 C 
BRANCH  35  36
ATOM     36  O   UNL     1       2.654  13.756  21.379  0.00  0.00    +0.000 OA
ATOM     37  H   UNL     1       3.335  13.277  21.874  0.00  0.00    +0.000 HD
ENDBRANCH  35  36
ENDBRANCH  34  35
ENDBRANCH  27  28
ENDBRANCH  25  27
ENDBRANCH   5  21
TORSDOF 5
ENDMDL
MODEL 6
REMARK VINA RESULT:      -8.6      1.308      1.673
REMARK  Name = 
REMARK  6 active torsions:
REMARK  status: ('A' for Active; 'I' for Inactive)
REMARK    1  A    between atoms: C_1  and  N_2
REMARK    2  A    between atoms: C_5  and  C_6
REMARK    3  A    between atoms: N_10  and  C_11
REMARK    4  A    between atoms: C_11  and  C_12
REMARK    5  A    between atoms: C_18  and  C_19
REMARK    6  A    between atoms: C_19  and  O_20
REMARK                            x       y       z     vdW  Elec       q    Type
REMARK                         _______ _______ _______ _____ _____    ______ ____
ROOT
ATOM      1  C   UNL     1       6.302   7.814  17.450  0.00  0.00    +0.000 C 
ATOM      2  N   UNL     1       5.480   6.602  17.611  0.00  0.00    +0.000 N 
ATOM      3  C   UNL     1       4.030   6.950  17.671  0.00  0.00    +0.000 C 
ATOM      4  C   UNL     1       3.178   6.050  18.483  0.00  0.00    +0.000 A 
ATOM      5  C   UNL     1       2.209   6.324  19.428  0.00  0.00    +0.000 A 
ATOM      6  N   UNL     1       1.736   5.129  19.915  0.00  0.00    +0.000 N 
ATOM      7  C   UNL     1       2.378   4.095  19.288  0.00  0.00    +0.000 A 
ATOM      8  N   UNL     1       2.161   2.794  19.538  0.00  0.00    +0.000 NA
ATOM      9  C   UNL     1       2.952   1.997  18.785  0.00  0.00    +0.000 A 
ATOM     10  C   UNL     1       3.867   2.427  17.827  0.00  0.00    +0.000 A 
ATOM     11  C   UNL     1       4.038   3.802  17.573  0.00  0.00    +0.000 A 
ATOM     12  C   UNL     1       3.269   4.643  18.381  0.00  0.00    +0.000 A 
ATOM     13  C   UNL     1       4.964   4.357  16.556  0.00  0.00    +0.000 A 
ATOM     14  C   UNL     1       5.085   3.643  15.344  0.00  0.00    +0.000 A 
ATOM     15  C   UNL     1       6.104   3.915  14.444  0.00  0.00    +0.000 A 
ATOM     16  F   UNL     1       6.156   3.260  13.278  0.00  0.00    +0.000 F 
ATOM     17  C   UNL     1       7.088   4.820  14.767  0.00  0.00    +0.000 A 
ATOM     18  C   UNL     1       6.938   5.596  15.913  0.00  0.00    +0.000 A 
ATOM     19  C   UNL     1       5.782   5.519  16.726  0.00  0.00    +0.000 A 
ATOM     20  H   UNL     1       1.036   5.009  20.632  0.00  0.00    +0.000 HD
ENDROOT
BRANCH   5  21
ATOM     21  C   UNL     1       1.643   7.523  19.929  0.00  0.00    +0.000 C 
ATOM     22  C   UNL     1       1.862   7.777  21.234  0.00  0.00    +0.000 C 
ATOM     23  C   UNL     1       1.369   9.033  21.878  0.00  0.00    +0.000 C 
ATOM     24  C   UNL     1       1.084  10.139  20.850  0.00  0.00    +0.000 C 
ATOM     25  N   UNL     1       0.262   9.633  19.749  0.00  0.00    +0.000 NA
ATOM     26  C   UNL     1       0.885   8.503  19.045  0.00  0.00    +0.000 C 
BRANCH  25  27
ATOM     27  C   UNL     1      -0.159  10.701  18.823  0.00  0.00    +0.000 C 
BRANCH  27  28
ATOM     28  C   UNL     1      -1.269  10.306  17.822  0.00  0.00    +0.000 C 
ATOM     29  O   UNL     1      -1.134   9.438  16.958  0.00  0.00    +0.000 OA
ATOM     30  N   UNL     1      -2.471  10.972  17.949  0.00  0.00    +0.000 N 
ATOM     31  C   UNL     1      -2.810  11.974  18.937  0.00  0.00    +0.000 C 
ATOM     32  C   UNL     1      -4.319  11.881  19.042  0.00  0.00    +0.000 C 
ATOM     33  C   UNL     1      -4.758  11.526  17.626  0.00  0.00    +0.000 C 
ATOM     34  C   UNL     1      -3.588  10.716  17.042  0.00  0.00    +0.000 C 
BRANCH  34  35
ATOM     35  C   UNL     1      -3.287  11.131  15.592  0.00  0.00    +0.000 C 
BRANCH  35  36
ATOM     36  O   UNL     1      -3.797  10.171  14.665  0.00  0.00    +0.000 OA
ATOM     37  H   UNL     1      -4.472   9.659  15.133  0.00  0.00    +0.000 HD
ENDBRANCH  35  36
ENDBRANCH  34  35
ENDBRANCH  27  28
ENDBRANCH  25  27
ENDBRANCH   5  21
TORSDOF 5
ENDMDL
MODEL 7
REMARK VINA RESULT:      -8.4      4.404      9.458
REMARK  Name = 
REMARK  6 active torsions:
REMARK  status: ('A' for Active; 'I' for Inactive)
REMARK    1  A    between atoms: C_1  and  N_2
REMARK    2  A    between atoms: C_5  and  C_6
REMARK    3  A    between atoms: N_10  and  C_11
REMARK    4  A    between atoms: C_11  and  C_12
REMARK    5  A    between atoms: C_18  and  C_19
REMARK    6  A    between atoms: C_19  and  O_20
REMARK                            x       y       z     vdW  Elec       q    Type
REMARK                         _______ _______ _______ _____ _____    ______ ____
ROOT
ATOM      1  C   UNL     1      -0.010   9.190  23.804  0.00  0.00    +0.000 C 
ATOM      2  N   UNL     1       0.262   9.663  22.436  0.00  0.00    +0.000 N 
ATOM      3  C   UNL     1       0.174   8.537  21.460  0.00  0.00    +0.000 C 
ATOM      4  C   UNL     1       1.043   8.643  20.264  0.00  0.00    +0.000 A 
ATOM      5  C   UNL     1       1.872   7.718  19.660  0.00  0.00    +0.000 A 
ATOM      6  N   UNL     1       2.487   8.329  18.593  0.00  0.00    +0.000 N 
ATOM      7  C   UNL     1       2.057   9.625  18.498  0.00  0.00    +0.000 A 
ATOM      8  N   UNL     1       2.470  10.505  17.573  0.00  0.00    +0.000 NA
ATOM      9  C   UNL     1       1.893  11.717  17.734  0.00  0.00    +0.000 A 
ATOM     10  C   UNL     1       0.948  12.047  18.704  0.00  0.00    +0.000 A 
ATOM     11  C   UNL     1       0.517  11.082  19.635  0.00  0.00    +0.000 A 
ATOM     12  C   UNL     1       1.145   9.839  19.519  0.00  0.00    +0.000 A 
ATOM     13  C   UNL     1      -0.501  11.327  20.685  0.00  0.00    +0.000 A 
ATOM     14  C   UNL     1      -1.591  12.156  20.337  0.00  0.00    +0.000 A 
ATOM     15  C   UNL     1      -2.447  12.664  21.301  0.00  0.00    +0.000 A 
ATOM     16  F   UNL     1      -3.505  13.399  20.933  0.00  0.00    +0.000 F 
ATOM     17  C   UNL     1      -2.188  12.457  22.636  0.00  0.00    +0.000 A 
ATOM     18  C   UNL     1      -1.175  11.573  22.994  0.00  0.00    +0.000 A 
ATOM     19  C   UNL     1      -0.440  10.841  22.030  0.00  0.00    +0.000 A 
ATOM     20  H   UNL     1       3.165   7.911  17.973  0.00  0.00    +0.000 HD
ENDROOT
BRANCH   5  21
ATOM     21  C   UNL     1       2.161   6.353  19.908  0.00  0.00    +0.000 C 
ATOM     22  C   UNL     1       1.187   5.646  20.512  0.00  0.00    +0.000 C 
ATOM     23  C   UNL     1       1.338   4.182  20.783  0.00  0.00    +0.000 C 
ATOM     24  C   UNL     1       2.408   3.535  19.891  0.00  0.00    +0.000 C 
ATOM     25  N   UNL     1       3.650   4.310  19.914  0.00  0.00    +0.000 NA
ATOM     26  C   UNL     1       3.464   5.699  19.470  0.00  0.00    +0.000 C 
BRANCH  25  27
ATOM     27  C   UNL     1       4.747   3.639  19.191  0.00  0.00    +0.000 C 
BRANCH  27  28
ATOM     28  C   UNL     1       5.018   4.168  17.765  0.00  0.00    +0.000 C 
ATOM     29  O   UNL     1       4.328   3.880  16.786  0.00  0.00    +0.000 OA
ATOM     30  N   UNL     1       6.091   5.025  17.625  0.00  0.00    +0.000 N 
ATOM     31  C   UNL     1       6.965   5.503  18.674  0.00  0.00    +0.000 C 
ATOM     32  C   UNL     1       7.488   6.819  18.136  0.00  0.00    +0.000 C 
ATOM     33  C   UNL     1       7.586   6.581  16.633  0.00  0.00    +0.000 C 
ATOM     34  C   UNL     1       6.474   5.566  16.322  0.00  0.00    +0.000 C 
BRANCH  34  35
ATOM     35  C   UNL     1       6.960   4.483  15.344  0.00  0.00    +0.000 C 
BRANCH  35  36
ATOM     36  O   UNL     1       5.971   4.205  14.350  0.00  0.00    +0.000 OA
ATOM     37  H   UNL     1       5.962   4.960  13.745  0.00  0.00    +0.000 HD
ENDBRANCH  35  36
ENDBRANCH  34  35
ENDBRANCH  27  28
ENDBRANCH  25  27
ENDBRANCH   5  21
TORSDOF 5
ENDMDL
MODEL 8
REMARK VINA RESULT:      -8.1      2.199      2.663
REMARK  Name = 
REMARK  6 active torsions:
REMARK  status: ('A' for Active; 'I' for Inactive)
REMARK    1  A    between atoms: C_1  and  N_2
REMARK    2  A    between atoms: C_5  and  C_6
REMARK    3  A    between atoms: N_10  and  C_11
REMARK    4  A    between atoms: C_11  and  C_12
REMARK    5  A    between atoms: C_18  and  C_19
REMARK    6  A    between atoms: C_19  and  O_20
REMARK                            x       y       z     vdW  Elec       q    Type
REMARK                         _______ _______ _______ _____ _____    ______ ____
ROOT
ATOM      1  C   UNL     1       6.392   7.828  17.453  0.00  0.00    +0.000 C 
ATOM      2  N   UNL     1       5.511   6.656  17.588  0.00  0.00    +0.000 N 
ATOM      3  C   UNL     1       4.078   7.073  17.631  0.00  0.00    +0.000 C 
ATOM      4  C   UNL     1       3.171   6.206  18.419  0.00  0.00    +0.000 A 
ATOM      5  C   UNL     1       2.202   6.517  19.353  0.00  0.00    +0.000 A 
ATOM      6  N   UNL     1       1.665   5.340  19.818  0.00  0.00    +0.000 N 
ATOM      7  C   UNL     1       2.266   4.283  19.189  0.00  0.00    +0.000 A 
ATOM      8  N   UNL     1       1.983   2.992  19.420  0.00  0.00    +0.000 NA
ATOM      9  C   UNL     1       2.746   2.165  18.670  0.00  0.00    +0.000 A 
ATOM     10  C   UNL     1       3.695   2.562  17.730  0.00  0.00    +0.000 A 
ATOM     11  C   UNL     1       3.936   3.929  17.495  0.00  0.00    +0.000 A 
ATOM     12  C   UNL     1       3.196   4.798  18.302  0.00  0.00    +0.000 A 
ATOM     13  C   UNL     1       4.904   4.450  16.499  0.00  0.00    +0.000 A 
ATOM     14  C   UNL     1       5.008   3.745  15.280  0.00  0.00    +0.000 A 
ATOM     15  C   UNL     1       6.053   3.977  14.399  0.00  0.00    +0.000 A 
ATOM     16  F   UNL     1       6.091   3.333  13.226  0.00  0.00    +0.000 F 
ATOM     17  C   UNL     1       7.075   4.830  14.747  0.00  0.00    +0.000 A 
ATOM     18  C   UNL     1       6.945   5.599  15.899  0.00  0.00    +0.000 A 
ATOM     19  C   UNL     1       5.774   5.570  16.695  0.00  0.00    +0.000 A 
ATOM     20  H   UNL     1       0.950   5.246  20.524  0.00  0.00    +0.000 HD
ENDROOT
BRANCH   5  21
ATOM     21  C   UNL     1       1.687   7.736  19.860  0.00  0.00    +0.000 C 
ATOM     22  C   UNL     1       1.166   7.684  21.101  0.00  0.00    +0.000 C 
ATOM     23  C   UNL     1       0.639   8.909  21.778  0.00  0.00    +0.000 C 
ATOM     24  C   UNL     1       1.203  10.199  21.164  0.00  0.00    +0.000 C 
ATOM     25  N   UNL     1       1.078  10.185  19.705  0.00  0.00    +0.000 NA
ATOM     26  C   UNL     1       1.767   9.044  19.085  0.00  0.00    +0.000 C 
BRANCH  25  27
ATOM     27  C   UNL     1       1.468  11.469  19.093  0.00  0.00    +0.000 C 
BRANCH  27  28
ATOM     28  C   UNL     1       1.547  12.666  20.067  0.00  0.00    +0.000 C 
ATOM     29  O   UNL     1       2.312  12.714  21.032  0.00  0.00    +0.000 OA
ATOM     30  N   UNL     1       0.713  13.731  19.795  0.00  0.00    +0.000 N 
ATOM     31  C   UNL     1      -0.201  13.857  18.679  0.00  0.00    +0.000 C 
ATOM     32  C   UNL     1      -0.344  15.355  18.499  0.00  0.00    +0.000 C 
ATOM     33  C   UNL     1      -0.246  15.900  19.919  0.00  0.00    +0.000 C 
ATOM     34  C   UNL     1       0.667  14.909  20.660  0.00  0.00    +0.000 C 
BRANCH  34  35
ATOM     35  C   UNL     1       0.131  14.595  22.067  0.00  0.00    +0.000 C 
BRANCH  35  36
ATOM     36  O   UNL     1       0.885  15.279  23.070  0.00  0.00    +0.000 OA
ATOM     37  H   UNL     1       0.435  16.121  23.233  0.00  0.00    +0.000 HD
ENDBRANCH  35  36
ENDBRANCH  34  35
ENDBRANCH  27  28
ENDBRANCH  25  27
ENDBRANCH   5  21
TORSDOF 5
ENDMDL
MODEL 9
REMARK VINA RESULT:      -7.9      4.020      7.513
REMARK  Name = 
REMARK  6 active torsions:
REMARK  status: ('A' for Active; 'I' for Inactive)
REMARK    1  A    between atoms: C_1  and  N_2
REMARK    2  A    between atoms: C_5  and  C_6
REMARK    3  A    between atoms: N_10  and  C_11
REMARK    4  A    between atoms: C_11  and  C_12
REMARK    5  A    between atoms: C_18  and  C_19
REMARK    6  A    between atoms: C_19  and  O_20
REMARK                            x       y       z     vdW  Elec       q    Type
REMARK                         _______ _______ _______ _____ _____    ______ ____
ROOT
ATOM      1  C   UNL     1       1.099   9.183  22.463  0.00  0.00    +0.000 C 
ATOM      2  N   UNL     1       0.491   9.573  21.179  0.00  0.00    +0.000 N 
ATOM      3  C   UNL     1       0.453  11.059  21.042  0.00  0.00    +0.000 C 
ATOM      4  C   UNL     1      -0.666  11.609  20.241  0.00  0.00    +0.000 A 
ATOM      5  C   UNL     1      -1.529  12.659  20.489  0.00  0.00    +0.000 A 
ATOM      6  N   UNL     1      -2.415  12.740  19.442  0.00  0.00    +0.000 N 
ATOM      7  C   UNL     1      -2.125  11.768  18.522  0.00  0.00    +0.000 A 
ATOM      8  N   UNL     1      -2.806  11.561  17.384  0.00  0.00    +0.000 NA
ATOM      9  C   UNL     1      -2.309  10.519  16.680  0.00  0.00    +0.000 A 
ATOM     10  C   UNL     1      -1.203   9.750  17.035  0.00  0.00    +0.000 A 
ATOM     11  C   UNL     1      -0.497  10.023  18.222  0.00  0.00    +0.000 A 
ATOM     12  C   UNL     1      -1.030  11.061  18.991  0.00  0.00    +0.000 A 
ATOM     13  C   UNL     1       0.705   9.280  18.672  0.00  0.00    +0.000 A 
ATOM     14  C   UNL     1       1.618   8.877  17.672  0.00  0.00    +0.000 A 
ATOM     15  C   UNL     1       2.622   7.960  17.940  0.00  0.00    +0.000 A 
ATOM     16  F   UNL     1       3.506   7.642  16.986  0.00  0.00    +0.000 F 
ATOM     17  C   UNL     1       2.684   7.340  19.166  0.00  0.00    +0.000 A 
ATOM     18  C   UNL     1       1.853   7.788  20.189  0.00  0.00    +0.000 A 
ATOM     19  C   UNL     1       0.985   8.894  20.021  0.00  0.00    +0.000 A 
ATOM     20  H   UNL     1      -3.177  13.396  19.350  0.00  0.00    +0.000 HD
ENDROOT
BRANCH   5  21
ATOM     21  C   UNL     1      -1.642  13.607  21.537  0.00  0.00    +0.000 C 
ATOM     22  C   UNL     1      -0.985  14.768  21.352  0.00  0.00    +0.000 C 
ATOM     23  C   UNL     1      -1.065  15.877  22.353  0.00  0.00    +0.000 C 
ATOM     24  C   UNL     1      -2.296  15.750  23.262  0.00  0.00    +0.000 C 
ATOM     25  N   UNL     1      -2.406  14.398  23.813  0.00  0.00    +0.000 NA
ATOM     26  C   UNL     1      -2.498  13.365  22.772  0.00  0.00    +0.000 C 
BRANCH  25  27
ATOM     27  C   UNL     1      -3.487  14.281  24.809  0.00  0.00    +0.000 C 
BRANCH  27  28
ATOM     28  C   UNL     1      -4.665  13.368  24.399  0.00  0.00    +0.000 C 
ATOM     29  O   UNL     1      -4.691  12.153  24.600  0.00  0.00    +0.000 OA
ATOM     30  N   UNL     1      -5.739  13.990  23.794  0.00  0.00    +0.000 N 
ATOM     31  C   UNL     1      -5.890  15.406  23.535  0.00  0.00    +0.000 C 
ATOM     32  C   UNL     1      -7.391  15.606  23.487  0.00  0.00    +0.000 C 
ATOM     33  C   UNL     1      -7.908  14.305  22.882  0.00  0.00    +0.000 C 
ATOM     34  C   UNL     1      -6.899  13.234  23.328  0.00  0.00    +0.000 C 
BRANCH  34  35
ATOM     35  C   UNL     1      -6.560  12.269  22.179  0.00  0.00    +0.000 C 
BRANCH  35  36
ATOM     36  O   UNL     1      -7.554  11.250  22.052  0.00  0.00    +0.000 OA
ATOM     37  H   UNL     1      -8.360  11.592  22.464  0.00  0.00    +0.000 HD
ENDBRANCH  35  36
ENDBRANCH  34  35
ENDBRANCH  27  28
ENDBRANCH  25  27
ENDBRANCH   5  21
TORSDOF 5
ENDMDL
