MODEL 1
REMARK VINA RESULT:      -8.7      0.000      0.000
REMARK  Name = 
REMARK  6 active torsions:
REMARK  status: ('A' for Active; 'I' for Inactive)
REMARK    1  A    between atoms: C_1  and  O_2
REMARK    2  A    between atoms: O_2  and  C_3
REMARK    3  A    between atoms: C_5  and  S_6
REMARK    4  A    between atoms: S_6  and  C_9
REMARK    5  A    between atoms: C_14  and  C_15
REMARK    6  A    between atoms: C_15  and  O_16
REMARK                            x       y       z     vdW  Elec       q    Type
REMARK                         _______ _______ _______ _____ _____    ______ ____
ROOT
ATOM      1  C   UNL     1       7.077   5.484  17.390  0.00  0.00    +0.000 A 
ATOM      2  C   UNL     1       6.155   4.896  18.273  0.00  0.00    +0.000 A 
ATOM      3  C   UNL     1       5.165   4.019  17.803  0.00  0.00    +0.000 A 
ATOM      4  C   UNL     1       5.088   3.647  16.458  0.00  0.00    +0.000 A 
ATOM      5  C   UNL     1       5.995   4.221  15.562  0.00  0.00    +0.000 A 
ATOM      6  C   UNL     1       6.208   4.098  14.173  0.00  0.00    +0.000 A 
ATOM      7  C   UNL     1       7.239   4.958  13.880  0.00  0.00    +0.000 A 
ATOM      8  O   UNL     1       7.707   5.588  14.984  0.00  0.00    +0.000 OA
ATOM      9  C   UNL     1       6.945   5.130  16.035  0.00  0.00    +0.000 A 
ATOM     10  C   UNL     1       7.784   5.214  12.533  0.00  0.00    +0.000 C 
ATOM     11  C   UNL     1       7.271   4.078  11.608  0.00  0.00    +0.000 C 
ATOM     12  N   UNL     1       5.835   3.769  11.804  0.00  0.00    +0.000 NA
ATOM     13  C   UNL     1       5.552   3.246  13.154  0.00  0.00    +0.000 C 
ATOM     14  H   UNL     1       5.545   3.068  11.124  0.00  0.00    +0.000 HD
ENDROOT
BRANCH   3  15
ATOM     15  S   UNL     1       3.981   3.288  18.920  0.00  0.00    +0.000 S 
ATOM     16  O   UNL     1       3.156   2.436  18.089  0.00  0.00    +0.000 OA
ATOM     17  O   UNL     1       4.735   2.727  20.032  0.00  0.00    +0.000 OA
BRANCH  15  18
ATOM     18  C   UNL     1       2.990   4.625  19.580  0.00  0.00    +0.000 A 
ATOM     19  C   UNL     1       3.233   5.880  18.983  0.00  0.00    +0.000 A 
ATOM     20  C   UNL     1       2.547   7.017  19.395  0.00  0.00    +0.000 A 
ATOM     21  C   UNL     1       1.612   6.919  20.414  0.00  0.00    +0.000 A 
ATOM     22  C   UNL     1       1.362   5.682  21.010  0.00  0.00    +0.000 A 
ATOM     23  C   UNL     1       2.042   4.505  20.618  0.00  0.00    +0.000 A 
BRANCH  23  24
ATOM     24  C   UNL     1       1.606   3.241  21.322  0.00  0.00    +0.000 C 
BRANCH  24  25
ATOM     25  O   UNL     1       2.607   2.666  22.133  0.00  0.00    +0.000 OA
ATOM     26  H   UNL     1       2.909   1.855  21.670  0.00  0.00    +0.000 HD
ENDBRANCH  24  25
ENDBRANCH  23  24
ENDBRANCH  15  18
ENDBRANCH   3  15
BRANCH   1  28
ATOM     27  C   UNL     1       7.660   7.764  17.690  0.00  0.00    +0.000 C 
ATOM     28  O   UNL     1       8.035   6.391  17.755  0.00  0.00    +0.000 OA
ENDBRANCH   1  28
TORSDOF 5
ENDMDL
MODEL 2
REMARK VINA RESULT:      -7.6      1.895      2.627
REMARK  Name = 
REMARK  6 active torsions:
REMARK  status: ('A' for Active; 'I' for Inactive)
REMARK    1  A    between atoms: C_1  and  O_2
REMARK    2  A    between atoms: O_2  and  C_3
REMARK    3  A    between atoms: C_5  and  S_6
REMARK    4  A    between atoms: S_6  and  C_9
REMARK    5  A    between atoms: C_14  and  C_15
REMARK    6  A    between atoms: C_15  and  O_16
REMARK                            x       y       z     vdW  Elec       q    Type
REMARK                         _______ _______ _______ _____ _____    ______ ____
ROOT
ATOM      1  C   UNL     1       6.865   6.367  17.026  0.00  0.00    +0.000 A 
ATOM      2  C   UNL     1       5.776   6.373  17.914  0.00  0.00    +0.000 A 
ATOM      3  C   UNL     1       4.574   5.728  17.584  0.00  0.00    +0.000 A 
ATOM      4  C   UNL     1       4.425   5.008  16.396  0.00  0.00    +0.000 A 
ATOM      5  C   UNL     1       5.496   4.992  15.497  0.00  0.00    +0.000 A 
ATOM      6  C   UNL     1       5.703   4.399  14.233  0.00  0.00    +0.000 A 
ATOM      7  C   UNL     1       6.963   4.786  13.846  0.00  0.00    +0.000 A 
ATOM      8  O   UNL     1       7.572   5.551  14.783  0.00  0.00    +0.000 OA
ATOM      9  C   UNL     1       6.670   5.677  15.816  0.00  0.00    +0.000 A 
ATOM     10  C   UNL     1       7.605   4.452  12.560  0.00  0.00    +0.000 C 
ATOM     11  C   UNL     1       6.786   3.294  11.928  0.00  0.00    +0.000 C 
ATOM     12  N   UNL     1       5.321   3.497  12.020  0.00  0.00    +0.000 NA
ATOM     13  C   UNL     1       4.843   3.512  13.415  0.00  0.00    +0.000 C 
ATOM     14  H   UNL     1       4.845   2.743  11.529  0.00  0.00    +0.000 HD
ENDROOT
BRANCH   3  15
ATOM     15  S   UNL     1       3.183   5.751  18.703  0.00  0.00    +0.000 S 
ATOM     16  O   UNL     1       3.734   6.152  19.980  0.00  0.00    +0.000 OA
ATOM     17  O   UNL     1       2.139   6.542  18.068  0.00  0.00    +0.000 OA
BRANCH  15  18
ATOM     18  C   UNL     1       2.574   4.071  18.812  0.00  0.00    +0.000 A 
ATOM     19  C   UNL     1       1.239   3.905  18.388  0.00  0.00    +0.000 A 
ATOM     20  C   UNL     1       0.622   2.659  18.422  0.00  0.00    +0.000 A 
ATOM     21  C   UNL     1       1.329   1.561  18.887  0.00  0.00    +0.000 A 
ATOM     22  C   UNL     1       2.651   1.712  19.306  0.00  0.00    +0.000 A 
ATOM     23  C   UNL     1       3.310   2.964  19.287  0.00  0.00    +0.000 A 
BRANCH  23  24
ATOM     24  C   UNL     1       4.759   2.940  19.715  0.00  0.00    +0.000 C 
BRANCH  24  25
ATOM     25  O   UNL     1       5.247   1.647  20.001  0.00  0.00    +0.000 OA
ATOM     26  H   UNL     1       4.852   1.384  20.860  0.00  0.00    +0.000 HD
ENDBRANCH  24  25
ENDBRANCH  23  24
ENDBRANCH  15  18
ENDBRANCH   3  15
BRANCH   1  28
ATOM     27  C   UNL     1       7.956   8.363  17.700  0.00  0.00    +0.000 C 
ATOM     28  O   UNL     1       8.050   7.017  17.244  0.00  0.00    +0.000 OA
ENDBRANCH   1  28
TORSDOF 5
ENDMDL
MODEL 3
REMARK VINA RESULT:      -7.5      2.892      7.487
REMARK  Name = 
REMARK  6 active torsions:
REMARK  status: ('A' for Active; 'I' for Inactive)
REMARK    1  A    between atoms: C_1  and  O_2
REMARK    2  A    between atoms: O_2  and  C_3
REMARK    3  A    between atoms: C_5  and  S_6
REMARK    4  A    between atoms: S_6  and  C_9
REMARK    5  A    between atoms: C_14  and  C_15
REMARK    6  A    between atoms: C_15  and  O_16
REMARK                            x       y       z     vdW  Elec       q    Type
REMARK                         _______ _______ _______ _____ _____    ______ ____
ROOT
ATOM      1  C   UNL     1       3.400   6.538  17.504  0.00  0.00    +0.000 A 
ATOM      2  C   UNL     1       4.613   6.436  16.801  0.00  0.00    +0.000 A 
ATOM      3  C   UNL     1       5.531   5.416  17.094  0.00  0.00    +0.000 A 
ATOM      4  C   UNL     1       5.259   4.429  18.044  0.00  0.00    +0.000 A 
ATOM      5  C   UNL     1       4.058   4.513  18.756  0.00  0.00    +0.000 A 
ATOM      6  C   UNL     1       3.464   3.728  19.767  0.00  0.00    +0.000 A 
ATOM      7  C   UNL     1       2.285   4.360  20.079  0.00  0.00    +0.000 A 
ATOM      8  O   UNL     1       2.081   5.463  19.320  0.00  0.00    +0.000 OA
ATOM      9  C   UNL     1       3.174   5.561  18.489  0.00  0.00    +0.000 A 
ATOM     10  C   UNL     1       1.336   3.936  21.127  0.00  0.00    +0.000 C 
ATOM     11  C   UNL     1       1.705   2.478  21.515  0.00  0.00    +0.000 C 
ATOM     12  N   UNL     1       3.164   2.268  21.674  0.00  0.00    +0.000 NA
ATOM     13  C   UNL     1       3.901   2.468  20.412  0.00  0.00    +0.000 C 
ATOM     14  H   UNL     1       3.334   1.316  21.994  0.00  0.00    +0.000 HD
ENDROOT
BRANCH   3  15
ATOM     15  S   UNL     1       7.081   5.297  16.216  0.00  0.00    +0.000 S 
ATOM     16  O   UNL     1       7.567   6.659  16.125  0.00  0.00    +0.000 OA
ATOM     17  O   UNL     1       7.872   4.275  16.886  0.00  0.00    +0.000 OA
BRANCH  15  18
ATOM     18  C   UNL     1       6.707   4.681  14.578  0.00  0.00    +0.000 A 
ATOM     19  C   UNL     1       5.514   3.935  14.494  0.00  0.00    +0.000 A 
ATOM     20  C   UNL     1       5.094   3.383  13.288  0.00  0.00    +0.000 A 
ATOM     21  C   UNL     1       5.864   3.563  12.150  0.00  0.00    +0.000 A 
ATOM     22  C   UNL     1       7.046   4.302  12.221  0.00  0.00    +0.000 A 
ATOM     23  C   UNL     1       7.504   4.876  13.429  0.00  0.00    +0.000 A 
BRANCH  23  24
ATOM     24  C   UNL     1       8.768   5.697  13.317  0.00  0.00    +0.000 C 
BRANCH  24  25
ATOM     25  O   UNL     1       8.790   6.560  12.201  0.00  0.00    +0.000 OA
ATOM     26  H   UNL     1       9.671   6.993  12.200  0.00  0.00    +0.000 HD
ENDBRANCH  24  25
ENDBRANCH  23  24
ENDBRANCH  15  18
ENDBRANCH   3  15
BRANCH   1  28
ATOM     27  C   UNL     1       2.720   8.752  18.015  0.00  0.00    +0.000 C 
ATOM     28  O   UNL     1       2.476   7.532  17.322  0.00  0.00    +0.000 OA
ENDBRANCH   1  28
TORSDOF 5
ENDMDL
MODEL 4
REMARK VINA RESULT:      -7.3      8.044     11.384
REMARK  Name = 
REMARK  6 active torsions:
REMARK  status: ('A' for Active; 'I' for Inactive)
REMARK    1  A    between atoms: C_1  and  O_2
REMARK    2  A    between atoms: O_2  and  C_3
REMARK    3  A    between atoms: C_5  and  S_6
REMARK    4  A    between atoms: S_6  and  C_9
REMARK    5  A    between atoms: C_14  and  C_15
REMARK    6  A    between atoms: C_15  and  O_16
REMARK                            x       y       z     vdW  Elec       q    Type
REMARK                         _______ _______ _______ _____ _____    ______ ____
ROOT
ATOM      1  C   UNL     1      -2.796  10.279  17.090  0.00  0.00    +0.000 A 
ATOM      2  C   UNL     1      -1.506  10.410  17.633  0.00  0.00    +0.000 A 
ATOM      3  C   UNL     1      -1.273  11.235  18.743  0.00  0.00    +0.000 A 
ATOM      4  C   UNL     1      -2.311  11.910  19.391  0.00  0.00    +0.000 A 
ATOM      5  C   UNL     1      -3.601  11.795  18.866  0.00  0.00    +0.000 A 
ATOM      6  C   UNL     1      -4.857  12.323  19.233  0.00  0.00    +0.000 A 
ATOM      7  C   UNL     1      -5.742  11.862  18.288  0.00  0.00    +0.000 A 
ATOM      8  O   UNL     1      -5.141  11.062  17.375  0.00  0.00    +0.000 OA
ATOM      9  C   UNL     1      -3.812  11.009  17.731  0.00  0.00    +0.000 A 
ATOM     10  C   UNL     1      -7.177  12.196  18.224  0.00  0.00    +0.000 C 
ATOM     11  C   UNL     1      -7.567  12.807  19.597  0.00  0.00    +0.000 C 
ATOM     12  N   UNL     1      -6.577  13.789  20.100  0.00  0.00    +0.000 NA
ATOM     13  C   UNL     1      -5.266  13.173  20.376  0.00  0.00    +0.000 C 
ATOM     14  H   UNL     1      -6.922  14.203  20.964  0.00  0.00    +0.000 HD
ENDROOT
BRANCH   3  15
ATOM     15  S   UNL     1       0.368  11.418  19.422  0.00  0.00    +0.000 S 
ATOM     16  O   UNL     1       1.031  12.366  18.551  0.00  0.00    +0.000 OA
ATOM     17  O   UNL     1       0.212  11.703  20.841  0.00  0.00    +0.000 OA
BRANCH  15  18
ATOM     18  C   UNL     1       1.167   9.821  19.293  0.00  0.00    +0.000 A 
ATOM     19  C   UNL     1       1.854   9.610  18.080  0.00  0.00    +0.000 A 
ATOM     20  C   UNL     1       2.518   8.414  17.828  0.00  0.00    +0.000 A 
ATOM     21  C   UNL     1       2.499   7.409  18.783  0.00  0.00    +0.000 A 
ATOM     22  C   UNL     1       1.825   7.609  19.988  0.00  0.00    +0.000 A 
ATOM     23  C   UNL     1       1.138   8.811  20.278  0.00  0.00    +0.000 A 
BRANCH  23  24
ATOM     24  C   UNL     1       0.515   8.885  21.653  0.00  0.00    +0.000 C 
BRANCH  24  25
ATOM     25  O   UNL     1       1.310   9.560  22.603  0.00  0.00    +0.000 OA
ATOM     26  H   UNL     1       1.338   8.988  23.400  0.00  0.00    +0.000 HD
ENDBRANCH  24  25
ENDBRANCH  23  24
ENDBRANCH  15  18
ENDBRANCH   3  15
BRANCH   1  28
ATOM     27  C   UNL     1      -2.988  10.215  14.726  0.00  0.00    +0.000 C 
ATOM     28  O   UNL     1      -3.101   9.542  15.976  0.00  0.00    +0.000 OA
ENDBRANCH   1  28
TORSDOF 5
ENDMDL
MODEL 5
REMARK VINA RESULT:      -7.1      4.295      6.196
REMARK  Name = 
REMARK  6 active torsions:
REMARK  status: ('A' for Active; 'I' for Inactive)
REMARK    1  A    between atoms: C_1  and  O_2
REMARK    2  A    between atoms: O_2  and  C_3
REMARK    3  A    between atoms: C_5  and  S_6
REMARK    4  A    between atoms: S_6  and  C_9
REMARK    5  A    between atoms: C_14  and  C_15
REMARK    6  A    between atoms: C_15  and  O_16
REMARK                            x       y       z     vdW  Elec       q    Type
REMARK                         _______ _______ _______ _____ _____    ______ ____
ROOT
ATOM      1  C   UNL     1       2.369   6.139  19.910  0.00  0.00    +0.000 A 
ATOM      2  C   UNL     1       1.667   7.355  19.848  0.00  0.00    +0.000 A 
ATOM      3  C   UNL     1       1.930   8.287  18.832  0.00  0.00    +0.000 A 
ATOM      4  C   UNL     1       2.848   8.026  17.812  0.00  0.00    +0.000 A 
ATOM      5  C   UNL     1       3.559   6.822  17.856  0.00  0.00    +0.000 A 
ATOM      6  C   UNL     1       4.543   6.237  17.032  0.00  0.00    +0.000 A 
ATOM      7  C   UNL     1       4.871   5.048  17.637  0.00  0.00    +0.000 A 
ATOM      8  O   UNL     1       4.146   4.830  18.760  0.00  0.00    +0.000 OA
ATOM      9  C   UNL     1       3.322   5.924  18.899  0.00  0.00    +0.000 A 
ATOM     10  C   UNL     1       5.902   4.103  17.166  0.00  0.00    +0.000 C 
ATOM     11  C   UNL     1       6.244   4.492  15.703  0.00  0.00    +0.000 C 
ATOM     12  N   UNL     1       6.402   5.953  15.508  0.00  0.00    +0.000 NA
ATOM     13  C   UNL     1       5.149   6.690  15.759  0.00  0.00    +0.000 C 
ATOM     14  H   UNL     1       6.692   6.136  14.550  0.00  0.00    +0.000 HD
ENDROOT
BRANCH   3  15
ATOM     15  S   UNL     1       1.054   9.841  18.763  0.00  0.00    +0.000 S 
ATOM     16  O   UNL     1       2.071  10.833  18.481  0.00  0.00    +0.000 OA
ATOM     17  O   UNL     1      -0.069   9.657  17.856  0.00  0.00    +0.000 OA
BRANCH  15  18
ATOM     18  C   UNL     1       0.370  10.127  20.393  0.00  0.00    +0.000 A 
ATOM     19  C   UNL     1       0.891   9.288  21.399  0.00  0.00    +0.000 A 
ATOM     20  C   UNL     1       0.452   9.385  22.715  0.00  0.00    +0.000 A 
ATOM     21  C   UNL     1      -0.520  10.318  23.044  0.00  0.00    +0.000 A 
ATOM     22  C   UNL     1      -1.040  11.155  22.056  0.00  0.00    +0.000 A 
ATOM     23  C   UNL     1      -0.618  11.084  20.708  0.00  0.00    +0.000 A 
BRANCH  23  24
ATOM     24  C   UNL     1      -1.237  12.105  19.781  0.00  0.00    +0.000 C 
BRANCH  24  25
ATOM     25  O   UNL     1      -2.151  11.556  18.858  0.00  0.00    +0.000 OA
ATOM     26  H   UNL     1      -2.942  11.289  19.374  0.00  0.00    +0.000 HD
ENDBRANCH  24  25
ENDBRANCH  23  24
ENDBRANCH  15  18
ENDBRANCH   3  15
BRANCH   1  28
ATOM     27  C   UNL     1       1.258   4.176  20.648  0.00  0.00    +0.000 C 
ATOM     28  O   UNL     1       2.215   5.201  20.897  0.00  0.00    +0.000 OA
ENDBRANCH   1  28
TORSDOF 5
ENDMDL
MODEL 6
REMARK VINA RESULT:      -7.1      1.808      2.445
REMARK  Name = 
REMARK  6 active torsions:
REMARK  status: ('A' for Active; 'I' for Inactive)
REMARK    1  A    between atoms: C_1  and  O_2
REMARK    2  A    between atoms: O_2  and  C_3
REMARK    3  A    between atoms: C_5  and  S_6
REMARK    4  A    between atoms: S_6  and  C_9
REMARK    5  A    between atoms: C_14  and  C_15
REMARK    6  A    between atoms: C_15  and  O_16
REMARK                            x       y       z     vdW  Elec       q    Type
REMARK                         _______ _______ _______ _____ _____    ______ ____
ROOT
ATOM      1  C   UNL     1       6.755   6.303  16.806  0.00  0.00    +0.000 A 
ATOM      2  C   UNL     1       5.667   6.230  17.692  0.00  0.00    +0.000 A 
ATOM      3  C   UNL     1       4.518   5.495  17.362  0.00  0.00    +0.000 A 
ATOM      4  C   UNL     1       4.427   4.761  16.177  0.00  0.00    +0.000 A 
ATOM      5  C   UNL     1       5.498   4.822  15.280  0.00  0.00    +0.000 A 
ATOM      6  C   UNL     1       5.753   4.241  14.019  0.00  0.00    +0.000 A 
ATOM      7  C   UNL     1       6.980   4.721  13.633  0.00  0.00    +0.000 A 
ATOM      8  O   UNL     1       7.527   5.534  14.569  0.00  0.00    +0.000 OA
ATOM      9  C   UNL     1       6.616   5.596  15.599  0.00  0.00    +0.000 A 
ATOM     10  C   UNL     1       7.648   4.432  12.350  0.00  0.00    +0.000 C 
ATOM     11  C   UNL     1       6.921   3.213  11.721  0.00  0.00    +0.000 C 
ATOM     12  N   UNL     1       5.445   3.305  11.809  0.00  0.00    +0.000 NA
ATOM     13  C   UNL     1       4.964   3.289  13.203  0.00  0.00    +0.000 C 
ATOM     14  H   UNL     1       5.028   2.514  11.320  0.00  0.00    +0.000 HD
ENDROOT
BRANCH   3  15
ATOM     15  S   UNL     1       3.127   5.416  18.478  0.00  0.00    +0.000 S 
ATOM     16  O   UNL     1       3.198   6.637  19.255  0.00  0.00    +0.000 OA
ATOM     17  O   UNL     1       1.950   5.122  17.672  0.00  0.00    +0.000 OA
BRANCH  15  18
ATOM     18  C   UNL     1       3.395   4.006  19.548  0.00  0.00    +0.000 A 
ATOM     19  C   UNL     1       4.646   3.379  19.383  0.00  0.00    +0.000 A 
ATOM     20  C   UNL     1       4.998   2.264  20.137  0.00  0.00    +0.000 A 
ATOM     21  C   UNL     1       4.100   1.756  21.064  0.00  0.00    +0.000 A 
ATOM     22  C   UNL     1       2.859   2.372  21.238  0.00  0.00    +0.000 A 
ATOM     23  C   UNL     1       2.468   3.505  20.487  0.00  0.00    +0.000 A 
BRANCH  23  24
ATOM     24  C   UNL     1       1.118   4.084  20.845  0.00  0.00    +0.000 C 
BRANCH  24  25
ATOM     25  O   UNL     1       0.054   3.561  20.082  0.00  0.00    +0.000 OA
ATOM     26  H   UNL     1       0.026   2.597  20.266  0.00  0.00    +0.000 HD
ENDBRANCH  24  25
ENDBRANCH  23  24
ENDBRANCH  15  18
ENDBRANCH   3  15
BRANCH   1  28
ATOM     27  C   UNL     1       7.704   8.302  17.662  0.00  0.00    +0.000 C 
ATOM     28  O   UNL     1       7.888   7.041  17.024  0.00  0.00    +0.000 OA
ENDBRANCH   1  28
TORSDOF 5
ENDMDL
MODEL 7
REMARK VINA RESULT:      -7.1      1.694      2.587
REMARK  Name = 
REMARK  6 active torsions:
REMARK  status: ('A' for Active; 'I' for Inactive)
REMARK    1  A    between atoms: C_1  and  O_2
REMARK    2  A    between atoms: O_2  and  C_3
REMARK    3  A    between atoms: C_5  and  S_6
REMARK    4  A    between atoms: S_6  and  C_9
REMARK    5  A    between atoms: C_14  and  C_15
REMARK    6  A    between atoms: C_15  and  O_16
REMARK                            x       y       z     vdW  Elec       q    Type
REMARK                         _______ _______ _______ _____ _____    ______ ____
ROOT
ATOM      1  C   UNL     1       6.434   6.173  17.404  0.00  0.00    +0.000 A 
ATOM      2  C   UNL     1       5.206   6.160  18.088  0.00  0.00    +0.000 A 
ATOM      3  C   UNL     1       4.061   5.599  17.502  0.00  0.00    +0.000 A 
ATOM      4  C   UNL     1       4.101   4.981  16.250  0.00  0.00    +0.000 A 
ATOM      5  C   UNL     1       5.312   4.985  15.551  0.00  0.00    +0.000 A 
ATOM      6  C   UNL     1       5.720   4.483  14.297  0.00  0.00    +0.000 A 
ATOM      7  C   UNL     1       7.040   4.841  14.167  0.00  0.00    +0.000 A 
ATOM      8  O   UNL     1       7.498   5.502  15.257  0.00  0.00    +0.000 OA
ATOM      9  C   UNL     1       6.433   5.589  16.125  0.00  0.00    +0.000 A 
ATOM     10  C   UNL     1       7.887   4.579  12.988  0.00  0.00    +0.000 C 
ATOM     11  C   UNL     1       7.156   3.513  12.128  0.00  0.00    +0.000 C 
ATOM     12  N   UNL     1       5.705   3.775  11.982  0.00  0.00    +0.000 NA
ATOM     13  C   UNL     1       4.989   3.704  13.270  0.00  0.00    +0.000 C 
ATOM     14  H   UNL     1       5.298   3.084  11.354  0.00  0.00    +0.000 HD
ENDROOT
BRANCH   3  15
ATOM     15  S   UNL     1       2.496   5.598  18.361  0.00  0.00    +0.000 S 
ATOM     16  O   UNL     1       2.455   6.862  19.069  0.00  0.00    +0.000 OA
ATOM     17  O   UNL     1       1.472   5.269  17.381  0.00  0.00    +0.000 OA
BRANCH  15  18
ATOM     18  C   UNL     1       2.548   4.251  19.539  0.00  0.00    +0.000 A 
ATOM     19  C   UNL     1       2.317   4.636  20.876  0.00  0.00    +0.000 A 
ATOM     20  C   UNL     1       2.334   3.702  21.906  0.00  0.00    +0.000 A 
ATOM     21  C   UNL     1       2.588   2.370  21.616  0.00  0.00    +0.000 A 
ATOM     22  C   UNL     1       2.814   1.978  20.296  0.00  0.00    +0.000 A 
ATOM     23  C   UNL     1       2.806   2.900  19.224  0.00  0.00    +0.000 A 
BRANCH  23  24
ATOM     24  C   UNL     1       3.006   2.298  17.852  0.00  0.00    +0.000 C 
BRANCH  24  25
ATOM     25  O   UNL     1       4.231   1.614  17.703  0.00  0.00    +0.000 OA
ATOM     26  H   UNL     1       4.422   1.193  18.569  0.00  0.00    +0.000 HD
ENDBRANCH  24  25
ENDBRANCH  23  24
ENDBRANCH  15  18
ENDBRANCH   3  15
BRANCH   1  28
ATOM     27  C   UNL     1       7.743   8.140  17.617  0.00  0.00    +0.000 C 
ATOM     28  O   UNL     1       7.582   6.749  17.878  0.00  0.00    +0.000 OA
ENDBRANCH   1  28
TORSDOF 5
ENDMDL
MODEL 8
REMARK VINA RESULT:      -7.1      4.274      6.089
REMARK  Name = 
REMARK  6 active torsions:
REMARK  status: ('A' for Active; 'I' for Inactive)
REMARK    1  A    between atoms: C_1  and  O_2
REMARK    2  A    between atoms: O_2  and  C_3
REMARK    3  A    between atoms: C_5  and  S_6
REMARK    4  A    between atoms: S_6  and  C_9
REMARK    5  A    between atoms: C_14  and  C_15
REMARK    6  A    between atoms: C_15  and  O_16
REMARK                            x       y       z     vdW  Elec       q    Type
REMARK                         _______ _______ _______ _____ _____    ______ ____
ROOT
ATOM      1  C   UNL     1       4.384   6.927  17.275  0.00  0.00    +0.000 A 
ATOM      2  C   UNL     1       3.615   8.088  17.464  0.00  0.00    +0.000 A 
ATOM      3  C   UNL     1       2.303   8.010  17.955  0.00  0.00    +0.000 A 
ATOM      4  C   UNL     1       1.727   6.794  18.332  0.00  0.00    +0.000 A 
ATOM      5  C   UNL     1       2.475   5.627  18.151  0.00  0.00    +0.000 A 
ATOM      6  C   UNL     1       2.229   4.259  18.398  0.00  0.00    +0.000 A 
ATOM      7  C   UNL     1       3.354   3.598  17.969  0.00  0.00    +0.000 A 
ATOM      8  O   UNL     1       4.297   4.450  17.499  0.00  0.00    +0.000 OA
ATOM      9  C   UNL     1       3.762   5.712  17.616  0.00  0.00    +0.000 A 
ATOM     10  C   UNL     1       3.543   2.135  17.977  0.00  0.00    +0.000 C 
ATOM     11  C   UNL     1       2.446   1.537  18.897  0.00  0.00    +0.000 C 
ATOM     12  N   UNL     1       1.107   2.132  18.673  0.00  0.00    +0.000 NA
ATOM     13  C   UNL     1       1.068   3.568  19.007  0.00  0.00    +0.000 C 
ATOM     14  H   UNL     1       0.423   1.652  19.254  0.00  0.00    +0.000 HD
ENDROOT
BRANCH   3  15
ATOM     15  S   UNL     1       1.317   9.482  18.177  0.00  0.00    +0.000 S 
ATOM     16  O   UNL     1       2.211  10.582  17.878  0.00  0.00    +0.000 OA
ATOM     17  O   UNL     1       0.094   9.295  17.409  0.00  0.00    +0.000 OA
BRANCH  15  18
ATOM     18  C   UNL     1       0.848   9.541  19.904  0.00  0.00    +0.000 A 
ATOM     19  C   UNL     1       1.536   8.625  20.726  0.00  0.00    +0.000 A 
ATOM     20  C   UNL     1       1.274   8.545  22.090  0.00  0.00    +0.000 A 
ATOM     21  C   UNL     1       0.317   9.377  22.651  0.00  0.00    +0.000 A 
ATOM     22  C   UNL     1      -0.367  10.289  21.847  0.00  0.00    +0.000 A 
ATOM     23  C   UNL     1      -0.128  10.396  20.457  0.00  0.00    +0.000 A 
BRANCH  23  24
ATOM     24  C   UNL     1      -0.910  11.479  19.747  0.00  0.00    +0.000 C 
BRANCH  24  25
ATOM     25  O   UNL     1      -1.894  10.985  18.865  0.00  0.00    +0.000 OA
ATOM     26  H   UNL     1      -2.763  11.181  19.279  0.00  0.00    +0.000 HD
ENDBRANCH  24  25
ENDBRANCH  23  24
ENDBRANCH  15  18
ENDBRANCH   3  15
BRANCH   1  28
ATOM     27  C   UNL     1       6.713   6.715  17.675  0.00  0.00    +0.000 C 
ATOM     28  O   UNL     1       5.648   6.908  16.749  0.00  0.00    +0.000 OA
ENDBRANCH   1  28
TORSDOF 5
ENDMDL
MODEL 9
REMARK VINA RESULT:      -7.0      1.510      2.402
REMARK  Name = 
REMARK  6 active torsions:
REMARK  status: ('A' for Active; 'I' for Inactive)
REMARK    1  A    between atoms: C_1  and  O_2
REMARK    2  A    between atoms: O_2  and  C_3
REMARK    3  A    between atoms: C_5  and  S_6
REMARK    4  A    between atoms: S_6  and  C_9
REMARK    5  A    between atoms: C_14  and  C_15
REMARK    6  A    between atoms: C_15  and  O_16
REMARK                            x       y       z     vdW  Elec       q    Type
REMARK                         _______ _______ _______ _____ _____    ______ ____
ROOT
ATOM      1  C   UNL     1       6.624   5.791  17.624  0.00  0.00    +0.000 A 
ATOM      2  C   UNL     1       5.507   5.495  18.424  0.00  0.00    +0.000 A 
ATOM      3  C   UNL     1       4.403   4.808  17.895  0.00  0.00    +0.000 A 
ATOM      4  C   UNL     1       4.389   4.339  16.579  0.00  0.00    +0.000 A 
ATOM      5  C   UNL     1       5.489   4.625  15.765  0.00  0.00    +0.000 A 
ATOM      6  C   UNL     1       5.816   4.334  14.423  0.00  0.00    +0.000 A 
ATOM      7  C   UNL     1       7.035   4.926  14.203  0.00  0.00    +0.000 A 
ATOM      8  O   UNL     1       7.511   5.541  15.313  0.00  0.00    +0.000 OA
ATOM      9  C   UNL     1       6.561   5.351  16.290  0.00  0.00    +0.000 A 
ATOM     10  C   UNL     1       7.763   4.938  12.920  0.00  0.00    +0.000 C 
ATOM     11  C   UNL     1       7.113   3.856  12.016  0.00  0.00    +0.000 C 
ATOM     12  N   UNL     1       5.632   3.877  12.054  0.00  0.00    +0.000 NA
ATOM     13  C   UNL     1       5.100   3.550  13.390  0.00  0.00    +0.000 C 
ATOM     14  H   UNL     1       5.268   3.194  11.391  0.00  0.00    +0.000 HD
ENDROOT
BRANCH   3  15
ATOM     15  S   UNL     1       2.976   4.448  18.904  0.00  0.00    +0.000 S 
ATOM     16  O   UNL     1       2.014   3.856  17.998  0.00  0.00    +0.000 OA
ATOM     17  O   UNL     1       3.450   3.706  20.064  0.00  0.00    +0.000 OA
BRANCH  15  18
ATOM     18  C   UNL     1       2.352   6.015  19.504  0.00  0.00    +0.000 A 
ATOM     19  C   UNL     1       1.760   5.956  20.783  0.00  0.00    +0.000 A 
ATOM     20  C   UNL     1       1.222   7.091  21.379  0.00  0.00    +0.000 A 
ATOM     21  C   UNL     1       1.262   8.301  20.704  0.00  0.00    +0.000 A 
ATOM     22  C   UNL     1       1.848   8.372  19.439  0.00  0.00    +0.000 A 
ATOM     23  C   UNL     1       2.404   7.238  18.802  0.00  0.00    +0.000 A 
BRANCH  23  24
ATOM     24  C   UNL     1       3.054   7.502  17.463  0.00  0.00    +0.000 C 
BRANCH  24  25
ATOM     25  O   UNL     1       2.821   8.800  16.963  0.00  0.00    +0.000 OA
ATOM     26  H   UNL     1       3.213   9.424  17.613  0.00  0.00    +0.000 HD
ENDBRANCH  24  25
ENDBRANCH  23  24
ENDBRANCH  15  18
ENDBRANCH   3  15
BRANCH   1  28
ATOM     27  C   UNL     1       7.680   7.908  17.801  0.00  0.00    +0.000 C 
ATOM     28  O   UNL     1       7.714   6.505  18.044  0.00  0.00    +0.000 OA
ENDBRANCH   1  28
TORSDOF 5
ENDMDL
