MODEL 1
REMARK VINA RESULT:      -7.4      0.000      0.000
REMARK  Name = 
REMARK  2 active torsions:
REMARK  status: ('A' for Active; 'I' for Inactive)
REMARK    1  A    between atoms: C_1  and  C_2
REMARK    2  A    between atoms: C_10  and  C_12
REMARK                            x       y       z     vdW  Elec       q    Type
REMARK                         _______ _______ _______ _____ _____    ______ ____
ROOT
ATOM      1  C   UNL     1       4.793   7.043  16.280  0.00  0.00    +0.000 C 
ATOM      2  C   UNL     1       4.684   5.556  16.613  0.00  0.00    +0.000 C 
ATOM      3  C   UNL     1       4.781   4.613  15.423  0.00  0.00    +0.000 C 
ATOM      4  S   UNL     1       6.427   4.515  14.786  0.00  0.00    +0.000 S 
ATOM      5  O   UNL     1       6.803   5.813  14.261  0.00  0.00    +0.000 OA
ATOM      6  O   UNL     1       6.498   3.339  13.941  0.00  0.00    +0.000 OA
ATOM      7  C   UNL     1       7.388   4.190  16.241  0.00  0.00    +0.000 C 
ATOM      8  C   UNL     1       7.037   5.153  17.356  0.00  0.00    +0.000 C 
ATOM      9  N   UNL     1       5.602   5.129  17.689  0.00  0.00    +0.000 N 
ATOM     10  C   UNL     1       5.260   4.981  19.056  0.00  0.00    +0.000 C 
ATOM     11  O   UNL     1       6.118   4.945  19.936  0.00  0.00    +0.000 OA
ENDROOT
BRANCH  10  12
ATOM     12  C   UNL     1       3.840   4.869  19.494  0.00  0.00    +0.000 A 
ATOM     13  C   UNL     1       3.107   5.923  20.062  0.00  0.00    +0.000 A 
ATOM     14  C   UNL     1       1.820   5.741  20.559  0.00  0.00    +0.000 A 
ATOM     15  C   UNL     1       1.165   4.520  20.394  0.00  0.00    +0.000 A 
ATOM     16  C   UNL     1       1.815   3.480  19.706  0.00  0.00    +0.000 A 
ATOM     17  C   UNL     1       1.422   2.173  19.309  0.00  0.00    +0.000 A 
ATOM     18  C   UNL     1       2.477   1.604  18.633  0.00  0.00    +0.000 A 
ATOM     19  N   UNL     1       3.501   2.513  18.615  0.00  0.00    +0.000 N 
ATOM     20  C   UNL     1       3.129   3.672  19.275  0.00  0.00    +0.000 A 
ATOM     21  H   UNL     1       4.395   2.402  18.147  0.00  0.00    +0.000 HD
ENDBRANCH  10  12
TORSDOF 1
ENDMDL
MODEL 2
REMARK VINA RESULT:      -7.1      3.958      5.546
REMARK  Name = 
REMARK  2 active torsions:
REMARK  status: ('A' for Active; 'I' for Inactive)
REMARK    1  A    between atoms: C_1  and  C_2
REMARK    2  A    between atoms: C_10  and  C_12
REMARK                            x       y       z     vdW  Elec       q    Type
REMARK                         _______ _______ _______ _____ _____    ______ ____
ROOT
ATOM      1  C   UNL     1       1.784   4.836  18.184  0.00  0.00    +0.000 C 
ATOM      2  C   UNL     1       2.660   5.816  18.964  0.00  0.00    +0.000 C 
ATOM      3  C   UNL     1       3.867   5.201  19.657  0.00  0.00    +0.000 C 
ATOM      4  S   UNL     1       5.127   4.737  18.508  0.00  0.00    +0.000 S 
ATOM      5  O   UNL     1       4.616   3.683  17.655  0.00  0.00    +0.000 OA
ATOM      6  O   UNL     1       6.350   4.534  19.261  0.00  0.00    +0.000 OA
ATOM      7  C   UNL     1       5.331   6.207  17.538  0.00  0.00    +0.000 C 
ATOM      8  C   UNL     1       3.995   6.738  17.061  0.00  0.00    +0.000 C 
ATOM      9  N   UNL     1       3.063   6.997  18.173  0.00  0.00    +0.000 N 
ATOM     10  C   UNL     1       2.432   8.265  18.202  0.00  0.00    +0.000 C 
ATOM     11  O   UNL     1       2.597   9.089  17.305  0.00  0.00    +0.000 OA
ENDROOT
BRANCH  10  12
ATOM     12  C   UNL     1       1.530   8.658  19.322  0.00  0.00    +0.000 A 
ATOM     13  C   UNL     1       1.656   8.183  20.637  0.00  0.00    +0.000 A 
ATOM     14  C   UNL     1       0.724   8.490  21.623  0.00  0.00    +0.000 A 
ATOM     15  C   UNL     1      -0.310   9.388  21.363  0.00  0.00    +0.000 A 
ATOM     16  C   UNL     1      -0.391   9.994  20.096  0.00  0.00    +0.000 A 
ATOM     17  C   UNL     1      -1.247  10.979  19.533  0.00  0.00    +0.000 A 
ATOM     18  C   UNL     1      -0.838  11.203  18.239  0.00  0.00    +0.000 A 
ATOM     19  N   UNL     1       0.229  10.381  17.990  0.00  0.00    +0.000 N 
ATOM     20  C   UNL     1       0.521   9.618  19.107  0.00  0.00    +0.000 A 
ATOM     21  H   UNL     1       0.778  10.352  17.137  0.00  0.00    +0.000 HD
ENDBRANCH  10  12
TORSDOF 1
ENDMDL
MODEL 3
REMARK VINA RESULT:      -7.1      2.749      3.964
REMARK  Name = 
REMARK  2 active torsions:
REMARK  status: ('A' for Active; 'I' for Inactive)
REMARK    1  A    between atoms: C_1  and  C_2
REMARK    2  A    between atoms: C_10  and  C_12
REMARK                            x       y       z     vdW  Elec       q    Type
REMARK                         _______ _______ _______ _____ _____    ______ ____
ROOT
ATOM      1  C   UNL     1       6.474   7.169  17.691  0.00  0.00    +0.000 C 
ATOM      2  C   UNL     1       5.143   6.733  17.082  0.00  0.00    +0.000 C 
ATOM      3  C   UNL     1       5.216   6.237  15.645  0.00  0.00    +0.000 C 
ATOM      4  S   UNL     1       5.975   4.644  15.530  0.00  0.00    +0.000 S 
ATOM      5  O   UNL     1       7.357   4.755  15.952  0.00  0.00    +0.000 OA
ATOM      6  O   UNL     1       5.654   4.102  14.224  0.00  0.00    +0.000 OA
ATOM      7  C   UNL     1       5.083   3.700  16.737  0.00  0.00    +0.000 C 
ATOM      8  C   UNL     1       5.005   4.435  18.059  0.00  0.00    +0.000 C 
ATOM      9  N   UNL     1       4.401   5.773  17.924  0.00  0.00    +0.000 N 
ATOM     10  C   UNL     1       3.350   6.098  18.817  0.00  0.00    +0.000 C 
ATOM     11  O   UNL     1       3.002   5.330  19.712  0.00  0.00    +0.000 OA
ENDROOT
BRANCH  10  12
ATOM     12  C   UNL     1       2.620   7.393  18.718  0.00  0.00    +0.000 A 
ATOM     13  C   UNL     1       2.493   8.136  17.534  0.00  0.00    +0.000 A 
ATOM     14  C   UNL     1       1.898   9.394  17.513  0.00  0.00    +0.000 A 
ATOM     15  C   UNL     1       1.295   9.908  18.660  0.00  0.00    +0.000 A 
ATOM     16  C   UNL     1       1.278   9.134  19.835  0.00  0.00    +0.000 A 
ATOM     17  C   UNL     1       0.704   9.317  21.122  0.00  0.00    +0.000 A 
ATOM     18  C   UNL     1       0.997   8.204  21.875  0.00  0.00    +0.000 A 
ATOM     19  N   UNL     1       1.739   7.356  21.098  0.00  0.00    +0.000 N 
ATOM     20  C   UNL     1       1.938   7.903  19.842  0.00  0.00    +0.000 A 
ATOM     21  H   UNL     1       2.064   6.431  21.359  0.00  0.00    +0.000 HD
ENDBRANCH  10  12
TORSDOF 1
ENDMDL
MODEL 4
REMARK VINA RESULT:      -7.0      2.554      3.741
REMARK  Name = 
REMARK  2 active torsions:
REMARK  status: ('A' for Active; 'I' for Inactive)
REMARK    1  A    between atoms: C_1  and  C_2
REMARK    2  A    between atoms: C_10  and  C_12
REMARK                            x       y       z     vdW  Elec       q    Type
REMARK                         _______ _______ _______ _____ _____    ______ ____
ROOT
ATOM      1  C   UNL     1       6.282   5.653  19.229  0.00  0.00    +0.000 C 
ATOM      2  C   UNL     1       5.608   6.120  17.939  0.00  0.00    +0.000 C 
ATOM      3  C   UNL     1       6.548   6.379  16.771  0.00  0.00    +0.000 C 
ATOM      4  S   UNL     1       7.186   4.880  16.086  0.00  0.00    +0.000 S 
ATOM      5  O   UNL     1       8.009   4.224  17.083  0.00  0.00    +0.000 OA
ATOM      6  O   UNL     1       7.735   5.195  14.782  0.00  0.00    +0.000 OA
ATOM      7  C   UNL     1       5.720   3.914  15.832  0.00  0.00    +0.000 C 
ATOM      8  C   UNL     1       4.852   3.900  17.073  0.00  0.00    +0.000 C 
ATOM      9  N   UNL     1       4.486   5.256  17.520  0.00  0.00    +0.000 N 
ATOM     10  C   UNL     1       3.115   5.503  17.773  0.00  0.00    +0.000 C 
ATOM     11  O   UNL     1       2.272   4.610  17.694  0.00  0.00    +0.000 OA
ENDROOT
BRANCH  10  12
ATOM     12  C   UNL     1       2.627   6.858  18.155  0.00  0.00    +0.000 A 
ATOM     13  C   UNL     1       2.602   7.959  17.285  0.00  0.00    +0.000 A 
ATOM     14  C   UNL     1       2.244   9.232  17.718  0.00  0.00    +0.000 A 
ATOM     15  C   UNL     1       1.776   9.431  19.017  0.00  0.00    +0.000 A 
ATOM     16  C   UNL     1       1.654   8.326  19.880  0.00  0.00    +0.000 A 
ATOM     17  C   UNL     1       1.159   8.166  21.203  0.00  0.00    +0.000 A 
ATOM     18  C   UNL     1       1.268   6.835  21.534  0.00  0.00    +0.000 A 
ATOM     19  N   UNL     1       1.822   6.182  20.465  0.00  0.00    +0.000 N 
ATOM     20  C   UNL     1       2.081   7.072  19.437  0.00  0.00    +0.000 A 
ATOM     21  H   UNL     1       1.983   5.183  20.389  0.00  0.00    +0.000 HD
ENDBRANCH  10  12
TORSDOF 1
ENDMDL
MODEL 5
REMARK VINA RESULT:      -7.0      1.075      2.237
REMARK  Name = 
REMARK  2 active torsions:
REMARK  status: ('A' for Active; 'I' for Inactive)
REMARK    1  A    between atoms: C_1  and  C_2
REMARK    2  A    between atoms: C_10  and  C_12
REMARK                            x       y       z     vdW  Elec       q    Type
REMARK                         _______ _______ _______ _____ _____    ______ ____
ROOT
ATOM      1  C   UNL     1       4.380   6.721  16.668  0.00  0.00    +0.000 C 
ATOM      2  C   UNL     1       4.475   5.209  16.872  0.00  0.00    +0.000 C 
ATOM      3  C   UNL     1       4.639   4.389  15.601  0.00  0.00    +0.000 C 
ATOM      4  S   UNL     1       6.254   4.560  14.904  0.00  0.00    +0.000 S 
ATOM      5  O   UNL     1       6.438   5.935  14.482  0.00  0.00    +0.000 OA
ATOM      6  O   UNL     1       6.437   3.478  13.956  0.00  0.00    +0.000 OA
ATOM      7  C   UNL     1       7.313   4.243  16.291  0.00  0.00    +0.000 C 
ATOM      8  C   UNL     1       6.892   5.056  17.498  0.00  0.00    +0.000 C 
ATOM      9  N   UNL     1       5.487   4.817  17.875  0.00  0.00    +0.000 N 
ATOM     10  C   UNL     1       5.228   4.513  19.234  0.00  0.00    +0.000 C 
ATOM     11  O   UNL     1       6.122   4.517  20.078  0.00  0.00    +0.000 OA
ENDROOT
BRANCH  10  12
ATOM     12  C   UNL     1       3.855   4.181  19.707  0.00  0.00    +0.000 A 
ATOM     13  C   UNL     1       3.402   2.875  19.952  0.00  0.00    +0.000 A 
ATOM     14  C   UNL     1       2.078   2.604  20.284  0.00  0.00    +0.000 A 
ATOM     15  C   UNL     1       1.178   3.647  20.507  0.00  0.00    +0.000 A 
ATOM     16  C   UNL     1       1.629   4.976  20.408  0.00  0.00    +0.000 A 
ATOM     17  C   UNL     1       1.016   6.238  20.635  0.00  0.00    +0.000 A 
ATOM     18  C   UNL     1       1.958   7.212  20.399  0.00  0.00    +0.000 A 
ATOM     19  N   UNL     1       3.119   6.589  20.025  0.00  0.00    +0.000 N 
ATOM     20  C   UNL     1       2.946   5.215  20.011  0.00  0.00    +0.000 A 
ATOM     21  H   UNL     1       4.008   7.039  19.832  0.00  0.00    +0.000 HD
ENDBRANCH  10  12
TORSDOF 1
ENDMDL
MODEL 6
REMARK VINA RESULT:      -6.9      2.105      3.279
REMARK  Name = 
REMARK  2 active torsions:
REMARK  status: ('A' for Active; 'I' for Inactive)
REMARK    1  A    between atoms: C_1  and  C_2
REMARK    2  A    between atoms: C_10  and  C_12
REMARK                            x       y       z     vdW  Elec       q    Type
REMARK                         _______ _______ _______ _____ _____    ______ ____
ROOT
ATOM      1  C   UNL     1       5.515   4.369  15.653  0.00  0.00    +0.000 C 
ATOM      2  C   UNL     1       5.347   4.643  17.147  0.00  0.00    +0.000 C 
ATOM      3  C   UNL     1       6.638   4.891  17.913  0.00  0.00    +0.000 C 
ATOM      4  S   UNL     1       7.340   6.469  17.537  0.00  0.00    +0.000 S 
ATOM      5  O   UNL     1       7.730   6.486  16.141  0.00  0.00    +0.000 OA
ATOM      6  O   UNL     1       8.314   6.769  18.569  0.00  0.00    +0.000 OA
ATOM      7  C   UNL     1       5.967   7.569  17.759  0.00  0.00    +0.000 C 
ATOM      8  C   UNL     1       4.738   7.066  17.029  0.00  0.00    +0.000 C 
ATOM      9  N   UNL     1       4.359   5.702  17.440  0.00  0.00    +0.000 N 
ATOM     10  C   UNL     1       3.006   5.492  17.803  0.00  0.00    +0.000 C 
ATOM     11  O   UNL     1       2.167   6.386  17.714  0.00  0.00    +0.000 OA
ENDROOT
BRANCH  10  12
ATOM     12  C   UNL     1       2.533   4.171  18.305  0.00  0.00    +0.000 A 
ATOM     13  C   UNL     1       2.323   3.049  17.489  0.00  0.00    +0.000 A 
ATOM     14  C   UNL     1       1.774   1.870  17.984  0.00  0.00    +0.000 A 
ATOM     15  C   UNL     1       1.525   1.725  19.349  0.00  0.00    +0.000 A 
ATOM     16  C   UNL     1       1.852   2.779  20.222  0.00  0.00    +0.000 A 
ATOM     17  C   UNL     1       1.800   2.933  21.634  0.00  0.00    +0.000 A 
ATOM     18  C   UNL     1       2.273   4.189  21.938  0.00  0.00    +0.000 A 
ATOM     19  N   UNL     1       2.599   4.809  20.761  0.00  0.00    +0.000 N 
ATOM     20  C   UNL     1       2.343   3.972  19.688  0.00  0.00    +0.000 A 
ATOM     21  H   UNL     1       3.021   5.726  20.662  0.00  0.00    +0.000 HD
ENDBRANCH  10  12
TORSDOF 1
ENDMDL
MODEL 7
REMARK VINA RESULT:      -6.8      3.711      5.728
REMARK  Name = 
REMARK  2 active torsions:
REMARK  status: ('A' for Active; 'I' for Inactive)
REMARK    1  A    between atoms: C_1  and  C_2
REMARK    2  A    between atoms: C_10  and  C_12
REMARK                            x       y       z     vdW  Elec       q    Type
REMARK                         _______ _______ _______ _____ _____    ______ ____
ROOT
ATOM      1  C   UNL     1       1.176   3.981  17.707  0.00  0.00    +0.000 C 
ATOM      2  C   UNL     1       1.464   4.705  19.022  0.00  0.00    +0.000 C 
ATOM      3  C   UNL     1       0.930   4.020  20.272  0.00  0.00    +0.000 C 
ATOM      4  S   UNL     1       1.853   2.569  20.680  0.00  0.00    +0.000 S 
ATOM      5  O   UNL     1       1.680   1.593  19.623  0.00  0.00    +0.000 OA
ATOM      6  O   UNL     1       1.534   2.221  22.051  0.00  0.00    +0.000 OA
ATOM      7  C   UNL     1       3.528   3.151  20.650  0.00  0.00    +0.000 C 
ATOM      8  C   UNL     1       3.814   3.929  19.382  0.00  0.00    +0.000 C 
ATOM      9  N   UNL     1       2.888   5.060  19.194  0.00  0.00    +0.000 N 
ATOM     10  C   UNL     1       3.463   6.324  18.915  0.00  0.00    +0.000 C 
ATOM     11  O   UNL     1       4.676   6.463  18.766  0.00  0.00    +0.000 OA
ENDROOT
BRANCH  10  12
ATOM     12  C   UNL     1       2.623   7.547  18.783  0.00  0.00    +0.000 A 
ATOM     13  C   UNL     1       2.408   8.227  17.573  0.00  0.00    +0.000 A 
ATOM     14  C   UNL     1       1.708   9.428  17.517  0.00  0.00    +0.000 A 
ATOM     15  C   UNL     1       1.086   9.937  18.657  0.00  0.00    +0.000 A 
ATOM     16  C   UNL     1       1.160   9.214  19.861  0.00  0.00    +0.000 A 
ATOM     17  C   UNL     1       0.598   9.400  21.153  0.00  0.00    +0.000 A 
ATOM     18  C   UNL     1       1.000   8.349  21.943  0.00  0.00    +0.000 A 
ATOM     19  N   UNL     1       1.797   7.534  21.182  0.00  0.00    +0.000 N 
ATOM     20  C   UNL     1       1.923   8.044  19.901  0.00  0.00    +0.000 A 
ATOM     21  H   UNL     1       2.205   6.652  21.472  0.00  0.00    +0.000 HD
ENDBRANCH  10  12
TORSDOF 1
ENDMDL
MODEL 8
REMARK VINA RESULT:      -6.7      3.524      5.332
REMARK  Name = 
REMARK  2 active torsions:
REMARK  status: ('A' for Active; 'I' for Inactive)
REMARK    1  A    between atoms: C_1  and  C_2
REMARK    2  A    between atoms: C_10  and  C_12
REMARK                            x       y       z     vdW  Elec       q    Type
REMARK                         _______ _______ _______ _____ _____    ______ ____
ROOT
ATOM      1  C   UNL     1       1.198   3.970  18.232  0.00  0.00    +0.000 C 
ATOM      2  C   UNL     1       2.184   4.613  19.205  0.00  0.00    +0.000 C 
ATOM      3  C   UNL     1       2.911   3.647  20.130  0.00  0.00    +0.000 C 
ATOM      4  S   UNL     1       4.128   2.696  19.271  0.00  0.00    +0.000 S 
ATOM      5  O   UNL     1       3.462   1.849  18.303  0.00  0.00    +0.000 OA
ATOM      6  O   UNL     1       5.007   2.112  20.267  0.00  0.00    +0.000 OA
ATOM      7  C   UNL     1       5.051   3.937  18.403  0.00  0.00    +0.000 C 
ATOM      8  C   UNL     1       4.131   4.884  17.660  0.00  0.00    +0.000 C 
ATOM      9  N   UNL     1       3.145   5.523  18.549  0.00  0.00    +0.000 N 
ATOM     10  C   UNL     1       3.026   6.933  18.470  0.00  0.00    +0.000 C 
ATOM     11  O   UNL     1       3.663   7.590  17.649  0.00  0.00    +0.000 OA
ENDROOT
BRANCH  10  12
ATOM     12  C   UNL     1       2.114   7.687  19.376  0.00  0.00    +0.000 A 
ATOM     13  C   UNL     1       1.777   7.273  20.675  0.00  0.00    +0.000 A 
ATOM     14  C   UNL     1       0.834   7.951  21.442  0.00  0.00    +0.000 A 
ATOM     15  C   UNL     1       0.278   9.146  20.985  0.00  0.00    +0.000 A 
ATOM     16  C   UNL     1       0.694   9.668  19.747  0.00  0.00    +0.000 A 
ATOM     17  C   UNL     1       0.395  10.862  19.036  0.00  0.00    +0.000 A 
ATOM     18  C   UNL     1       1.122  10.850  17.868  0.00  0.00    +0.000 A 
ATOM     19  N   UNL     1       1.843   9.686  17.836  0.00  0.00    +0.000 N 
ATOM     20  C   UNL     1       1.594   8.933  18.971  0.00  0.00    +0.000 A 
ATOM     21  H   UNL     1       2.512   9.413  17.124  0.00  0.00    +0.000 HD
ENDBRANCH  10  12
TORSDOF 1
ENDMDL
MODEL 9
REMARK VINA RESULT:      -6.7      1.057      1.251
REMARK  Name = 
REMARK  2 active torsions:
REMARK  status: ('A' for Active; 'I' for Inactive)
REMARK    1  A    between atoms: C_1  and  C_2
REMARK    2  A    between atoms: C_10  and  C_12
REMARK                            x       y       z     vdW  Elec       q    Type
REMARK                         _______ _______ _______ _____ _____    ______ ____
ROOT
ATOM      1  C   UNL     1       6.349   7.330  17.067  0.00  0.00    +0.000 C 
ATOM      2  C   UNL     1       5.420   6.134  16.859  0.00  0.00    +0.000 C 
ATOM      3  C   UNL     1       5.187   5.736  15.409  0.00  0.00    +0.000 C 
ATOM      4  S   UNL     1       6.607   4.963  14.695  0.00  0.00    +0.000 S 
ATOM      5  O   UNL     1       7.687   5.928  14.643  0.00  0.00    +0.000 OA
ATOM      6  O   UNL     1       6.175   4.288  13.486  0.00  0.00    +0.000 OA
ATOM      7  C   UNL     1       7.014   3.717  15.890  0.00  0.00    +0.000 C 
ATOM      8  C   UNL     1       7.058   4.294  17.290  0.00  0.00    +0.000 C 
ATOM      9  N   UNL     1       5.796   4.955  17.666  0.00  0.00    +0.000 N 
ATOM     10  C   UNL     1       5.222   4.588  18.908  0.00  0.00    +0.000 C 
ATOM     11  O   UNL     1       5.784   3.807  19.673  0.00  0.00    +0.000 OA
ENDROOT
BRANCH  10  12
ATOM     12  C   UNL     1       3.910   5.139  19.350  0.00  0.00    +0.000 A 
ATOM     13  C   UNL     1       3.544   6.489  19.233  0.00  0.00    +0.000 A 
ATOM     14  C   UNL     1       2.353   6.978  19.762  0.00  0.00    +0.000 A 
ATOM     15  C   UNL     1       1.420   6.107  20.324  0.00  0.00    +0.000 A 
ATOM     16  C   UNL     1       1.688   4.726  20.335  0.00  0.00    +0.000 A 
ATOM     17  C   UNL     1       0.946   3.587  20.751  0.00  0.00    +0.000 A 
ATOM     18  C   UNL     1       1.713   2.472  20.501  0.00  0.00    +0.000 A 
ATOM     19  N   UNL     1       2.899   2.892  19.960  0.00  0.00    +0.000 N 
ATOM     20  C   UNL     1       2.918   4.273  19.855  0.00  0.00    +0.000 A 
ATOM     21  H   UNL     1       3.650   2.299  19.626  0.00  0.00    +0.000 HD
ENDBRANCH  10  12
TORSDOF 1
ENDMDL
