MODEL 1
REMARK VINA RESULT:      -9.0      0.000      0.000
REMARK  Name = 
REMARK  8 active torsions:
REMARK  status: ('A' for Active; 'I' for Inactive)
REMARK    1  A    between atoms: C_1  and  C_2
REMARK    2  A    between atoms: C_2  and  C_3
REMARK    3  A    between atoms: C_3  and  C_4
REMARK    4  A    between atoms: C_5  and  C_6
REMARK    5  A    between atoms: C_6  and  N_7
REMARK    6  A    between atoms: C_11  and  C_12
REMARK    7  A    between atoms: C_22  and  C_23
REMARK    8  A    between atoms: C_24  and  C_25
REMARK                            x       y       z     vdW  Elec       q    Type
REMARK                         _______ _______ _______ _____ _____    ______ ____
ROOT
ATOM      1  C   UNL     1       6.542   5.346  17.221  0.00  0.00    +0.000 A 
ATOM      2  C   UNL     1       5.489   4.682  17.774  0.00  0.00    +0.000 A 
ATOM      3  N   UNL     1       4.642   3.832  17.068  0.00  0.00    +0.000 NA
ATOM      4  C   UNL     1       4.861   3.652  15.802  0.00  0.00    +0.000 A 
ATOM      5  N   UNL     1       5.912   4.282  15.160  0.00  0.00    +0.000 N 
ATOM      6  C   UNL     1       6.327   4.206  13.845  0.00  0.00    +0.000 A 
ATOM      7  C   UNL     1       5.704   3.361  12.798  0.00  0.00    +0.000 C 
ATOM      8  C   UNL     1       7.412   5.065  13.775  0.00  0.00    +0.000 A 
ATOM      9  C   UNL     1       8.263   5.408  12.613  0.00  0.00    +0.000 C 
ATOM     10  N   UNL     1       7.666   5.629  15.002  0.00  0.00    +0.000 NA
ATOM     11  C   UNL     1       6.758   5.140  15.820  0.00  0.00    +0.000 A 
ENDROOT
BRANCH   1  12
ATOM     12  C   UNL     1       7.454   6.270  18.016  0.00  0.00    +0.000 C 
BRANCH  12  14
ATOM     13  C   UNL     1       8.377   8.606  18.261  0.00  0.00    +0.000 C 
ATOM     14  C   UNL     1       7.348   7.729  17.560  0.00  0.00    +0.000 C 
ENDBRANCH  12  14
ENDBRANCH   1  12
BRANCH   2  15
ATOM     15  C   UNL     1       5.177   4.707  19.265  0.00  0.00    +0.000 C 
BRANCH  15  16
ATOM     16  N   UNL     1       3.920   4.065  19.653  0.00  0.00    +0.000 N 
ATOM     17  C   UNL     1       3.741   2.748  19.991  0.00  0.00    +0.000 A 
ATOM     18  C   UNL     1       2.412   2.633  20.316  0.00  0.00    +0.000 A 
ATOM     19  N   UNL     1       1.773   3.834  20.164  0.00  0.00    +0.000 NA
ATOM     20  C   UNL     1       2.685   4.694  19.734  0.00  0.00    +0.000 A 
BRANCH  20  21
ATOM     21  C   UNL     1       2.443   6.116  19.461  0.00  0.00    +0.000 A 
ATOM     22  C   UNL     1       2.620   6.630  18.179  0.00  0.00    +0.000 A 
ATOM     23  C   UNL     1       2.261   7.952  17.933  0.00  0.00    +0.000 A 
ATOM     24  C   UNL     1       1.760   8.720  18.976  0.00  0.00    +0.000 A 
ATOM     25  C   UNL     1       1.663   8.140  20.228  0.00  0.00    +0.000 A 
ATOM     26  F   UNL     1       1.178   8.875  21.238  0.00  0.00    +0.000 F 
ATOM     27  N   UNL     1       1.992   6.862  20.499  0.00  0.00    +0.000 NA
ENDBRANCH  20  21
ENDBRANCH  15  16
ENDBRANCH   2  15
TORSDOF 5
ENDMDL
MODEL 2
REMARK VINA RESULT:      -8.7      2.742      7.465
REMARK  Name = 
REMARK  8 active torsions:
REMARK  status: ('A' for Active; 'I' for Inactive)
REMARK    1  A    between atoms: C_1  and  C_2
REMARK    2  A    between atoms: C_2  and  C_3
REMARK    3  A    between atoms: C_3  and  C_4
REMARK    4  A    between atoms: C_5  and  C_6
REMARK    5  A    between atoms: C_6  and  N_7
REMARK    6  A    between atoms: C_11  and  C_12
REMARK    7  A    between atoms: C_22  and  C_23
REMARK    8  A    between atoms: C_24  and  C_25
REMARK                            x       y       z     vdW  Elec       q    Type
REMARK                         _______ _______ _______ _____ _____    ______ ____
ROOT
ATOM      1  C   UNL     1       2.816   6.057  19.327  0.00  0.00    +0.000 A 
ATOM      2  C   UNL     1       3.418   6.268  18.123  0.00  0.00    +0.000 A 
ATOM      3  N   UNL     1       3.328   7.455  17.401  0.00  0.00    +0.000 NA
ATOM      4  C   UNL     1       2.632   8.430  17.898  0.00  0.00    +0.000 A 
ATOM      5  N   UNL     1       1.993   8.305  19.119  0.00  0.00    +0.000 N 
ATOM      6  C   UNL     1       1.236   9.218  19.826  0.00  0.00    +0.000 A 
ATOM      7  C   UNL     1       0.959  10.612  19.403  0.00  0.00    +0.000 C 
ATOM      8  C   UNL     1       0.839   8.532  20.962  0.00  0.00    +0.000 A 
ATOM      9  C   UNL     1      -0.004   8.992  22.090  0.00  0.00    +0.000 C 
ATOM     10  N   UNL     1       1.349   7.257  20.964  0.00  0.00    +0.000 NA
ATOM     11  C   UNL     1       2.045   7.144  19.851  0.00  0.00    +0.000 A 
ENDROOT
BRANCH   1  12
ATOM     12  C   UNL     1       2.930   4.748  20.097  0.00  0.00    +0.000 C 
BRANCH  12  14
ATOM     13  C   UNL     1       1.203   3.183  21.062  0.00  0.00    +0.000 C 
ATOM     14  C   UNL     1       1.778   3.787  19.789  0.00  0.00    +0.000 C 
ENDBRANCH  12  14
ENDBRANCH   1  12
BRANCH   2  15
ATOM     15  C   UNL     1       4.354   5.260  17.470  0.00  0.00    +0.000 C 
BRANCH  15  16
ATOM     16  N   UNL     1       5.751   5.331  17.901  0.00  0.00    +0.000 N 
ATOM     17  C   UNL     1       6.209   5.645  19.155  0.00  0.00    +0.000 A 
ATOM     18  C   UNL     1       7.576   5.541  19.081  0.00  0.00    +0.000 A 
ATOM     19  N   UNL     1       7.965   5.197  17.815  0.00  0.00    +0.000 NA
ATOM     20  C   UNL     1       6.857   5.099  17.094  0.00  0.00    +0.000 A 
BRANCH  20  21
ATOM     21  C   UNL     1       6.802   4.722  15.676  0.00  0.00    +0.000 A 
ATOM     22  C   UNL     1       5.868   3.792  15.227  0.00  0.00    +0.000 A 
ATOM     23  C   UNL     1       5.763   3.555  13.860  0.00  0.00    +0.000 A 
ATOM     24  C   UNL     1       6.607   4.236  12.991  0.00  0.00    +0.000 A 
ATOM     25  C   UNL     1       7.537   5.107  13.531  0.00  0.00    +0.000 A 
ATOM     26  F   UNL     1       8.352   5.768  12.698  0.00  0.00    +0.000 F 
ATOM     27  N   UNL     1       7.658   5.367  14.847  0.00  0.00    +0.000 NA
ENDBRANCH  20  21
ENDBRANCH  15  16
ENDBRANCH   2  15
TORSDOF 5
ENDMDL
MODEL 3
REMARK VINA RESULT:      -8.7      1.003      1.266
REMARK  Name = 
REMARK  8 active torsions:
REMARK  status: ('A' for Active; 'I' for Inactive)
REMARK    1  A    between atoms: C_1  and  C_2
REMARK    2  A    between atoms: C_2  and  C_3
REMARK    3  A    between atoms: C_3  and  C_4
REMARK    4  A    between atoms: C_5  and  C_6
REMARK    5  A    between atoms: C_6  and  N_7
REMARK    6  A    between atoms: C_11  and  C_12
REMARK    7  A    between atoms: C_22  and  C_23
REMARK    8  A    between atoms: C_24  and  C_25
REMARK                            x       y       z     vdW  Elec       q    Type
REMARK                         _______ _______ _______ _____ _____    ______ ____
ROOT
ATOM      1  C   UNL     1       6.531   5.412  17.214  0.00  0.00    +0.000 A 
ATOM      2  C   UNL     1       5.470   4.768  17.776  0.00  0.00    +0.000 A 
ATOM      3  N   UNL     1       4.618   3.913  17.083  0.00  0.00    +0.000 NA
ATOM      4  C   UNL     1       4.840   3.707  15.821  0.00  0.00    +0.000 A 
ATOM      5  N   UNL     1       5.898   4.315  15.171  0.00  0.00    +0.000 N 
ATOM      6  C   UNL     1       6.317   4.211  13.859  0.00  0.00    +0.000 A 
ATOM      7  C   UNL     1       5.691   3.352  12.826  0.00  0.00    +0.000 C 
ATOM      8  C   UNL     1       7.410   5.059  13.777  0.00  0.00    +0.000 A 
ATOM      9  C   UNL     1       8.269   5.372  12.612  0.00  0.00    +0.000 C 
ATOM     10  N   UNL     1       7.665   5.643  14.994  0.00  0.00    +0.000 NA
ATOM     11  C   UNL     1       6.750   5.178  15.818  0.00  0.00    +0.000 A 
ENDROOT
BRANCH   1  12
ATOM     12  C   UNL     1       7.449   6.342  17.995  0.00  0.00    +0.000 C 
BRANCH  12  14
ATOM     13  C   UNL     1       8.388   8.680  18.139  0.00  0.00    +0.000 C 
ATOM     14  C   UNL     1       7.255   7.812  17.610  0.00  0.00    +0.000 C 
ENDBRANCH  12  14
ENDBRANCH   1  12
BRANCH   2  15
ATOM     15  C   UNL     1       5.153   4.823  19.264  0.00  0.00    +0.000 C 
BRANCH  15  16
ATOM     16  N   UNL     1       3.985   4.050  19.686  0.00  0.00    +0.000 N 
ATOM     17  C   UNL     1       3.946   2.708  19.969  0.00  0.00    +0.000 A 
ATOM     18  C   UNL     1       2.654   2.454  20.356  0.00  0.00    +0.000 A 
ATOM     19  N   UNL     1       1.900   3.595  20.296  0.00  0.00    +0.000 NA
ATOM     20  C   UNL     1       2.703   4.555  19.861  0.00  0.00    +0.000 A 
BRANCH  20  21
ATOM     21  C   UNL     1       2.317   5.959  19.669  0.00  0.00    +0.000 A 
ATOM     22  C   UNL     1       1.788   6.697  20.725  0.00  0.00    +0.000 A 
ATOM     23  C   UNL     1       1.551   8.055  20.538  0.00  0.00    +0.000 A 
ATOM     24  C   UNL     1       1.828   8.625  19.302  0.00  0.00    +0.000 A 
ATOM     25  C   UNL     1       2.308   7.804  18.297  0.00  0.00    +0.000 A 
ATOM     26  F   UNL     1       2.580   8.348  17.103  0.00  0.00    +0.000 F 
ATOM     27  N   UNL     1       2.558   6.489  18.446  0.00  0.00    +0.000 NA
ENDBRANCH  20  21
ENDBRANCH  15  16
ENDBRANCH   2  15
TORSDOF 5
ENDMDL
MODEL 4
REMARK VINA RESULT:      -8.6      2.953      7.357
REMARK  Name = 
REMARK  8 active torsions:
REMARK  status: ('A' for Active; 'I' for Inactive)
REMARK    1  A    between atoms: C_1  and  C_2
REMARK    2  A    between atoms: C_2  and  C_3
REMARK    3  A    between atoms: C_3  and  C_4
REMARK    4  A    between atoms: C_5  and  C_6
REMARK    5  A    between atoms: C_6  and  N_7
REMARK    6  A    between atoms: C_11  and  C_12
REMARK    7  A    between atoms: C_22  and  C_23
REMARK    8  A    between atoms: C_24  and  C_25
REMARK                            x       y       z     vdW  Elec       q    Type
REMARK                         _______ _______ _______ _____ _____    ______ ____
ROOT
ATOM      1  C   UNL     1       2.226   6.933  19.527  0.00  0.00    +0.000 A 
ATOM      2  C   UNL     1       2.572   7.239  18.245  0.00  0.00    +0.000 A 
ATOM      3  N   UNL     1       2.359   8.480  17.652  0.00  0.00    +0.000 NA
ATOM      4  C   UNL     1       1.798   9.414  18.357  0.00  0.00    +0.000 A 
ATOM      5  N   UNL     1       1.420   9.192  19.669  0.00  0.00    +0.000 N 
ATOM      6  C   UNL     1       0.841  10.047  20.586  0.00  0.00    +0.000 A 
ATOM      7  C   UNL     1       0.509  11.471  20.339  0.00  0.00    +0.000 C 
ATOM      8  C   UNL     1       0.672   9.272  21.722  0.00  0.00    +0.000 A 
ATOM      9  C   UNL     1       0.086   9.642  23.031  0.00  0.00    +0.000 C 
ATOM     10  N   UNL     1       1.148   8.000  21.519  0.00  0.00    +0.000 NA
ATOM     11  C   UNL     1       1.599   7.976  20.282  0.00  0.00    +0.000 A 
ENDROOT
BRANCH   1  12
ATOM     12  C   UNL     1       2.471   5.566  20.152  0.00  0.00    +0.000 C 
BRANCH  12  14
ATOM     13  C   UNL     1       1.271   3.475  20.895  0.00  0.00    +0.000 C 
ATOM     14  C   UNL     1       1.345   4.574  19.844  0.00  0.00    +0.000 C 
ENDBRANCH  12  14
ENDBRANCH   1  12
BRANCH   2  15
ATOM     15  C   UNL     1       3.336   6.285  17.337  0.00  0.00    +0.000 C 
BRANCH  15  16
ATOM     16  N   UNL     1       4.774   6.188  17.595  0.00  0.00    +0.000 N 
ATOM     17  C   UNL     1       5.713   7.165  17.386  0.00  0.00    +0.000 A 
ATOM     18  C   UNL     1       6.902   6.625  17.812  0.00  0.00    +0.000 A 
ATOM     19  N   UNL     1       6.718   5.342  18.252  0.00  0.00    +0.000 NA
ATOM     20  C   UNL     1       5.430   5.070  18.091  0.00  0.00    +0.000 A 
BRANCH  20  21
ATOM     21  C   UNL     1       4.782   3.805  18.458  0.00  0.00    +0.000 A 
ATOM     22  C   UNL     1       3.969   3.137  17.546  0.00  0.00    +0.000 A 
ATOM     23  C   UNL     1       3.474   1.881  17.886  0.00  0.00    +0.000 A 
ATOM     24  C   UNL     1       3.789   1.346  19.128  0.00  0.00    +0.000 A 
ATOM     25  C   UNL     1       4.565   2.101  19.988  0.00  0.00    +0.000 A 
ATOM     26  F   UNL     1       4.874   1.590  21.187  0.00  0.00    +0.000 F 
ATOM     27  N   UNL     1       5.068   3.315  19.688  0.00  0.00    +0.000 NA
ENDBRANCH  20  21
ENDBRANCH  15  16
ENDBRANCH   2  15
TORSDOF 5
ENDMDL
MODEL 5
REMARK VINA RESULT:      -8.2      1.990      6.634
REMARK  Name = 
REMARK  8 active torsions:
REMARK  status: ('A' for Active; 'I' for Inactive)
REMARK    1  A    between atoms: C_1  and  C_2
REMARK    2  A    between atoms: C_2  and  C_3
REMARK    3  A    between atoms: C_3  and  C_4
REMARK    4  A    between atoms: C_5  and  C_6
REMARK    5  A    between atoms: C_6  and  N_7
REMARK    6  A    between atoms: C_11  and  C_12
REMARK    7  A    between atoms: C_22  and  C_23
REMARK    8  A    between atoms: C_24  and  C_25
REMARK                            x       y       z     vdW  Elec       q    Type
REMARK                         _______ _______ _______ _____ _____    ______ ____
ROOT
ATOM      1  C   UNL     1       3.469   4.965  18.768  0.00  0.00    +0.000 A 
ATOM      2  C   UNL     1       4.077   5.009  17.550  0.00  0.00    +0.000 A 
ATOM      3  N   UNL     1       4.075   6.122  16.714  0.00  0.00    +0.000 NA
ATOM      4  C   UNL     1       3.459   7.193  17.111  0.00  0.00    +0.000 A 
ATOM      5  N   UNL     1       2.819   7.239  18.337  0.00  0.00    +0.000 N 
ATOM      6  C   UNL     1       2.139   8.273  18.949  0.00  0.00    +0.000 A 
ATOM      7  C   UNL     1       1.968   9.635  18.389  0.00  0.00    +0.000 C 
ATOM      8  C   UNL     1       1.698   7.735  20.147  0.00  0.00    +0.000 A 
ATOM      9  C   UNL     1       0.900   8.368  21.222  0.00  0.00    +0.000 C 
ATOM     10  N   UNL     1       2.109   6.430  20.276  0.00  0.00    +0.000 NA
ATOM     11  C   UNL     1       2.786   6.155  19.181  0.00  0.00    +0.000 A 
ENDROOT
BRANCH   1  12
ATOM     12  C   UNL     1       3.487   3.734  19.664  0.00  0.00    +0.000 C 
BRANCH  12  14
ATOM     13  C   UNL     1       1.375   2.905  20.768  0.00  0.00    +0.000 C 
ATOM     14  C   UNL     1       2.226   2.879  19.506  0.00  0.00    +0.000 C 
ENDBRANCH  12  14
ENDBRANCH   1  12
BRANCH   2  15
ATOM     15  C   UNL     1       4.929   3.873  17.002  0.00  0.00    +0.000 C 
BRANCH  15  16
ATOM     16  N   UNL     1       5.755   4.211  15.842  0.00  0.00    +0.000 N 
ATOM     17  C   UNL     1       5.629   3.714  14.570  0.00  0.00    +0.000 A 
ATOM     18  C   UNL     1       6.593   4.353  13.831  0.00  0.00    +0.000 A 
ATOM     19  N   UNL     1       7.317   5.206  14.619  0.00  0.00    +0.000 NA
ATOM     20  C   UNL     1       6.825   5.096  15.845  0.00  0.00    +0.000 A 
BRANCH  20  21
ATOM     21  C   UNL     1       7.289   5.855  17.013  0.00  0.00    +0.000 A 
ATOM     22  C   UNL     1       7.621   5.198  18.196  0.00  0.00    +0.000 A 
ATOM     23  C   UNL     1       8.174   5.937  19.238  0.00  0.00    +0.000 A 
ATOM     24  C   UNL     1       8.357   7.303  19.072  0.00  0.00    +0.000 A 
ATOM     25  C   UNL     1       7.956   7.878  17.880  0.00  0.00    +0.000 A 
ATOM     26  F   UNL     1       8.132   9.196  17.714  0.00  0.00    +0.000 F 
ATOM     27  N   UNL     1       7.426   7.192  16.849  0.00  0.00    +0.000 NA
ENDBRANCH  20  21
ENDBRANCH  15  16
ENDBRANCH   2  15
TORSDOF 5
ENDMDL
MODEL 6
REMARK VINA RESULT:      -8.1      3.002      7.371
REMARK  Name = 
REMARK  8 active torsions:
REMARK  status: ('A' for Active; 'I' for Inactive)
REMARK    1  A    between atoms: C_1  and  C_2
REMARK    2  A    between atoms: C_2  and  C_3
REMARK    3  A    between atoms: C_3  and  C_4
REMARK    4  A    between atoms: C_5  and  C_6
REMARK    5  A    between atoms: C_6  and  N_7
REMARK    6  A    between atoms: C_11  and  C_12
REMARK    7  A    between atoms: C_22  and  C_23
REMARK    8  A    between atoms: C_24  and  C_25
REMARK                            x       y       z     vdW  Elec       q    Type
REMARK                         _______ _______ _______ _____ _____    ______ ____
ROOT
ATOM      1  C   UNL     1       2.256   7.023  19.443  0.00  0.00    +0.000 A 
ATOM      2  C   UNL     1       2.615   7.319  18.163  0.00  0.00    +0.000 A 
ATOM      3  N   UNL     1       2.400   8.554  17.556  0.00  0.00    +0.000 NA
ATOM      4  C   UNL     1       1.825   9.490  18.246  0.00  0.00    +0.000 A 
ATOM      5  N   UNL     1       1.433   9.278  19.555  0.00  0.00    +0.000 N 
ATOM      6  C   UNL     1       0.839  10.137  20.458  0.00  0.00    +0.000 A 
ATOM      7  C   UNL     1       0.501  11.557  20.194  0.00  0.00    +0.000 C 
ATOM      8  C   UNL     1       0.662   9.372  21.599  0.00  0.00    +0.000 A 
ATOM      9  C   UNL     1       0.059   9.750  22.898  0.00  0.00    +0.000 C 
ATOM     10  N   UNL     1       1.148   8.101  21.413  0.00  0.00    +0.000 NA
ATOM     11  C   UNL     1       1.613   8.069  20.181  0.00  0.00    +0.000 A 
ENDROOT
BRANCH   1  12
ATOM     12  C   UNL     1       2.503   5.663  20.083  0.00  0.00    +0.000 C 
BRANCH  12  14
ATOM     13  C   UNL     1       1.231   3.667  20.958  0.00  0.00    +0.000 C 
ATOM     14  C   UNL     1       1.354   4.682  19.830  0.00  0.00    +0.000 C 
ENDBRANCH  12  14
ENDBRANCH   1  12
BRANCH   2  15
ATOM     15  C   UNL     1       3.395   6.362  17.272  0.00  0.00    +0.000 C 
BRANCH  15  16
ATOM     16  N   UNL     1       4.832   6.285  17.541  0.00  0.00    +0.000 N 
ATOM     17  C   UNL     1       5.759   7.276  17.344  0.00  0.00    +0.000 A 
ATOM     18  C   UNL     1       6.952   6.751  17.776  0.00  0.00    +0.000 A 
ATOM     19  N   UNL     1       6.783   5.463  18.207  0.00  0.00    +0.000 NA
ATOM     20  C   UNL     1       5.501   5.174  18.036  0.00  0.00    +0.000 A 
BRANCH  20  21
ATOM     21  C   UNL     1       4.868   3.897  18.391  0.00  0.00    +0.000 A 
ATOM     22  C   UNL     1       5.125   3.299  19.622  0.00  0.00    +0.000 A 
ATOM     23  C   UNL     1       4.412   2.156  19.973  0.00  0.00    +0.000 A 
ATOM     24  C   UNL     1       3.486   1.638  19.076  0.00  0.00    +0.000 A 
ATOM     25  C   UNL     1       3.331   2.272  17.856  0.00  0.00    +0.000 A 
ATOM     26  F   UNL     1       2.438   1.778  16.988  0.00  0.00    +0.000 F 
ATOM     27  N   UNL     1       3.997   3.384  17.489  0.00  0.00    +0.000 NA
ENDBRANCH  20  21
ENDBRANCH  15  16
ENDBRANCH   2  15
TORSDOF 5
ENDMDL
MODEL 7
REMARK VINA RESULT:      -7.9      2.233      6.909
REMARK  Name = 
REMARK  8 active torsions:
REMARK  status: ('A' for Active; 'I' for Inactive)
REMARK    1  A    between atoms: C_1  and  C_2
REMARK    2  A    between atoms: C_2  and  C_3
REMARK    3  A    between atoms: C_3  and  C_4
REMARK    4  A    between atoms: C_5  and  C_6
REMARK    5  A    between atoms: C_6  and  N_7
REMARK    6  A    between atoms: C_11  and  C_12
REMARK    7  A    between atoms: C_22  and  C_23
REMARK    8  A    between atoms: C_24  and  C_25
REMARK                            x       y       z     vdW  Elec       q    Type
REMARK                         _______ _______ _______ _____ _____    ______ ____
ROOT
ATOM      1  C   UNL     1       2.780   6.033  19.634  0.00  0.00    +0.000 A 
ATOM      2  C   UNL     1       3.492   5.950  18.475  0.00  0.00    +0.000 A 
ATOM      3  N   UNL     1       3.554   6.962  17.521  0.00  0.00    +0.000 NA
ATOM      4  C   UNL     1       2.898   8.059  17.740  0.00  0.00    +0.000 A 
ATOM      5  N   UNL     1       2.153   8.232  18.893  0.00  0.00    +0.000 N 
ATOM      6  C   UNL     1       1.415   9.316  19.323  0.00  0.00    +0.000 A 
ATOM      7  C   UNL     1       1.283  10.604  18.600  0.00  0.00    +0.000 C 
ATOM      8  C   UNL     1       0.874   8.908  20.532  0.00  0.00    +0.000 A 
ATOM      9  C   UNL     1      -0.020   9.645  21.456  0.00  0.00    +0.000 C 
ATOM     10  N   UNL     1       1.282   7.634  20.843  0.00  0.00    +0.000 NA
ATOM     11  C   UNL     1       2.055   7.250  19.849  0.00  0.00    +0.000 A 
ENDROOT
BRANCH   1  12
ATOM     12  C   UNL     1       2.729   4.911  20.662  0.00  0.00    +0.000 C 
BRANCH  12  14
ATOM     13  C   UNL     1       1.579   2.708  21.102  0.00  0.00    +0.000 C 
ATOM     14  C   UNL     1       1.404   4.142  20.621  0.00  0.00    +0.000 C 
ENDBRANCH  12  14
ENDBRANCH   1  12
BRANCH   2  15
ATOM     15  C   UNL     1       4.397   4.774  18.135  0.00  0.00    +0.000 C 
BRANCH  15  16
ATOM     16  N   UNL     1       4.989   4.804  16.796  0.00  0.00    +0.000 N 
ATOM     17  C   UNL     1       4.543   4.135  15.686  0.00  0.00    +0.000 A 
ATOM     18  C   UNL     1       5.390   4.507  14.671  0.00  0.00    +0.000 A 
ATOM     19  N   UNL     1       6.351   5.364  15.136  0.00  0.00    +0.000 NA
ATOM     20  C   UNL     1       6.122   5.519  16.432  0.00  0.00    +0.000 A 
BRANCH  20  21
ATOM     21  C   UNL     1       6.901   6.380  17.330  0.00  0.00    +0.000 A 
ATOM     22  C   UNL     1       7.575   5.837  18.421  0.00  0.00    +0.000 A 
ATOM     23  C   UNL     1       8.403   6.664  19.175  0.00  0.00    +0.000 A 
ATOM     24  C   UNL     1       8.513   8.005  18.828  0.00  0.00    +0.000 A 
ATOM     25  C   UNL     1       7.769   8.467  17.757  0.00  0.00    +0.000 A 
ATOM     26  F   UNL     1       7.872   9.759  17.417  0.00  0.00    +0.000 F 
ATOM     27  N   UNL     1       6.966   7.693  17.001  0.00  0.00    +0.000 NA
ENDBRANCH  20  21
ENDBRANCH  15  16
ENDBRANCH   2  15
TORSDOF 5
ENDMDL
MODEL 8
REMARK VINA RESULT:      -7.7      1.224      1.585
REMARK  Name = 
REMARK  8 active torsions:
REMARK  status: ('A' for Active; 'I' for Inactive)
REMARK    1  A    between atoms: C_1  and  C_2
REMARK    2  A    between atoms: C_2  and  C_3
REMARK    3  A    between atoms: C_3  and  C_4
REMARK    4  A    between atoms: C_5  and  C_6
REMARK    5  A    between atoms: C_6  and  N_7
REMARK    6  A    between atoms: C_11  and  C_12
REMARK    7  A    between atoms: C_22  and  C_23
REMARK    8  A    between atoms: C_24  and  C_25
REMARK                            x       y       z     vdW  Elec       q    Type
REMARK                         _______ _______ _______ _____ _____    ______ ____
ROOT
ATOM      1  C   UNL     1       6.230   5.214  17.310  0.00  0.00    +0.000 A 
ATOM      2  C   UNL     1       5.183   4.465  17.754  0.00  0.00    +0.000 A 
ATOM      3  N   UNL     1       4.442   3.603  16.950  0.00  0.00    +0.000 NA
ATOM      4  C   UNL     1       4.762   3.497  15.697  0.00  0.00    +0.000 A 
ATOM      5  N   UNL     1       5.816   4.217  15.163  0.00  0.00    +0.000 N 
ATOM      6  C   UNL     1       6.328   4.228  13.881  0.00  0.00    +0.000 A 
ATOM      7  C   UNL     1       5.835   3.400  12.754  0.00  0.00    +0.000 C 
ATOM      8  C   UNL     1       7.361   5.151  13.930  0.00  0.00    +0.000 A 
ATOM      9  C   UNL     1       8.272   5.597  12.850  0.00  0.00    +0.000 C 
ATOM     10  N   UNL     1       7.492   5.668  15.195  0.00  0.00    +0.000 NA
ATOM     11  C   UNL     1       6.559   5.089  15.921  0.00  0.00    +0.000 A 
ENDROOT
BRANCH   1  12
ATOM     12  C   UNL     1       7.026   6.149  18.211  0.00  0.00    +0.000 C 
BRANCH  12  14
ATOM     13  C   UNL     1       8.177   5.563  20.378  0.00  0.00    +0.000 C 
ATOM     14  C   UNL     1       8.226   5.453  18.860  0.00  0.00    +0.000 C 
ENDBRANCH  12  14
ENDBRANCH   1  12
BRANCH   2  15
ATOM     15  C   UNL     1       4.764   4.400  19.216  0.00  0.00    +0.000 C 
BRANCH  15  16
ATOM     16  N   UNL     1       3.480   3.746  19.472  0.00  0.00    +0.000 N 
ATOM     17  C   UNL     1       3.258   2.400  19.616  0.00  0.00    +0.000 A 
ATOM     18  C   UNL     1       1.916   2.278  19.881  0.00  0.00    +0.000 A 
ATOM     19  N   UNL     1       1.312   3.506  19.880  0.00  0.00    +0.000 NA
ATOM     20  C   UNL     1       2.258   4.391  19.603  0.00  0.00    +0.000 A 
BRANCH  20  21
ATOM     21  C   UNL     1       2.059   5.844  19.525  0.00  0.00    +0.000 A 
ATOM     22  C   UNL     1       1.661   6.564  20.649  0.00  0.00    +0.000 A 
ATOM     23  C   UNL     1       1.604   7.952  20.568  0.00  0.00    +0.000 A 
ATOM     24  C   UNL     1       1.925   8.571  19.367  0.00  0.00    +0.000 A 
ATOM     25  C   UNL     1       2.264   7.773  18.290  0.00  0.00    +0.000 A 
ATOM     26  F   UNL     1       2.577   8.365  17.129  0.00  0.00    +0.000 F 
ATOM     27  N   UNL     1       2.338   6.429  18.336  0.00  0.00    +0.000 NA
ENDBRANCH  20  21
ENDBRANCH  15  16
ENDBRANCH   2  15
TORSDOF 5
ENDMDL
MODEL 9
REMARK VINA RESULT:      -7.6      2.104      6.674
REMARK  Name = 
REMARK  8 active torsions:
REMARK  status: ('A' for Active; 'I' for Inactive)
REMARK    1  A    between atoms: C_1  and  C_2
REMARK    2  A    between atoms: C_2  and  C_3
REMARK    3  A    between atoms: C_3  and  C_4
REMARK    4  A    between atoms: C_5  and  C_6
REMARK    5  A    between atoms: C_6  and  N_7
REMARK    6  A    between atoms: C_11  and  C_12
REMARK    7  A    between atoms: C_22  and  C_23
REMARK    8  A    between atoms: C_24  and  C_25
REMARK                            x       y       z     vdW  Elec       q    Type
REMARK                         _______ _______ _______ _____ _____    ______ ____
ROOT
ATOM      1  C   UNL     1       3.331   5.179  19.073  0.00  0.00    +0.000 A 
ATOM      2  C   UNL     1       3.993   5.161  17.882  0.00  0.00    +0.000 A 
ATOM      3  N   UNL     1       4.020   6.226  16.986  0.00  0.00    +0.000 NA
ATOM      4  C   UNL     1       3.380   7.312  17.295  0.00  0.00    +0.000 A 
ATOM      5  N   UNL     1       2.686   7.419  18.487  0.00  0.00    +0.000 N 
ATOM      6  C   UNL     1       1.972   8.479  19.010  0.00  0.00    +0.000 A 
ATOM      7  C   UNL     1       1.817   9.807  18.368  0.00  0.00    +0.000 C 
ATOM      8  C   UNL     1       1.481   8.004  20.215  0.00  0.00    +0.000 A 
ATOM      9  C   UNL     1       0.631   8.688  21.217  0.00  0.00    +0.000 C 
ATOM     10  N   UNL     1       1.894   6.712  20.434  0.00  0.00    +0.000 NA
ATOM     11  C   UNL     1       2.622   6.384  19.388  0.00  0.00    +0.000 A 
ENDROOT
BRANCH   1  12
ATOM     12  C   UNL     1       3.317   3.999  20.035  0.00  0.00    +0.000 C 
BRANCH  12  14
ATOM     13  C   UNL     1       1.331   2.938  21.173  0.00  0.00    +0.000 C 
ATOM     14  C   UNL     1       2.078   3.117  19.859  0.00  0.00    +0.000 C 
ENDBRANCH  12  14
ENDBRANCH   1  12
BRANCH   2  15
ATOM     15  C   UNL     1       4.877   4.004  17.436  0.00  0.00    +0.000 C 
BRANCH  15  16
ATOM     16  N   UNL     1       5.618   4.224  16.194  0.00  0.00    +0.000 N 
ATOM     17  C   UNL     1       5.339   3.685  14.964  0.00  0.00    +0.000 A 
ATOM     18  C   UNL     1       6.279   4.210  14.113  0.00  0.00    +0.000 A 
ATOM     19  N   UNL     1       7.135   5.034  14.791  0.00  0.00    +0.000 NA
ATOM     20  C   UNL     1       6.749   5.017  16.059  0.00  0.00    +0.000 A 
BRANCH  20  21
ATOM     21  C   UNL     1       7.375   5.785  17.143  0.00  0.00    +0.000 A 
ATOM     22  C   UNL     1       7.551   7.161  17.025  0.00  0.00    +0.000 A 
ATOM     23  C   UNL     1       8.032   7.870  18.121  0.00  0.00    +0.000 A 
ATOM     24  C   UNL     1       8.341   7.181  19.287  0.00  0.00    +0.000 A 
ATOM     25  C   UNL     1       8.179   5.808  19.298  0.00  0.00    +0.000 A 
ATOM     26  F   UNL     1       8.473   5.138  20.421  0.00  0.00    +0.000 F 
ATOM     27  N   UNL     1       7.707   5.092  18.259  0.00  0.00    +0.000 NA
ENDBRANCH  20  21
ENDBRANCH  15  16
ENDBRANCH   2  15
TORSDOF 5
ENDMDL
