MODEL 1
REMARK VINA RESULT:      -9.2      0.000      0.000
REMARK  Name = 
REMARK  7 active torsions:
REMARK  status: ('A' for Active; 'I' for Inactive)
REMARK    1  A    between atoms: C_1  and  N_2
REMARK    2  A    between atoms: N_2  and  C_3
REMARK    3  A    between atoms: N_2  and  S_6
REMARK    4  A    between atoms: S_6  and  C_9
REMARK    5  A    between atoms: C_12  and  C_13
REMARK    6  A    between atoms: C_16  and  N_17
REMARK    7  A    between atoms: C_18  and  C_19
REMARK                            x       y       z     vdW  Elec       q    Type
REMARK                         _______ _______ _______ _____ _____    ______ ____
ROOT
ATOM      1  C   UNL     1       0.798  10.866  19.050  0.00  0.00    +0.000 A 
ATOM      2  C   UNL     1       1.386  12.038  18.590  0.00  0.00    +0.000 A 
ATOM      3  N   UNL     1       0.831  13.278  18.662  0.00  0.00    +0.000 NA
ATOM      4  C   UNL     1      -0.396  13.395  19.205  0.00  0.00    +0.000 A 
ATOM      5  C   UNL     1      -1.125  12.301  19.691  0.00  0.00    +0.000 A 
ATOM      6  C   UNL     1      -0.480  11.044  19.605  0.00  0.00    +0.000 A 
ENDROOT
BRANCH   5   7
ATOM      7  C   UNL     1      -2.495  12.373  20.262  0.00  0.00    +0.000 A 
ATOM      8  C   UNL     1      -2.739  12.637  21.616  0.00  0.00    +0.000 A 
ATOM      9  C   UNL     1      -4.044  12.762  22.101  0.00  0.00    +0.000 A 
ATOM     10  C   UNL     1      -5.133  12.667  21.228  0.00  0.00    +0.000 A 
ATOM     11  C   UNL     1      -4.953  12.404  19.860  0.00  0.00    +0.000 A 
ATOM     12  C   UNL     1      -3.623  12.233  19.423  0.00  0.00    +0.000 A 
ATOM     13  C   UNL     1      -6.160  12.311  18.930  0.00  0.00    +0.000 C 
ATOM     14  C   UNL     1      -6.001  12.342  17.418  0.00  0.00    +0.000 C 
ATOM     15  C   UNL     1      -6.321  11.046  18.103  0.00  0.00    +0.000 C 
ATOM     16  C   UNL     1      -7.393  13.012  19.457  0.00  0.00    +0.000 C 
ATOM     17  N   UNL     1      -7.550  12.820  20.877  0.00  0.00    +0.000 N 
ATOM     18  C   UNL     1      -6.506  12.846  21.767  0.00  0.00    +0.000 C 
ATOM     19  O   UNL     1      -6.713  13.004  22.965  0.00  0.00    +0.000 OA
ATOM     20  H   UNL     1      -8.434  13.068  21.302  0.00  0.00    +0.000 HD
ENDBRANCH   5   7
BRANCH   1  24
ATOM     21  C   UNL     1       2.694   6.985  18.721  0.00  0.00    +0.000 A 
ATOM     22  C   UNL     1       2.058   7.343  19.910  0.00  0.00    +0.000 A 
ATOM     23  C   UNL     1       1.424   8.596  20.011  0.00  0.00    +0.000 A 
ATOM     24  C   UNL     1       1.436   9.525  18.948  0.00  0.00    +0.000 A 
ATOM     25  C   UNL     1       2.096   9.122  17.768  0.00  0.00    +0.000 A 
ATOM     26  C   UNL     1       2.709   7.870  17.646  0.00  0.00    +0.000 A 
BRANCH  21  27
ATOM     27  S   UNL     1       3.522   5.410  18.566  0.00  0.00    +0.000 S 
ATOM     28  O   UNL     1       4.476   5.334  19.654  0.00  0.00    +0.000 OA
ATOM     29  O   UNL     1       3.943   5.276  17.184  0.00  0.00    +0.000 OA
BRANCH  27  31
ATOM     30  C   UNL     1       2.072   3.306  17.695  0.00  0.00    +0.000 C 
ATOM     31  N   UNL     1       2.275   4.247  18.828  0.00  0.00    +0.000 NA
BRANCH  31  32
ATOM     32  C   UNL     1       2.483   3.464  20.083  0.00  0.00    +0.000 C 
ATOM     33  C   UNL     1       2.190   3.938  21.476  0.00  0.00    +0.000 C 
ATOM     34  C   UNL     1       1.277   2.946  20.824  0.00  0.00    +0.000 C 
ENDBRANCH  31  32
ENDBRANCH  27  31
ENDBRANCH  21  27
ENDBRANCH   1  24
BRANCH   4  35
ATOM     35  N   UNL     1      -0.895  14.697  19.215  0.00  0.00    +0.000 N 
ATOM     36  H   UNL     1      -0.345  15.237  18.552  0.00  0.00    +0.000 HD
ATOM     37  H   UNL     1      -0.884  15.097  20.146  0.00  0.00    +0.000 HD
ENDBRANCH   4  35
TORSDOF 6
ENDMDL
MODEL 2
REMARK VINA RESULT:      -9.1      1.247      2.186
REMARK  Name = 
REMARK  7 active torsions:
REMARK  status: ('A' for Active; 'I' for Inactive)
REMARK    1  A    between atoms: C_1  and  N_2
REMARK    2  A    between atoms: N_2  and  C_3
REMARK    3  A    between atoms: N_2  and  S_6
REMARK    4  A    between atoms: S_6  and  C_9
REMARK    5  A    between atoms: C_12  and  C_13
REMARK    6  A    between atoms: C_16  and  N_17
REMARK    7  A    between atoms: C_18  and  C_19
REMARK                            x       y       z     vdW  Elec       q    Type
REMARK                         _______ _______ _______ _____ _____    ______ ____
ROOT
ATOM      1  C   UNL     1       1.148  10.422  18.642  0.00  0.00    +0.000 A 
ATOM      2  C   UNL     1       1.872  11.607  18.556  0.00  0.00    +0.000 A 
ATOM      3  N   UNL     1       1.336  12.856  18.538  0.00  0.00    +0.000 NA
ATOM      4  C   UNL     1      -0.006  12.974  18.590  0.00  0.00    +0.000 A 
ATOM      5  C   UNL     1      -0.868  11.872  18.654  0.00  0.00    +0.000 A 
ATOM      6  C   UNL     1      -0.243  10.602  18.691  0.00  0.00    +0.000 A 
ENDROOT
BRANCH   5   7
ATOM      7  C   UNL     1      -2.352  11.949  18.674  0.00  0.00    +0.000 A 
ATOM      8  C   UNL     1      -3.147  11.544  17.593  0.00  0.00    +0.000 A 
ATOM      9  C   UNL     1      -4.541  11.570  17.675  0.00  0.00    +0.000 A 
ATOM     10  C   UNL     1      -5.171  11.965  18.862  0.00  0.00    +0.000 A 
ATOM     11  C   UNL     1      -4.428  12.382  19.979  0.00  0.00    +0.000 A 
ATOM     12  C   UNL     1      -3.026  12.389  19.835  0.00  0.00    +0.000 A 
ATOM     13  C   UNL     1      -5.143  12.801  21.261  0.00  0.00    +0.000 C 
ATOM     14  C   UNL     1      -4.390  12.955  22.574  0.00  0.00    +0.000 C 
ATOM     15  C   UNL     1      -4.832  14.178  21.827  0.00  0.00    +0.000 C 
ATOM     16  C   UNL     1      -6.545  12.248  21.390  0.00  0.00    +0.000 C 
ATOM     17  N   UNL     1      -7.242  12.265  20.129  0.00  0.00    +0.000 N 
ATOM     18  C   UNL     1      -6.654  11.943  18.931  0.00  0.00    +0.000 C 
ATOM     19  O   UNL     1      -7.342  11.656  17.958  0.00  0.00    +0.000 OA
ATOM     20  H   UNL     1      -8.242  12.109  20.129  0.00  0.00    +0.000 HD
ENDBRANCH   5   7
BRANCH   1  24
ATOM     21  C   UNL     1       3.007   6.510  18.646  0.00  0.00    +0.000 A 
ATOM     22  C   UNL     1       2.258   6.919  19.750  0.00  0.00    +0.000 A 
ATOM     23  C   UNL     1       1.638   8.182  19.741  0.00  0.00    +0.000 A 
ATOM     24  C   UNL     1       1.772   9.071  18.653  0.00  0.00    +0.000 A 
ATOM     25  C   UNL     1       2.542   8.617  17.562  0.00  0.00    +0.000 A 
ATOM     26  C   UNL     1       3.145   7.354  17.547  0.00  0.00    +0.000 A 
BRANCH  21  27
ATOM     27  S   UNL     1       3.821   4.920  18.632  0.00  0.00    +0.000 S 
ATOM     28  O   UNL     1       4.717   4.903  19.770  0.00  0.00    +0.000 OA
ATOM     29  O   UNL     1       4.309   4.695  17.284  0.00  0.00    +0.000 OA
BRANCH  27  31
ATOM     30  C   UNL     1       2.458   2.716  17.875  0.00  0.00    +0.000 C 
ATOM     31  N   UNL     1       2.547   3.788  18.901  0.00  0.00    +0.000 NA
BRANCH  31  32
ATOM     32  C   UNL     1       2.620   3.162  20.256  0.00  0.00    +0.000 C 
ATOM     33  C   UNL     1       2.158   3.786  21.541  0.00  0.00    +0.000 C 
ATOM     34  C   UNL     1       1.345   2.698  20.911  0.00  0.00    +0.000 C 
ENDBRANCH  31  32
ENDBRANCH  27  31
ENDBRANCH  21  27
ENDBRANCH   1  24
BRANCH   4  35
ATOM     35  N   UNL     1      -0.465  14.290  18.542  0.00  0.00    +0.000 N 
ATOM     36  H   UNL     1       0.042  14.761  17.798  0.00  0.00    +0.000 HD
ATOM     37  H   UNL     1      -0.366  14.755  19.436  0.00  0.00    +0.000 HD
ENDBRANCH   4  35
TORSDOF 6
ENDMDL
MODEL 3
REMARK VINA RESULT:      -8.9      0.970      2.243
REMARK  Name = 
REMARK  7 active torsions:
REMARK  status: ('A' for Active; 'I' for Inactive)
REMARK    1  A    between atoms: C_1  and  N_2
REMARK    2  A    between atoms: N_2  and  C_3
REMARK    3  A    between atoms: N_2  and  S_6
REMARK    4  A    between atoms: S_6  and  C_9
REMARK    5  A    between atoms: C_12  and  C_13
REMARK    6  A    between atoms: C_16  and  N_17
REMARK    7  A    between atoms: C_18  and  C_19
REMARK                            x       y       z     vdW  Elec       q    Type
REMARK                         _______ _______ _______ _____ _____    ______ ____
ROOT
ATOM      1  C   UNL     1       0.622  10.943  19.158  0.00  0.00    +0.000 A 
ATOM      2  C   UNL     1       1.282  12.142  18.909  0.00  0.00    +0.000 A 
ATOM      3  N   UNL     1       0.723  13.379  18.993  0.00  0.00    +0.000 NA
ATOM      4  C   UNL     1      -0.580  13.468  19.326  0.00  0.00    +0.000 A 
ATOM      5  C   UNL     1      -1.381  12.348  19.582  0.00  0.00    +0.000 A 
ATOM      6  C   UNL     1      -0.732  11.093  19.498  0.00  0.00    +0.000 A 
ENDROOT
BRANCH   5   7
ATOM      7  C   UNL     1      -2.829  12.392  19.914  0.00  0.00    +0.000 A 
ATOM      8  C   UNL     1      -3.825  11.978  19.019  0.00  0.00    +0.000 A 
ATOM      9  C   UNL     1      -5.172  11.973  19.393  0.00  0.00    +0.000 A 
ATOM     10  C   UNL     1      -5.545  12.345  20.690  0.00  0.00    +0.000 A 
ATOM     11  C   UNL     1      -4.593  12.770  21.631  0.00  0.00    +0.000 A 
ATOM     12  C   UNL     1      -3.253  12.809  21.196  0.00  0.00    +0.000 A 
ATOM     13  C   UNL     1      -5.030  13.164  23.040  0.00  0.00    +0.000 C 
ATOM     14  C   UNL     1      -4.021  13.325  24.167  0.00  0.00    +0.000 C 
ATOM     15  C   UNL     1      -4.635  14.543  23.543  0.00  0.00    +0.000 C 
ATOM     16  C   UNL     1      -6.362  12.580  23.454  0.00  0.00    +0.000 C 
ATOM     17  N   UNL     1      -7.309  12.590  22.367  0.00  0.00    +0.000 N 
ATOM     18  C   UNL     1      -6.980  12.290  21.069  0.00  0.00    +0.000 C 
ATOM     19  O   UNL     1      -7.851  11.995  20.258  0.00  0.00    +0.000 OA
ATOM     20  H   UNL     1      -8.284  12.413  22.576  0.00  0.00    +0.000 HD
ENDBRANCH   5   7
BRANCH   1  24
ATOM     21  C   UNL     1       2.536   7.073  18.807  0.00  0.00    +0.000 A 
ATOM     22  C   UNL     1       2.032   7.484  20.041  0.00  0.00    +0.000 A 
ATOM     23  C   UNL     1       1.392   8.733  20.151  0.00  0.00    +0.000 A 
ATOM     24  C   UNL     1       1.267   9.607  19.050  0.00  0.00    +0.000 A 
ATOM     25  C   UNL     1       1.797   9.152  17.824  0.00  0.00    +0.000 A 
ATOM     26  C   UNL     1       2.414   7.902  17.695  0.00  0.00    +0.000 A 
BRANCH  21  27
ATOM     27  S   UNL     1       3.368   5.502  18.637  0.00  0.00    +0.000 S 
ATOM     28  O   UNL     1       4.233   5.363  19.791  0.00  0.00    +0.000 OA
ATOM     29  O   UNL     1       3.895   5.435  17.286  0.00  0.00    +0.000 OA
BRANCH  27  31
ATOM     30  C   UNL     1       1.958   3.482  17.532  0.00  0.00    +0.000 C 
ATOM     31  N   UNL     1       2.100   4.337  18.740  0.00  0.00    +0.000 NA
BRANCH  31  32
ATOM     32  C   UNL     1       2.230   3.462  19.944  0.00  0.00    +0.000 C 
ATOM     33  C   UNL     1       2.197   3.919  21.373  0.00  0.00    +0.000 C 
ATOM     34  C   UNL     1       1.011   3.212  20.795  0.00  0.00    +0.000 C 
ENDBRANCH  31  32
ENDBRANCH  27  31
ENDBRANCH  21  27
ENDBRANCH   1  24
BRANCH   4  35
ATOM     35  N   UNL     1      -1.072  14.772  19.364  0.00  0.00    +0.000 N 
ATOM     36  H   UNL     1      -2.041  14.739  19.059  0.00  0.00    +0.000 HD
ATOM     37  H   UNL     1      -0.509  15.402  18.804  0.00  0.00    +0.000 HD
ENDBRANCH   4  35
TORSDOF 6
ENDMDL
MODEL 4
REMARK VINA RESULT:      -8.9      1.531      2.400
REMARK  Name = 
REMARK  7 active torsions:
REMARK  status: ('A' for Active; 'I' for Inactive)
REMARK    1  A    between atoms: C_1  and  N_2
REMARK    2  A    between atoms: N_2  and  C_3
REMARK    3  A    between atoms: N_2  and  S_6
REMARK    4  A    between atoms: S_6  and  C_9
REMARK    5  A    between atoms: C_12  and  C_13
REMARK    6  A    between atoms: C_16  and  N_17
REMARK    7  A    between atoms: C_18  and  C_19
REMARK                            x       y       z     vdW  Elec       q    Type
REMARK                         _______ _______ _______ _____ _____    ______ ____
ROOT
ATOM      1  C   UNL     1       0.735  10.960  19.091  0.00  0.00    +0.000 A 
ATOM      2  C   UNL     1       1.308  12.143  18.636  0.00  0.00    +0.000 A 
ATOM      3  N   UNL     1       0.734  13.373  18.710  0.00  0.00    +0.000 NA
ATOM      4  C   UNL     1      -0.497  13.470  19.250  0.00  0.00    +0.000 A 
ATOM      5  C   UNL     1      -1.211  12.364  19.729  0.00  0.00    +0.000 A 
ATOM      6  C   UNL     1      -0.547  11.117  19.641  0.00  0.00    +0.000 A 
ENDROOT
BRANCH   5   7
ATOM      7  C   UNL     1      -2.584  12.414  20.295  0.00  0.00    +0.000 A 
ATOM      8  C   UNL     1      -2.836  12.646  21.654  0.00  0.00    +0.000 A 
ATOM      9  C   UNL     1      -4.143  12.752  22.136  0.00  0.00    +0.000 A 
ATOM     10  C   UNL     1      -5.228  12.667  21.256  0.00  0.00    +0.000 A 
ATOM     11  C   UNL     1      -5.040  12.435  19.883  0.00  0.00    +0.000 A 
ATOM     12  C   UNL     1      -3.708  12.283  19.449  0.00  0.00    +0.000 A 
ATOM     13  C   UNL     1      -6.243  12.353  18.947  0.00  0.00    +0.000 C 
ATOM     14  C   UNL     1      -6.077  12.417  17.437  0.00  0.00    +0.000 C 
ATOM     15  C   UNL     1      -6.391  11.105  18.092  0.00  0.00    +0.000 C 
ATOM     16  C   UNL     1      -7.483  13.033  19.483  0.00  0.00    +0.000 C 
ATOM     17  N   UNL     1      -7.644  12.809  20.898  0.00  0.00    +0.000 N 
ATOM     18  C   UNL     1      -6.604  12.824  21.793  0.00  0.00    +0.000 C 
ATOM     19  O   UNL     1      -6.817  12.955  22.993  0.00  0.00    +0.000 OA
ATOM     20  H   UNL     1      -8.532  13.042  21.324  0.00  0.00    +0.000 HD
ENDBRANCH   5   7
BRANCH   1  24
ATOM     21  C   UNL     1       2.612   7.065  18.819  0.00  0.00    +0.000 A 
ATOM     22  C   UNL     1       2.652   7.928  17.724  0.00  0.00    +0.000 A 
ATOM     23  C   UNL     1       2.059   9.201  17.818  0.00  0.00    +0.000 A 
ATOM     24  C   UNL     1       1.394   9.629  18.987  0.00  0.00    +0.000 A 
ATOM     25  C   UNL     1       1.374   8.721  20.066  0.00  0.00    +0.000 A 
ATOM     26  C   UNL     1       1.979   7.462  19.995  0.00  0.00    +0.000 A 
BRANCH  21  27
ATOM     27  S   UNL     1       3.339   5.436  18.727  0.00  0.00    +0.000 S 
ATOM     28  O   UNL     1       2.693   4.756  17.623  0.00  0.00    +0.000 OA
ATOM     29  O   UNL     1       3.326   4.879  20.067  0.00  0.00    +0.000 OA
BRANCH  27  31
ATOM     30  C   UNL     1       5.965   5.195  19.307  0.00  0.00    +0.000 C 
ATOM     31  N   UNL     1       4.989   5.730  18.320  0.00  0.00    +0.000 NA
BRANCH  31  32
ATOM     32  C   UNL     1       5.339   5.218  16.961  0.00  0.00    +0.000 C 
ATOM     33  C   UNL     1       5.244   5.989  15.677  0.00  0.00    +0.000 C 
ATOM     34  C   UNL     1       6.586   5.733  16.289  0.00  0.00    +0.000 C 
ENDBRANCH  31  32
ENDBRANCH  27  31
ENDBRANCH  21  27
ENDBRANCH   1  24
BRANCH   4  35
ATOM     35  N   UNL     1      -1.015  14.764  19.261  0.00  0.00    +0.000 N 
ATOM     36  H   UNL     1      -1.383  14.935  20.194  0.00  0.00    +0.000 HD
ATOM     37  H   UNL     1      -1.713  14.896  18.538  0.00  0.00    +0.000 HD
ENDBRANCH   4  35
TORSDOF 6
ENDMDL
MODEL 5
REMARK VINA RESULT:      -8.8      1.839      3.359
REMARK  Name = 
REMARK  7 active torsions:
REMARK  status: ('A' for Active; 'I' for Inactive)
REMARK    1  A    between atoms: C_1  and  N_2
REMARK    2  A    between atoms: N_2  and  C_3
REMARK    3  A    between atoms: N_2  and  S_6
REMARK    4  A    between atoms: S_6  and  C_9
REMARK    5  A    between atoms: C_12  and  C_13
REMARK    6  A    between atoms: C_16  and  N_17
REMARK    7  A    between atoms: C_18  and  C_19
REMARK                            x       y       z     vdW  Elec       q    Type
REMARK                         _______ _______ _______ _____ _____    ______ ____
ROOT
ATOM      1  C   UNL     1       0.553  11.142  19.156  0.00  0.00    +0.000 A 
ATOM      2  C   UNL     1       1.169  12.329  18.776  0.00  0.00    +0.000 A 
ATOM      3  N   UNL     1       0.604  13.564  18.841  0.00  0.00    +0.000 NA
ATOM      4  C   UNL     1      -0.663  13.662  19.290  0.00  0.00    +0.000 A 
ATOM      5  C   UNL     1      -1.421  12.552  19.685  0.00  0.00    +0.000 A 
ATOM      6  C   UNL     1      -0.765  11.300  19.613  0.00  0.00    +0.000 A 
ENDROOT
BRANCH   5   7
ATOM      7  C   UNL     1      -2.832  12.604  20.149  0.00  0.00    +0.000 A 
ATOM      8  C   UNL     1      -3.913  12.240  19.335  0.00  0.00    +0.000 A 
ATOM      9  C   UNL     1      -5.219  12.239  19.830  0.00  0.00    +0.000 A 
ATOM     10  C   UNL     1      -5.467  12.565  21.169  0.00  0.00    +0.000 A 
ATOM     11  C   UNL     1      -4.425  12.939  22.034  0.00  0.00    +0.000 A 
ATOM     12  C   UNL     1      -3.130  12.976  21.480  0.00  0.00    +0.000 A 
ATOM     13  C   UNL     1      -4.725  13.283  23.491  0.00  0.00    +0.000 C 
ATOM     14  C   UNL     1      -3.615  13.384  24.526  0.00  0.00    +0.000 C 
ATOM     15  C   UNL     1      -4.261  14.635  24.008  0.00  0.00    +0.000 C 
ATOM     16  C   UNL     1      -6.024  12.701  24.003  0.00  0.00    +0.000 C 
ATOM     17  N   UNL     1      -7.066  12.768  23.009  0.00  0.00    +0.000 N 
ATOM     18  C   UNL     1      -6.862  12.515  21.676  0.00  0.00    +0.000 C 
ATOM     19  O   UNL     1      -7.808  12.265  20.937  0.00  0.00    +0.000 OA
ATOM     20  H   UNL     1      -8.021  12.597  23.299  0.00  0.00    +0.000 HD
ENDBRANCH   5   7
BRANCH   1  24
ATOM     21  C   UNL     1       2.409   7.235  18.926  0.00  0.00    +0.000 A 
ATOM     22  C   UNL     1       2.409   8.066  17.805  0.00  0.00    +0.000 A 
ATOM     23  C   UNL     1       1.824   9.343  17.885  0.00  0.00    +0.000 A 
ATOM     24  C   UNL     1       1.204   9.807  19.065  0.00  0.00    +0.000 A 
ATOM     25  C   UNL     1       1.222   8.931  20.170  0.00  0.00    +0.000 A 
ATOM     26  C   UNL     1       1.822   7.668  20.112  0.00  0.00    +0.000 A 
BRANCH  21  27
ATOM     27  S   UNL     1       3.128   5.602  18.853  0.00  0.00    +0.000 S 
ATOM     28  O   UNL     1       2.471   4.907  17.765  0.00  0.00    +0.000 OA
ATOM     29  O   UNL     1       3.123   5.066  20.202  0.00  0.00    +0.000 OA
BRANCH  27  31
ATOM     30  C   UNL     1       5.759   5.247  19.346  0.00  0.00    +0.000 C 
ATOM     31  N   UNL     1       4.776   5.882  18.428  0.00  0.00    +0.000 NA
BRANCH  31  32
ATOM     32  C   UNL     1       5.080   5.467  17.026  0.00  0.00    +0.000 C 
ATOM     33  C   UNL     1       5.083   6.363  15.822  0.00  0.00    +0.000 C 
ATOM     34  C   UNL     1       6.383   5.902  16.406  0.00  0.00    +0.000 C 
ENDBRANCH  31  32
ENDBRANCH  27  31
ENDBRANCH  21  27
ENDBRANCH   1  24
BRANCH   4  35
ATOM     35  N   UNL     1      -1.167  14.962  19.297  0.00  0.00    +0.000 N 
ATOM     36  H   UNL     1      -1.480  15.160  20.244  0.00  0.00    +0.000 HD
ATOM     37  H   UNL     1      -1.904  15.083  18.612  0.00  0.00    +0.000 HD
ENDBRANCH   4  35
TORSDOF 6
ENDMDL
MODEL 6
REMARK VINA RESULT:      -8.8      2.034      3.136
REMARK  Name = 
REMARK  7 active torsions:
REMARK  status: ('A' for Active; 'I' for Inactive)
REMARK    1  A    between atoms: C_1  and  N_2
REMARK    2  A    between atoms: N_2  and  C_3
REMARK    3  A    between atoms: N_2  and  S_6
REMARK    4  A    between atoms: S_6  and  C_9
REMARK    5  A    between atoms: C_12  and  C_13
REMARK    6  A    between atoms: C_16  and  N_17
REMARK    7  A    between atoms: C_18  and  C_19
REMARK                            x       y       z     vdW  Elec       q    Type
REMARK                         _______ _______ _______ _____ _____    ______ ____
ROOT
ATOM      1  C   UNL     1       1.074  10.467  18.695  0.00  0.00    +0.000 A 
ATOM      2  C   UNL     1       1.795  11.654  18.617  0.00  0.00    +0.000 A 
ATOM      3  N   UNL     1       1.256  12.902  18.598  0.00  0.00    +0.000 NA
ATOM      4  C   UNL     1      -0.086  13.016  18.639  0.00  0.00    +0.000 A 
ATOM      5  C   UNL     1      -0.946  11.912  18.695  0.00  0.00    +0.000 A 
ATOM      6  C   UNL     1      -0.319  10.643  18.734  0.00  0.00    +0.000 A 
ENDROOT
BRANCH   5   7
ATOM      7  C   UNL     1      -2.431  11.985  18.703  0.00  0.00    +0.000 A 
ATOM      8  C   UNL     1      -3.216  11.574  17.617  0.00  0.00    +0.000 A 
ATOM      9  C   UNL     1      -4.611  11.596  17.689  0.00  0.00    +0.000 A 
ATOM     10  C   UNL     1      -5.251  11.994  18.870  0.00  0.00    +0.000 A 
ATOM     11  C   UNL     1      -4.518  12.417  19.991  0.00  0.00    +0.000 A 
ATOM     12  C   UNL     1      -3.114  12.427  19.858  0.00  0.00    +0.000 A 
ATOM     13  C   UNL     1      -5.243  12.838  21.267  0.00  0.00    +0.000 C 
ATOM     14  C   UNL     1      -4.500  12.999  22.584  0.00  0.00    +0.000 C 
ATOM     15  C   UNL     1      -4.940  14.218  21.829  0.00  0.00    +0.000 C 
ATOM     16  C   UNL     1      -6.644  12.282  21.387  0.00  0.00    +0.000 C 
ATOM     17  N   UNL     1      -7.332  12.292  20.120  0.00  0.00    +0.000 N 
ATOM     18  C   UNL     1      -6.734  11.968  18.928  0.00  0.00    +0.000 C 
ATOM     19  O   UNL     1      -7.414  11.676  17.951  0.00  0.00    +0.000 OA
ATOM     20  H   UNL     1      -8.332  12.134  20.114  0.00  0.00    +0.000 HD
ENDBRANCH   5   7
BRANCH   1  24
ATOM     21  C   UNL     1       2.941   6.559  18.704  0.00  0.00    +0.000 A 
ATOM     22  C   UNL     1       2.221   6.982  19.821  0.00  0.00    +0.000 A 
ATOM     23  C   UNL     1       1.597   8.243  19.811  0.00  0.00    +0.000 A 
ATOM     24  C   UNL     1       1.701   9.118  18.708  0.00  0.00    +0.000 A 
ATOM     25  C   UNL     1       2.444   8.651  17.604  0.00  0.00    +0.000 A 
ATOM     26  C   UNL     1       3.049   7.389  17.591  0.00  0.00    +0.000 A 
BRANCH  21  27
ATOM     27  S   UNL     1       3.759   4.971  18.691  0.00  0.00    +0.000 S 
ATOM     28  O   UNL     1       3.063   4.154  17.718  0.00  0.00    +0.000 OA
ATOM     29  O   UNL     1       3.900   4.546  20.071  0.00  0.00    +0.000 OA
BRANCH  27  31
ATOM     30  C   UNL     1       6.395   5.326  19.159  0.00  0.00    +0.000 C 
ATOM     31  N   UNL     1       5.345   5.316  18.106  0.00  0.00    +0.000 NA
BRANCH  31  32
ATOM     32  C   UNL     1       5.761   4.387  17.012  0.00  0.00    +0.000 C 
ATOM     33  C   UNL     1       5.463   4.558  15.550  0.00  0.00    +0.000 C 
ATOM     34  C   UNL     1       6.846   4.824  16.061  0.00  0.00    +0.000 C 
ENDBRANCH  31  32
ENDBRANCH  27  31
ENDBRANCH  21  27
ENDBRANCH   1  24
BRANCH   4  35
ATOM     35  N   UNL     1      -0.549  14.331  18.590  0.00  0.00    +0.000 N 
ATOM     36  H   UNL     1      -0.112  14.835  19.357  0.00  0.00    +0.000 HD
ATOM     37  H   UNL     1      -1.561  14.374  18.623  0.00  0.00    +0.000 HD
ENDBRANCH   4  35
TORSDOF 6
ENDMDL
MODEL 7
REMARK VINA RESULT:      -8.7      1.335      1.735
REMARK  Name = 
REMARK  7 active torsions:
REMARK  status: ('A' for Active; 'I' for Inactive)
REMARK    1  A    between atoms: C_1  and  N_2
REMARK    2  A    between atoms: N_2  and  C_3
REMARK    3  A    between atoms: N_2  and  S_6
REMARK    4  A    between atoms: S_6  and  C_9
REMARK    5  A    between atoms: C_12  and  C_13
REMARK    6  A    between atoms: C_16  and  N_17
REMARK    7  A    between atoms: C_18  and  C_19
REMARK                            x       y       z     vdW  Elec       q    Type
REMARK                         _______ _______ _______ _____ _____    ______ ____
ROOT
ATOM      1  C   UNL     1       0.809  10.674  19.187  0.00  0.00    +0.000 A 
ATOM      2  C   UNL     1       1.051  11.790  18.393  0.00  0.00    +0.000 A 
ATOM      3  N   UNL     1       0.440  12.997  18.525  0.00  0.00    +0.000 NA
ATOM      4  C   UNL     1      -0.493  13.136  19.487  0.00  0.00    +0.000 A 
ATOM      5  C   UNL     1      -0.863  12.095  20.349  0.00  0.00    +0.000 A 
ATOM      6  C   UNL     1      -0.172  10.873  20.171  0.00  0.00    +0.000 A 
ENDROOT
BRANCH   5   7
ATOM      7  C   UNL     1      -1.912  12.187  21.398  0.00  0.00    +0.000 A 
ATOM      8  C   UNL     1      -1.663  11.898  22.747  0.00  0.00    +0.000 A 
ATOM      9  C   UNL     1      -2.659  12.061  23.713  0.00  0.00    +0.000 A 
ATOM     10  C   UNL     1      -3.918  12.558  23.353  0.00  0.00    +0.000 A 
ATOM     11  C   UNL     1      -4.227  12.865  22.018  0.00  0.00    +0.000 A 
ATOM     12  C   UNL     1      -3.210  12.637  21.068  0.00  0.00    +0.000 A 
ATOM     13  C   UNL     1      -5.606  13.411  21.656  0.00  0.00    +0.000 C 
ATOM     14  C   UNL     1      -5.877  14.044  20.300  0.00  0.00    +0.000 C 
ATOM     15  C   UNL     1      -6.404  12.671  20.595  0.00  0.00    +0.000 C 
ATOM     16  C   UNL     1      -6.334  14.052  22.817  0.00  0.00    +0.000 C 
ATOM     17  N   UNL     1      -6.140  13.314  24.040  0.00  0.00    +0.000 N 
ATOM     18  C   UNL     1      -4.942  12.758  24.410  0.00  0.00    +0.000 C 
ATOM     19  O   UNL     1      -4.738  12.435  25.575  0.00  0.00    +0.000 OA
ATOM     20  H   UNL     1      -6.734  13.529  24.831  0.00  0.00    +0.000 HD
ENDBRANCH   5   7
BRANCH   1  24
ATOM     21  C   UNL     1       2.847   6.892  18.633  0.00  0.00    +0.000 A 
ATOM     22  C   UNL     1       2.230   7.171  19.853  0.00  0.00    +0.000 A 
ATOM     23  C   UNL     1       1.551   8.391  20.027  0.00  0.00    +0.000 A 
ATOM     24  C   UNL     1       1.496   9.366  19.008  0.00  0.00    +0.000 A 
ATOM     25  C   UNL     1       2.139   9.043  17.794  0.00  0.00    +0.000 A 
ATOM     26  C   UNL     1       2.798   7.824  17.599  0.00  0.00    +0.000 A 
BRANCH  21  27
ATOM     27  S   UNL     1       3.732   5.361  18.386  0.00  0.00    +0.000 S 
ATOM     28  O   UNL     1       4.718   5.276  19.444  0.00  0.00    +0.000 OA
ATOM     29  O   UNL     1       4.119   5.305  16.988  0.00  0.00    +0.000 OA
BRANCH  27  31
ATOM     30  C   UNL     1       2.502   3.104  17.559  0.00  0.00    +0.000 C 
ATOM     31  N   UNL     1       2.540   4.138  18.627  0.00  0.00    +0.000 NA
BRANCH  31  32
ATOM     32  C   UNL     1       2.677   3.464  19.954  0.00  0.00    +0.000 C 
ATOM     33  C   UNL     1       2.025   3.898  21.234  0.00  0.00    +0.000 C 
ATOM     34  C   UNL     1       1.502   2.699  20.505  0.00  0.00    +0.000 C 
ENDBRANCH  31  32
ENDBRANCH  27  31
ENDBRANCH  21  27
ENDBRANCH   1  24
BRANCH   4  35
ATOM     35  N   UNL     1      -1.084  14.398  19.532  0.00  0.00    +0.000 N 
ATOM     36  H   UNL     1      -1.363  14.636  18.584  0.00  0.00    +0.000 HD
ATOM     37  H   UNL     1      -0.465  15.088  19.940  0.00  0.00    +0.000 HD
ENDBRANCH   4  35
TORSDOF 6
ENDMDL
MODEL 8
REMARK VINA RESULT:      -8.4      2.098      2.906
REMARK  Name = 
REMARK  7 active torsions:
REMARK  status: ('A' for Active; 'I' for Inactive)
REMARK    1  A    between atoms: C_1  and  N_2
REMARK    2  A    between atoms: N_2  and  C_3
REMARK    3  A    between atoms: N_2  and  S_6
REMARK    4  A    between atoms: S_6  and  C_9
REMARK    5  A    between atoms: C_12  and  C_13
REMARK    6  A    between atoms: C_16  and  N_17
REMARK    7  A    between atoms: C_18  and  C_19
REMARK                            x       y       z     vdW  Elec       q    Type
REMARK                         _______ _______ _______ _____ _____    ______ ____
ROOT
ATOM      1  C   UNL     1       1.162  10.305  19.197  0.00  0.00    +0.000 A 
ATOM      2  C   UNL     1       1.521  11.421  18.448  0.00  0.00    +0.000 A 
ATOM      3  N   UNL     1       0.993  12.666  18.590  0.00  0.00    +0.000 NA
ATOM      4  C   UNL     1       0.030  12.847  19.516  0.00  0.00    +0.000 A 
ATOM      5  C   UNL     1      -0.452  11.814  20.329  0.00  0.00    +0.000 A 
ATOM      6  C   UNL     1       0.155  10.549  20.144  0.00  0.00    +0.000 A 
ENDROOT
BRANCH   5   7
ATOM      7  C   UNL     1      -1.538  11.955  21.335  0.00  0.00    +0.000 A 
ATOM      8  C   UNL     1      -1.338  11.727  22.703  0.00  0.00    +0.000 A 
ATOM      9  C   UNL     1      -2.368  11.935  23.625  0.00  0.00    +0.000 A 
ATOM     10  C   UNL     1      -3.611  12.416  23.197  0.00  0.00    +0.000 A 
ATOM     11  C   UNL     1      -3.872  12.663  21.839  0.00  0.00    +0.000 A 
ATOM     12  C   UNL     1      -2.822  12.391  20.938  0.00  0.00    +0.000 A 
ATOM     13  C   UNL     1      -5.235  13.193  21.404  0.00  0.00    +0.000 C 
ATOM     14  C   UNL     1      -5.457  13.763  20.012  0.00  0.00    +0.000 C 
ATOM     15  C   UNL     1      -5.997  12.406  20.350  0.00  0.00    +0.000 C 
ATOM     16  C   UNL     1      -6.003  13.887  22.508  0.00  0.00    +0.000 C 
ATOM     17  N   UNL     1      -5.855  13.206  23.769  0.00  0.00    +0.000 N 
ATOM     18  C   UNL     1      -4.672  12.666  24.207  0.00  0.00    +0.000 C 
ATOM     19  O   UNL     1      -4.511  12.396  25.392  0.00  0.00    +0.000 OA
ATOM     20  H   UNL     1      -6.476  13.457  24.528  0.00  0.00    +0.000 HD
ENDBRANCH   5   7
BRANCH   1  24
ATOM     21  C   UNL     1       2.941   6.399  18.614  0.00  0.00    +0.000 A 
ATOM     22  C   UNL     1       2.348   6.711  19.838  0.00  0.00    +0.000 A 
ATOM     23  C   UNL     1       1.752   7.973  20.021  0.00  0.00    +0.000 A 
ATOM     24  C   UNL     1       1.760   8.955  19.008  0.00  0.00    +0.000 A 
ATOM     25  C   UNL     1       2.376   8.597  17.790  0.00  0.00    +0.000 A 
ATOM     26  C   UNL     1       2.951   7.338  17.586  0.00  0.00    +0.000 A 
BRANCH  21  27
ATOM     27  S   UNL     1       3.721   4.813  18.355  0.00  0.00    +0.000 S 
ATOM     28  O   UNL     1       2.978   4.153  17.300  0.00  0.00    +0.000 OA
ATOM     29  O   UNL     1       3.891   4.196  19.658  0.00  0.00    +0.000 OA
BRANCH  27  31
ATOM     30  C   UNL     1       6.360   5.154  18.813  0.00  0.00    +0.000 C 
ATOM     31  N   UNL     1       5.297   5.205  17.774  0.00  0.00    +0.000 NA
BRANCH  31  32
ATOM     32  C   UNL     1       5.704   4.352  16.617  0.00  0.00    +0.000 C 
ATOM     33  C   UNL     1       5.522   4.689  15.166  0.00  0.00    +0.000 C 
ATOM     34  C   UNL     1       6.884   4.777  15.781  0.00  0.00    +0.000 C 
ENDBRANCH  31  32
ENDBRANCH  27  31
ENDBRANCH  21  27
ENDBRANCH   1  24
BRANCH   4  35
ATOM     35  N   UNL     1      -0.468  14.148  19.574  0.00  0.00    +0.000 N 
ATOM     36  H   UNL     1       0.320  14.780  19.459  0.00  0.00    +0.000 HD
ATOM     37  H   UNL     1      -0.980  14.316  20.432  0.00  0.00    +0.000 HD
ENDBRANCH   4  35
TORSDOF 6
ENDMDL
MODEL 9
REMARK VINA RESULT:      -8.3      3.694      5.973
REMARK  Name = 
REMARK  7 active torsions:
REMARK  status: ('A' for Active; 'I' for Inactive)
REMARK    1  A    between atoms: C_1  and  N_2
REMARK    2  A    between atoms: N_2  and  C_3
REMARK    3  A    between atoms: N_2  and  S_6
REMARK    4  A    between atoms: S_6  and  C_9
REMARK    5  A    between atoms: C_12  and  C_13
REMARK    6  A    between atoms: C_16  and  N_17
REMARK    7  A    between atoms: C_18  and  C_19
REMARK                            x       y       z     vdW  Elec       q    Type
REMARK                         _______ _______ _______ _____ _____    ______ ____
ROOT
ATOM      1  C   UNL     1       1.115   8.659  20.707  0.00  0.00    +0.000 A 
ATOM      2  C   UNL     1       0.504   8.525  21.949  0.00  0.00    +0.000 A 
ATOM      3  N   UNL     1      -0.162   9.510  22.607  0.00  0.00    +0.000 NA
ATOM      4  C   UNL     1      -0.231  10.727  22.031  0.00  0.00    +0.000 A 
ATOM      5  C   UNL     1       0.357  11.021  20.794  0.00  0.00    +0.000 A 
ATOM      6  C   UNL     1       1.016   9.945  20.154  0.00  0.00    +0.000 A 
ENDROOT
BRANCH   5   7
ATOM      7  C   UNL     1       0.342  12.355  20.138  0.00  0.00    +0.000 A 
ATOM      8  C   UNL     1      -0.837  12.970  19.696  0.00  0.00    +0.000 A 
ATOM      9  C   UNL     1      -0.816  14.253  19.144  0.00  0.00    +0.000 A 
ATOM     10  C   UNL     1       0.386  14.966  19.060  0.00  0.00    +0.000 A 
ATOM     11  C   UNL     1       1.601  14.402  19.485  0.00  0.00    +0.000 A 
ATOM     12  C   UNL     1       1.542  13.087  19.988  0.00  0.00    +0.000 A 
ATOM     13  C   UNL     1       2.895  15.205  19.386  0.00  0.00    +0.000 C 
ATOM     14  C   UNL     1       4.158  14.766  20.111  0.00  0.00    +0.000 C 
ATOM     15  C   UNL     1       4.057  14.586  18.625  0.00  0.00    +0.000 C 
ATOM     16  C   UNL     1       2.684  16.702  19.321  0.00  0.00    +0.000 C 
ATOM     17  N   UNL     1       1.549  17.045  18.502  0.00  0.00    +0.000 N 
ATOM     18  C   UNL     1       0.370  16.343  18.505  0.00  0.00    +0.000 C 
ATOM     19  O   UNL     1      -0.655  16.845  18.056  0.00  0.00    +0.000 OA
ATOM     20  H   UNL     1       1.430  18.010  18.222  0.00  0.00    +0.000 HD
ENDBRANCH   5   7
BRANCH   1  24
ATOM     21  C   UNL     1       3.193   5.414  18.728  0.00  0.00    +0.000 A 
ATOM     22  C   UNL     1       3.115   6.662  18.109  0.00  0.00    +0.000 A 
ATOM     23  C   UNL     1       2.457   7.722  18.761  0.00  0.00    +0.000 A 
ATOM     24  C   UNL     1       1.842   7.556  20.020  0.00  0.00    +0.000 A 
ATOM     25  C   UNL     1       1.941   6.276  20.604  0.00  0.00    +0.000 A 
ATOM     26  C   UNL     1       2.613   5.220  19.979  0.00  0.00    +0.000 A 
BRANCH  21  27
ATOM     27  S   UNL     1       4.005   4.043  17.921  0.00  0.00    +0.000 S 
ATOM     28  O   UNL     1       3.128   3.612  16.851  0.00  0.00    +0.000 OA
ATOM     29  O   UNL     1       4.438   3.124  18.958  0.00  0.00    +0.000 OA
BRANCH  27  31
ATOM     30  C   UNL     1       6.562   4.867  18.192  0.00  0.00    +0.000 C 
ATOM     31  N   UNL     1       5.430   4.736  17.238  0.00  0.00    +0.000 NA
BRANCH  31  32
ATOM     32  C   UNL     1       5.896   3.997  16.026  0.00  0.00    +0.000 C 
ATOM     33  C   UNL     1       5.520   4.307  14.606  0.00  0.00    +0.000 C 
ATOM     34  C   UNL     1       6.887   4.663  15.105  0.00  0.00    +0.000 C 
ENDBRANCH  31  32
ENDBRANCH  27  31
ENDBRANCH  21  27
ENDBRANCH   1  24
BRANCH   4  35
ATOM     35  N   UNL     1      -0.911  11.680  22.789  0.00  0.00    +0.000 N 
ATOM     36  H   UNL     1      -0.217  12.322  23.163  0.00  0.00    +0.000 HD
ATOM     37  H   UNL     1      -1.475  11.251  23.513  0.00  0.00    +0.000 HD
ENDBRANCH   4  35
TORSDOF 6
ENDMDL
