MODEL 1
REMARK VINA RESULT:      -8.5      0.000      0.000
REMARK  Name = 
REMARK  8 active torsions:
REMARK  status: ('A' for Active; 'I' for Inactive)
REMARK    1  A    between atoms: C_1  and  O_2
REMARK    2  A    between atoms: O_2  and  C_3
REMARK    3  A    between atoms: C_6  and  C_7
REMARK    4  A    between atoms: C_12  and  C_13
REMARK    5  A    between atoms: C_14  and  C_15
REMARK    6  A    between atoms: C_15  and  O_17
REMARK    7  A    between atoms: O_17  and  C_18
REMARK    8  A    between atoms: C_18  and  C_19
REMARK                            x       y       z     vdW  Elec       q    Type
REMARK                         _______ _______ _______ _____ _____    ______ ____
ROOT
ATOM      1  C   UNL     1       4.638   4.358  19.170  0.00  0.00    +0.000 C 
ATOM      2  N   UNL     1       5.259   3.159  19.706  0.00  0.00    +0.000 N 
ATOM      3  C   UNL     1       4.638   2.266  20.509  0.00  0.00    +0.000 C 
ATOM      4  O   UNL     1       5.255   1.387  21.099  0.00  0.00    +0.000 OA
ATOM      5  N   UNL     1       3.286   2.378  20.598  0.00  0.00    +0.000 N 
ATOM      6  C   UNL     1       2.515   3.308  19.942  0.00  0.00    +0.000 C 
ATOM      7  C   UNL     1       1.034   3.177  20.176  0.00  0.00    +0.000 C 
ATOM      8  C   UNL     1       3.130   4.271  19.223  0.00  0.00    +0.000 C 
ATOM      9  H   UNL     1       6.263   3.063  19.655  0.00  0.00    +0.000 HD
ATOM     10  H   UNL     1       2.855   1.674  21.185  0.00  0.00    +0.000 HD
ENDROOT
BRANCH   1  14
ATOM     11  C   UNL     1       6.536   5.018  15.323  0.00  0.00    +0.000 A 
ATOM     12  C   UNL     1       5.582   4.010  15.473  0.00  0.00    +0.000 A 
ATOM     13  C   UNL     1       4.937   3.812  16.696  0.00  0.00    +0.000 A 
ATOM     14  C   UNL     1       5.252   4.615  17.802  0.00  0.00    +0.000 A 
ATOM     15  C   UNL     1       6.213   5.627  17.642  0.00  0.00    +0.000 A 
ATOM     16  C   UNL     1       6.850   5.828  16.413  0.00  0.00    +0.000 A 
BRANCH  11  18
ATOM     17  C   UNL     1       6.679   4.129  13.133  0.00  0.00    +0.000 C 
ATOM     18  O   UNL     1       7.126   5.079  14.091  0.00  0.00    +0.000 OA
ENDBRANCH  11  18
ENDBRANCH   1  14
BRANCH   8  19
ATOM     19  C   UNL     1       2.419   5.410  18.580  0.00  0.00    +0.000 C 
ATOM     20  O   UNL     1       1.661   5.265  17.635  0.00  0.00    +0.000 OA
BRANCH  19  21
ATOM     21  O   UNL     1       2.738   6.587  19.165  0.00  0.00    +0.000 OA
BRANCH  21  22
ATOM     22  C   UNL     1       2.688   7.751  18.334  0.00  0.00    +0.000 C 
BRANCH  22  23
ATOM     23  C   UNL     1       1.620   8.665  18.873  0.00  0.00    +0.000 A 
ATOM     24  C   UNL     1       0.936   9.556  18.035  0.00  0.00    +0.000 A 
ATOM     25  C   UNL     1      -0.051  10.398  18.553  0.00  0.00    +0.000 A 
ATOM     26  C   UNL     1      -0.355  10.363  19.913  0.00  0.00    +0.000 A 
ATOM     27  C   UNL     1       0.330   9.491  20.758  0.00  0.00    +0.000 A 
ATOM     28  C   UNL     1       1.315   8.649  20.241  0.00  0.00    +0.000 A 
ENDBRANCH  22  23
ENDBRANCH  21  22
ENDBRANCH  19  21
ENDBRANCH   8  19
TORSDOF 6
ENDMDL
MODEL 2
REMARK VINA RESULT:      -8.4      2.186      6.153
REMARK  Name = 
REMARK  8 active torsions:
REMARK  status: ('A' for Active; 'I' for Inactive)
REMARK    1  A    between atoms: C_1  and  O_2
REMARK    2  A    between atoms: O_2  and  C_3
REMARK    3  A    between atoms: C_6  and  C_7
REMARK    4  A    between atoms: C_12  and  C_13
REMARK    5  A    between atoms: C_14  and  C_15
REMARK    6  A    between atoms: C_15  and  O_17
REMARK    7  A    between atoms: O_17  and  C_18
REMARK    8  A    between atoms: C_18  and  C_19
REMARK                            x       y       z     vdW  Elec       q    Type
REMARK                         _______ _______ _______ _____ _____    ______ ____
ROOT
ATOM      1  C   UNL     1       5.261   5.652  17.950  0.00  0.00    +0.000 C 
ATOM      2  N   UNL     1       6.265   6.672  17.703  0.00  0.00    +0.000 N 
ATOM      3  C   UNL     1       7.208   6.604  16.738  0.00  0.00    +0.000 C 
ATOM      4  O   UNL     1       8.153   7.382  16.700  0.00  0.00    +0.000 OA
ATOM      5  N   UNL     1       7.030   5.645  15.792  0.00  0.00    +0.000 N 
ATOM      6  C   UNL     1       5.981   4.757  15.739  0.00  0.00    +0.000 C 
ATOM      7  C   UNL     1       5.997   3.831  14.553  0.00  0.00    +0.000 C 
ATOM      8  C   UNL     1       5.090   4.743  16.754  0.00  0.00    +0.000 C 
ATOM      9  H   UNL     1       6.415   7.388  18.400  0.00  0.00    +0.000 HD
ATOM     10  H   UNL     1       7.741   5.645  15.070  0.00  0.00    +0.000 HD
ENDROOT
BRANCH   1  14
ATOM     11  C   UNL     1       1.780   7.737  19.491  0.00  0.00    +0.000 A 
ATOM     12  C   UNL     1       2.400   8.174  18.319  0.00  0.00    +0.000 A 
ATOM     13  C   UNL     1       3.498   7.489  17.792  0.00  0.00    +0.000 A 
ATOM     14  C   UNL     1       4.007   6.357  18.446  0.00  0.00    +0.000 A 
ATOM     15  C   UNL     1       3.377   5.925  19.625  0.00  0.00    +0.000 A 
ATOM     16  C   UNL     1       2.272   6.608  20.144  0.00  0.00    +0.000 A 
BRANCH  11  18
ATOM     17  C   UNL     1       0.644   9.809  19.339  0.00  0.00    +0.000 C 
ATOM     18  O   UNL     1       0.746   8.518  19.926  0.00  0.00    +0.000 OA
ENDBRANCH  11  18
ENDBRANCH   1  14
BRANCH   8  19
ATOM     19  C   UNL     1       3.993   3.746  16.882  0.00  0.00    +0.000 C 
ATOM     20  O   UNL     1       2.901   3.895  16.355  0.00  0.00    +0.000 OA
BRANCH  19  21
ATOM     21  O   UNL     1       4.362   2.699  17.653  0.00  0.00    +0.000 OA
BRANCH  21  22
ATOM     22  C   UNL     1       3.338   1.758  17.991  0.00  0.00    +0.000 C 
BRANCH  22  23
ATOM     23  C   UNL     1       2.624   2.263  19.216  0.00  0.00    +0.000 A 
ATOM     24  C   UNL     1       1.286   2.676  19.158  0.00  0.00    +0.000 A 
ATOM     25  C   UNL     1       0.640   3.143  20.306  0.00  0.00    +0.000 A 
ATOM     26  C   UNL     1       1.329   3.210  21.516  0.00  0.00    +0.000 A 
ATOM     27  C   UNL     1       2.664   2.815  21.581  0.00  0.00    +0.000 A 
ATOM     28  C   UNL     1       3.309   2.348  20.436  0.00  0.00    +0.000 A 
ENDBRANCH  22  23
ENDBRANCH  21  22
ENDBRANCH  19  21
ENDBRANCH   8  19
TORSDOF 6
ENDMDL
MODEL 3
REMARK VINA RESULT:      -8.4      2.302      6.262
REMARK  Name = 
REMARK  8 active torsions:
REMARK  status: ('A' for Active; 'I' for Inactive)
REMARK    1  A    between atoms: C_1  and  O_2
REMARK    2  A    between atoms: O_2  and  C_3
REMARK    3  A    between atoms: C_6  and  C_7
REMARK    4  A    between atoms: C_12  and  C_13
REMARK    5  A    between atoms: C_14  and  C_15
REMARK    6  A    between atoms: C_15  and  O_17
REMARK    7  A    between atoms: O_17  and  C_18
REMARK    8  A    between atoms: C_18  and  C_19
REMARK                            x       y       z     vdW  Elec       q    Type
REMARK                         _______ _______ _______ _____ _____    ______ ____
ROOT
ATOM      1  C   UNL     1       5.267   5.653  17.959  0.00  0.00    +0.000 C 
ATOM      2  N   UNL     1       6.262   6.682  17.711  0.00  0.00    +0.000 N 
ATOM      3  C   UNL     1       7.203   6.623  16.743  0.00  0.00    +0.000 C 
ATOM      4  O   UNL     1       8.142   7.409  16.704  0.00  0.00    +0.000 OA
ATOM      5  N   UNL     1       7.030   5.663  15.796  0.00  0.00    +0.000 N 
ATOM      6  C   UNL     1       5.988   4.768  15.744  0.00  0.00    +0.000 C 
ATOM      7  C   UNL     1       6.009   3.843  14.557  0.00  0.00    +0.000 C 
ATOM      8  C   UNL     1       5.100   4.745  16.762  0.00  0.00    +0.000 C 
ATOM      9  H   UNL     1       6.408   7.398  18.408  0.00  0.00    +0.000 HD
ATOM     10  H   UNL     1       7.740   5.670  15.072  0.00  0.00    +0.000 HD
ENDROOT
BRANCH   1  14
ATOM     11  C   UNL     1       1.774   7.708  19.511  0.00  0.00    +0.000 A 
ATOM     12  C   UNL     1       2.384   8.148  18.336  0.00  0.00    +0.000 A 
ATOM     13  C   UNL     1       3.487   7.474  17.806  0.00  0.00    +0.000 A 
ATOM     14  C   UNL     1       4.009   6.347  18.459  0.00  0.00    +0.000 A 
ATOM     15  C   UNL     1       3.388   5.911  19.641  0.00  0.00    +0.000 A 
ATOM     16  C   UNL     1       2.279   6.584  20.163  0.00  0.00    +0.000 A 
BRANCH  11  18
ATOM     17  C   UNL     1       0.801   8.917  21.300  0.00  0.00    +0.000 C 
ATOM     18  O   UNL     1       0.734   8.480  19.949  0.00  0.00    +0.000 OA
ENDBRANCH  11  18
ENDBRANCH   1  14
BRANCH   8  19
ATOM     19  C   UNL     1       4.012   3.739  16.891  0.00  0.00    +0.000 C 
ATOM     20  O   UNL     1       2.917   3.881  16.369  0.00  0.00    +0.000 OA
BRANCH  19  21
ATOM     21  O   UNL     1       4.393   2.692  17.657  0.00  0.00    +0.000 OA
BRANCH  21  22
ATOM     22  C   UNL     1       3.375   1.748  18.005  0.00  0.00    +0.000 C 
BRANCH  22  23
ATOM     23  C   UNL     1       2.663   2.258  19.230  0.00  0.00    +0.000 A 
ATOM     24  C   UNL     1       3.316   2.339  20.468  0.00  0.00    +0.000 A 
ATOM     25  C   UNL     1       2.639   2.813  21.594  0.00  0.00    +0.000 A 
ATOM     26  C   UNL     1       1.303   3.200  21.494  0.00  0.00    +0.000 A 
ATOM     27  C   UNL     1       0.641   3.108  20.271  0.00  0.00    +0.000 A 
ATOM     28  C   UNL     1       1.316   2.636  19.146  0.00  0.00    +0.000 A 
ENDBRANCH  22  23
ENDBRANCH  21  22
ENDBRANCH  19  21
ENDBRANCH   8  19
TORSDOF 6
ENDMDL
MODEL 4
REMARK VINA RESULT:      -8.1      0.461      1.442
REMARK  Name = 
REMARK  8 active torsions:
REMARK  status: ('A' for Active; 'I' for Inactive)
REMARK    1  A    between atoms: C_1  and  O_2
REMARK    2  A    between atoms: O_2  and  C_3
REMARK    3  A    between atoms: C_6  and  C_7
REMARK    4  A    between atoms: C_12  and  C_13
REMARK    5  A    between atoms: C_14  and  C_15
REMARK    6  A    between atoms: C_15  and  O_17
REMARK    7  A    between atoms: O_17  and  C_18
REMARK    8  A    between atoms: C_18  and  C_19
REMARK                            x       y       z     vdW  Elec       q    Type
REMARK                         _______ _______ _______ _____ _____    ______ ____
ROOT
ATOM      1  C   UNL     1       4.709   4.355  19.208  0.00  0.00    +0.000 C 
ATOM      2  N   UNL     1       5.243   3.130  19.776  0.00  0.00    +0.000 N 
ATOM      3  C   UNL     1       4.556   2.297  20.588  0.00  0.00    +0.000 C 
ATOM      4  O   UNL     1       5.107   1.392  21.204  0.00  0.00    +0.000 OA
ATOM      5  N   UNL     1       3.214   2.497  20.655  0.00  0.00    +0.000 N 
ATOM      6  C   UNL     1       2.512   3.461  19.970  0.00  0.00    +0.000 C 
ATOM      7  C   UNL     1       1.023   3.430  20.185  0.00  0.00    +0.000 C 
ATOM      8  C   UNL     1       3.198   4.367  19.241  0.00  0.00    +0.000 C 
ATOM      9  H   UNL     1       6.240   2.969  19.741  0.00  0.00    +0.000 HD
ATOM     10  H   UNL     1       2.730   1.834  21.251  0.00  0.00    +0.000 HD
ENDROOT
BRANCH   1  14
ATOM     11  C   UNL     1       6.408   4.972  15.262  0.00  0.00    +0.000 A 
ATOM     12  C   UNL     1       6.816   5.765  16.335  0.00  0.00    +0.000 A 
ATOM     13  C   UNL     1       6.304   5.553  17.618  0.00  0.00    +0.000 A 
ATOM     14  C   UNL     1       5.356   4.544  17.843  0.00  0.00    +0.000 A 
ATOM     15  C   UNL     1       4.951   3.750  16.758  0.00  0.00    +0.000 A 
ATOM     16  C   UNL     1       5.473   3.961  15.477  0.00  0.00    +0.000 A 
BRANCH  11  18
ATOM     17  C   UNL     1       6.856   4.330  13.026  0.00  0.00    +0.000 C 
ATOM     18  O   UNL     1       6.949   5.310  14.052  0.00  0.00    +0.000 OA
ENDBRANCH  11  18
ENDBRANCH   1  14
BRANCH   8  19
ATOM     19  C   UNL     1       2.570   5.535  18.565  0.00  0.00    +0.000 C 
ATOM     20  O   UNL     1       1.898   5.428  17.552  0.00  0.00    +0.000 OA
BRANCH  19  21
ATOM     21  O   UNL     1       2.857   6.691  19.206  0.00  0.00    +0.000 OA
BRANCH  21  22
ATOM     22  C   UNL     1       2.406   7.898  18.584  0.00  0.00    +0.000 C 
BRANCH  22  23
ATOM     23  C   UNL     1       1.508   8.618  19.555  0.00  0.00    +0.000 A 
ATOM     24  C   UNL     1       1.358   8.169  20.874  0.00  0.00    +0.000 A 
ATOM     25  C   UNL     1       0.519   8.849  21.760  0.00  0.00    +0.000 A 
ATOM     26  C   UNL     1      -0.184   9.974  21.332  0.00  0.00    +0.000 A 
ATOM     27  C   UNL     1      -0.053  10.419  20.018  0.00  0.00    +0.000 A 
ATOM     28  C   UNL     1       0.785   9.742  19.133  0.00  0.00    +0.000 A 
ENDBRANCH  22  23
ENDBRANCH  21  22
ENDBRANCH  19  21
ENDBRANCH   8  19
TORSDOF 6
ENDMDL
MODEL 5
REMARK VINA RESULT:      -8.0      0.615      1.471
REMARK  Name = 
REMARK  8 active torsions:
REMARK  status: ('A' for Active; 'I' for Inactive)
REMARK    1  A    between atoms: C_1  and  O_2
REMARK    2  A    between atoms: O_2  and  C_3
REMARK    3  A    between atoms: C_6  and  C_7
REMARK    4  A    between atoms: C_12  and  C_13
REMARK    5  A    between atoms: C_14  and  C_15
REMARK    6  A    between atoms: C_15  and  O_17
REMARK    7  A    between atoms: O_17  and  C_18
REMARK    8  A    between atoms: C_18  and  C_19
REMARK                            x       y       z     vdW  Elec       q    Type
REMARK                         _______ _______ _______ _____ _____    ______ ____
ROOT
ATOM      1  C   UNL     1       4.574   4.177  18.963  0.00  0.00    +0.000 C 
ATOM      2  N   UNL     1       5.254   3.094  19.651  0.00  0.00    +0.000 N 
ATOM      3  C   UNL     1       4.646   2.194  20.456  0.00  0.00    +0.000 C 
ATOM      4  O   UNL     1       5.284   1.431  21.172  0.00  0.00    +0.000 OA
ATOM      5  N   UNL     1       3.289   2.159  20.399  0.00  0.00    +0.000 N 
ATOM      6  C   UNL     1       2.500   2.951  19.598  0.00  0.00    +0.000 C 
ATOM      7  C   UNL     1       1.024   2.670  19.691  0.00  0.00    +0.000 C 
ATOM      8  C   UNL     1       3.086   3.926  18.870  0.00  0.00    +0.000 C 
ATOM      9  H   UNL     1       6.262   3.108  19.709  0.00  0.00    +0.000 HD
ATOM     10  H   UNL     1       2.873   1.452  20.994  0.00  0.00    +0.000 HD
ENDROOT
BRANCH   1  14
ATOM     11  C   UNL     1       6.514   4.928  15.153  0.00  0.00    +0.000 A 
ATOM     12  C   UNL     1       6.907   5.630  16.294  0.00  0.00    +0.000 A 
ATOM     13  C   UNL     1       6.316   5.372  17.533  0.00  0.00    +0.000 A 
ATOM     14  C   UNL     1       5.302   4.409  17.647  0.00  0.00    +0.000 A 
ATOM     15  C   UNL     1       4.913   3.707  16.495  0.00  0.00    +0.000 A 
ATOM     16  C   UNL     1       5.513   3.963  15.258  0.00  0.00    +0.000 A 
BRANCH  11  18
ATOM     17  C   UNL     1       6.994   4.424  12.890  0.00  0.00    +0.000 C 
ATOM     18  O   UNL     1       7.136   5.305  13.996  0.00  0.00    +0.000 OA
ENDBRANCH  11  18
ENDBRANCH   1  14
BRANCH   8  19
ATOM     19  C   UNL     1       2.334   4.932  18.072  0.00  0.00    +0.000 C 
ATOM     20  O   UNL     1       1.475   4.622  17.261  0.00  0.00    +0.000 OA
BRANCH  19  21
ATOM     21  O   UNL     1       2.739   6.191  18.353  0.00  0.00    +0.000 OA
BRANCH  21  22
ATOM     22  C   UNL     1       2.428   6.688  19.659  0.00  0.00    +0.000 C 
BRANCH  22  23
ATOM     23  C   UNL     1       1.836   8.064  19.507  0.00  0.00    +0.000 A 
ATOM     24  C   UNL     1       1.155   8.682  20.565  0.00  0.00    +0.000 A 
ATOM     25  C   UNL     1       0.611   9.958  20.405  0.00  0.00    +0.000 A 
ATOM     26  C   UNL     1       0.735  10.622  19.185  0.00  0.00    +0.000 A 
ATOM     27  C   UNL     1       1.397  10.011  18.123  0.00  0.00    +0.000 A 
ATOM     28  C   UNL     1       1.942   8.736  18.282  0.00  0.00    +0.000 A 
ENDBRANCH  22  23
ENDBRANCH  21  22
ENDBRANCH  19  21
ENDBRANCH   8  19
TORSDOF 6
ENDMDL
MODEL 6
REMARK VINA RESULT:      -7.9      2.273      4.741
REMARK  Name = 
REMARK  8 active torsions:
REMARK  status: ('A' for Active; 'I' for Inactive)
REMARK    1  A    between atoms: C_1  and  O_2
REMARK    2  A    between atoms: O_2  and  C_3
REMARK    3  A    between atoms: C_6  and  C_7
REMARK    4  A    between atoms: C_12  and  C_13
REMARK    5  A    between atoms: C_14  and  C_15
REMARK    6  A    between atoms: C_15  and  O_17
REMARK    7  A    between atoms: O_17  and  C_18
REMARK    8  A    between atoms: C_18  and  C_19
REMARK                            x       y       z     vdW  Elec       q    Type
REMARK                         _______ _______ _______ _____ _____    ______ ____
ROOT
ATOM      1  C   UNL     1       5.341   4.886  17.247  0.00  0.00    +0.000 C 
ATOM      2  N   UNL     1       6.485   4.150  17.757  0.00  0.00    +0.000 N 
ATOM      3  C   UNL     1       7.742   4.642  17.833  0.00  0.00    +0.000 C 
ATOM      4  O   UNL     1       8.705   3.924  18.074  0.00  0.00    +0.000 OA
ATOM      5  N   UNL     1       7.873   5.984  17.661  0.00  0.00    +0.000 N 
ATOM      6  C   UNL     1       6.844   6.865  17.425  0.00  0.00    +0.000 C 
ATOM      7  C   UNL     1       7.259   8.308  17.325  0.00  0.00    +0.000 C 
ATOM      8  C   UNL     1       5.599   6.375  17.240  0.00  0.00    +0.000 C 
ATOM      9  H   UNL     1       6.408   3.151  17.884  0.00  0.00    +0.000 HD
ATOM     10  H   UNL     1       8.825   6.317  17.754  0.00  0.00    +0.000 HD
ENDROOT
BRANCH   1  14
ATOM     11  C   UNL     1       1.906   3.383  19.434  0.00  0.00    +0.000 A 
ATOM     12  C   UNL     1       2.955   4.005  20.113  0.00  0.00    +0.000 A 
ATOM     13  C   UNL     1       4.049   4.526  19.417  0.00  0.00    +0.000 A 
ATOM     14  C   UNL     1       4.117   4.416  18.020  0.00  0.00    +0.000 A 
ATOM     15  C   UNL     1       3.057   3.789  17.345  0.00  0.00    +0.000 A 
ATOM     16  C   UNL     1       1.960   3.277  18.045  0.00  0.00    +0.000 A 
BRANCH  11  18
ATOM     17  C   UNL     1       1.282   2.587  21.575  0.00  0.00    +0.000 C 
ATOM     18  O   UNL     1       0.918   2.877  20.232  0.00  0.00    +0.000 OA
ENDBRANCH  11  18
ENDBRANCH   1  14
BRANCH   8  19
ATOM     19  C   UNL     1       4.429   7.207  16.846  0.00  0.00    +0.000 C 
ATOM     20  O   UNL     1       4.154   7.447  15.680  0.00  0.00    +0.000 OA
BRANCH  19  21
ATOM     21  O   UNL     1       3.752   7.653  17.927  0.00  0.00    +0.000 OA
BRANCH  21  22
ATOM     22  C   UNL     1       2.612   8.480  17.673  0.00  0.00    +0.000 C 
BRANCH  22  23
ATOM     23  C   UNL     1       1.814   8.581  18.946  0.00  0.00    +0.000 A 
ATOM     24  C   UNL     1       0.904   9.627  19.151  0.00  0.00    +0.000 A 
ATOM     25  C   UNL     1       0.174   9.705  20.340  0.00  0.00    +0.000 A 
ATOM     26  C   UNL     1       0.356   8.747  21.336  0.00  0.00    +0.000 A 
ATOM     27  C   UNL     1       1.270   7.712  21.147  0.00  0.00    +0.000 A 
ATOM     28  C   UNL     1       1.999   7.632  19.961  0.00  0.00    +0.000 A 
ENDBRANCH  22  23
ENDBRANCH  21  22
ENDBRANCH  19  21
ENDBRANCH   8  19
TORSDOF 6
ENDMDL
MODEL 7
REMARK VINA RESULT:      -7.9      2.266      4.680
REMARK  Name = 
REMARK  8 active torsions:
REMARK  status: ('A' for Active; 'I' for Inactive)
REMARK    1  A    between atoms: C_1  and  O_2
REMARK    2  A    between atoms: O_2  and  C_3
REMARK    3  A    between atoms: C_6  and  C_7
REMARK    4  A    between atoms: C_12  and  C_13
REMARK    5  A    between atoms: C_14  and  C_15
REMARK    6  A    between atoms: C_15  and  O_17
REMARK    7  A    between atoms: O_17  and  C_18
REMARK    8  A    between atoms: C_18  and  C_19
REMARK                            x       y       z     vdW  Elec       q    Type
REMARK                         _______ _______ _______ _____ _____    ______ ____
ROOT
ATOM      1  C   UNL     1       6.116   5.028  17.866  0.00  0.00    +0.000 C 
ATOM      2  N   UNL     1       7.041   4.648  18.920  0.00  0.00    +0.000 N 
ATOM      3  C   UNL     1       8.126   5.366  19.285  0.00  0.00    +0.000 C 
ATOM      4  O   UNL     1       8.984   4.909  20.030  0.00  0.00    +0.000 OA
ATOM      5  N   UNL     1       8.194   6.636  18.805  0.00  0.00    +0.000 N 
ATOM      6  C   UNL     1       7.259   7.238  17.996  0.00  0.00    +0.000 C 
ATOM      7  C   UNL     1       7.553   8.673  17.652  0.00  0.00    +0.000 C 
ATOM      8  C   UNL     1       6.226   6.499  17.538  0.00  0.00    +0.000 C 
ATOM      9  H   UNL     1       7.008   3.706  19.283  0.00  0.00    +0.000 HD
ATOM     10  H   UNL     1       9.007   7.151  19.124  0.00  0.00    +0.000 HD
ENDROOT
BRANCH   1  14
ATOM     11  C   UNL     1       2.248   3.441  19.033  0.00  0.00    +0.000 A 
ATOM     12  C   UNL     1       2.996   4.202  19.932  0.00  0.00    +0.000 A 
ATOM     13  C   UNL     1       4.226   4.750  19.557  0.00  0.00    +0.000 A 
ATOM     14  C   UNL     1       4.736   4.528  18.269  0.00  0.00    +0.000 A 
ATOM     15  C   UNL     1       3.977   3.761  17.371  0.00  0.00    +0.000 A 
ATOM     16  C   UNL     1       2.742   3.222  17.748  0.00  0.00    +0.000 A 
BRANCH  11  18
ATOM     17  C   UNL     1       0.966   2.911  20.952  0.00  0.00    +0.000 C 
ATOM     18  O   UNL     1       1.086   2.925  19.536  0.00  0.00    +0.000 OA
ENDBRANCH  11  18
ENDBRANCH   1  14
BRANCH   8  19
ATOM     19  C   UNL     1       5.225   6.992  16.552  0.00  0.00    +0.000 C 
ATOM     20  O   UNL     1       5.271   6.705  15.366  0.00  0.00    +0.000 OA
BRANCH  19  21
ATOM     21  O   UNL     1       4.303   7.789  17.138  0.00  0.00    +0.000 OA
BRANCH  21  22
ATOM     22  C   UNL     1       2.976   7.264  17.243  0.00  0.00    +0.000 C 
BRANCH  22  23
ATOM     23  C   UNL     1       2.217   8.105  18.235  0.00  0.00    +0.000 A 
ATOM     24  C   UNL     1       1.639   9.326  17.860  0.00  0.00    +0.000 A 
ATOM     25  C   UNL     1       0.940  10.093  18.794  0.00  0.00    +0.000 A 
ATOM     26  C   UNL     1       0.822   9.653  20.112  0.00  0.00    +0.000 A 
ATOM     27  C   UNL     1       1.406   8.448  20.498  0.00  0.00    +0.000 A 
ATOM     28  C   UNL     1       2.103   7.680  19.566  0.00  0.00    +0.000 A 
ENDBRANCH  22  23
ENDBRANCH  21  22
ENDBRANCH  19  21
ENDBRANCH   8  19
TORSDOF 6
ENDMDL
MODEL 8
REMARK VINA RESULT:      -7.9      2.286      6.200
REMARK  Name = 
REMARK  8 active torsions:
REMARK  status: ('A' for Active; 'I' for Inactive)
REMARK    1  A    between atoms: C_1  and  O_2
REMARK    2  A    between atoms: O_2  and  C_3
REMARK    3  A    between atoms: C_6  and  C_7
REMARK    4  A    between atoms: C_12  and  C_13
REMARK    5  A    between atoms: C_14  and  C_15
REMARK    6  A    between atoms: C_15  and  O_17
REMARK    7  A    between atoms: O_17  and  C_18
REMARK    8  A    between atoms: C_18  and  C_19
REMARK                            x       y       z     vdW  Elec       q    Type
REMARK                         _______ _______ _______ _____ _____    ______ ____
ROOT
ATOM      1  C   UNL     1       5.344   5.574  17.969  0.00  0.00    +0.000 C 
ATOM      2  N   UNL     1       6.346   6.593  17.706  0.00  0.00    +0.000 N 
ATOM      3  C   UNL     1       7.215   6.567  16.672  0.00  0.00    +0.000 C 
ATOM      4  O   UNL     1       8.168   7.334  16.608  0.00  0.00    +0.000 OA
ATOM      5  N   UNL     1       6.951   5.667  15.688  0.00  0.00    +0.000 N 
ATOM      6  C   UNL     1       5.885   4.798  15.663  0.00  0.00    +0.000 C 
ATOM      7  C   UNL     1       5.797   3.942  14.429  0.00  0.00    +0.000 C 
ATOM      8  C   UNL     1       5.071   4.738  16.739  0.00  0.00    +0.000 C 
ATOM      9  H   UNL     1       6.560   7.265  18.429  0.00  0.00    +0.000 HD
ATOM     10  H   UNL     1       7.607   5.698  14.917  0.00  0.00    +0.000 HD
ENDROOT
BRANCH   1  14
ATOM     11  C   UNL     1       1.817   7.475  19.636  0.00  0.00    +0.000 A 
ATOM     12  C   UNL     1       2.405   6.389  20.287  0.00  0.00    +0.000 A 
ATOM     13  C   UNL     1       3.562   5.792  19.780  0.00  0.00    +0.000 A 
ATOM     14  C   UNL     1       4.143   6.266  18.595  0.00  0.00    +0.000 A 
ATOM     15  C   UNL     1       3.545   7.360  17.947  0.00  0.00    +0.000 A 
ATOM     16  C   UNL     1       2.392   7.960  18.463  0.00  0.00    +0.000 A 
BRANCH  11  18
ATOM     17  C   UNL     1       0.823   8.871  21.270  0.00  0.00    +0.000 C 
ATOM     18  O   UNL     1       0.666   7.940  20.208  0.00  0.00    +0.000 OA
ENDBRANCH  11  18
ENDBRANCH   1  14
BRANCH   8  19
ATOM     19  C   UNL     1       3.968   3.750  16.892  0.00  0.00    +0.000 C 
ATOM     20  O   UNL     1       2.871   3.902  16.376  0.00  0.00    +0.000 OA
BRANCH  19  21
ATOM     21  O   UNL     1       4.340   2.709  17.669  0.00  0.00    +0.000 OA
BRANCH  21  22
ATOM     22  C   UNL     1       3.324   1.753  17.990  0.00  0.00    +0.000 C 
BRANCH  22  23
ATOM     23  C   UNL     1       2.615   2.223  19.233  0.00  0.00    +0.000 A 
ATOM     24  C   UNL     1       1.277   2.637  19.194  0.00  0.00    +0.000 A 
ATOM     25  C   UNL     1       0.637   3.071  20.357  0.00  0.00    +0.000 A 
ATOM     26  C   UNL     1       1.331   3.105  21.565  0.00  0.00    +0.000 A 
ATOM     27  C   UNL     1       2.667   2.709  21.612  0.00  0.00    +0.000 A 
ATOM     28  C   UNL     1       3.307   2.275  20.452  0.00  0.00    +0.000 A 
ENDBRANCH  22  23
ENDBRANCH  21  22
ENDBRANCH  19  21
ENDBRANCH   8  19
TORSDOF 6
ENDMDL
MODEL 9
REMARK VINA RESULT:      -7.8      3.281      7.007
REMARK  Name = 
REMARK  8 active torsions:
REMARK  status: ('A' for Active; 'I' for Inactive)
REMARK    1  A    between atoms: C_1  and  O_2
REMARK    2  A    between atoms: O_2  and  C_3
REMARK    3  A    between atoms: C_6  and  C_7
REMARK    4  A    between atoms: C_12  and  C_13
REMARK    5  A    between atoms: C_14  and  C_15
REMARK    6  A    between atoms: C_15  and  O_17
REMARK    7  A    between atoms: O_17  and  C_18
REMARK    8  A    between atoms: C_18  and  C_19
REMARK                            x       y       z     vdW  Elec       q    Type
REMARK                         _______ _______ _______ _____ _____    ______ ____
ROOT
ATOM      1  C   UNL     1       6.265   4.840  17.827  0.00  0.00    +0.000 C 
ATOM      2  N   UNL     1       6.750   4.703  19.189  0.00  0.00    +0.000 N 
ATOM      3  C   UNL     1       7.707   5.480  19.745  0.00  0.00    +0.000 C 
ATOM      4  O   UNL     1       8.226   5.199  20.818  0.00  0.00    +0.000 OA
ATOM      5  N   UNL     1       8.034   6.609  19.062  0.00  0.00    +0.000 N 
ATOM      6  C   UNL     1       7.475   7.017  17.874  0.00  0.00    +0.000 C 
ATOM      7  C   UNL     1       7.983   8.336  17.358  0.00  0.00    +0.000 C 
ATOM      8  C   UNL     1       6.598   6.198  17.255  0.00  0.00    +0.000 C 
ATOM      9  H   UNL     1       6.522   3.867  19.708  0.00  0.00    +0.000 HD
ATOM     10  H   UNL     1       8.732   7.179  19.525  0.00  0.00    +0.000 HD
ENDROOT
BRANCH   1  14
ATOM     11  C   UNL     1       2.108   3.594  17.934  0.00  0.00    +0.000 A 
ATOM     12  C   UNL     1       2.523   4.724  18.640  0.00  0.00    +0.000 A 
ATOM     13  C   UNL     1       3.850   5.157  18.584  0.00  0.00    +0.000 A 
ATOM     14  C   UNL     1       4.794   4.449  17.827  0.00  0.00    +0.000 A 
ATOM     15  C   UNL     1       4.369   3.313  17.118  0.00  0.00    +0.000 A 
ATOM     16  C   UNL     1       3.037   2.888  17.170  0.00  0.00    +0.000 A 
BRANCH  11  18
ATOM     17  C   UNL     1       0.504   2.437  19.236  0.00  0.00    +0.000 C 
ATOM     18  O   UNL     1       0.797   3.250  18.107  0.00  0.00    +0.000 OA
ENDBRANCH  11  18
ENDBRANCH   1  14
BRANCH   8  19
ATOM     19  C   UNL     1       6.028   6.461  15.905  0.00  0.00    +0.000 C 
ATOM     20  O   UNL     1       4.956   7.023  15.740  0.00  0.00    +0.000 OA
BRANCH  19  21
ATOM     21  O   UNL     1       6.833   5.990  14.927  0.00  0.00    +0.000 OA
BRANCH  21  22
ATOM     22  C   UNL     1       7.076   4.579  14.920  0.00  0.00    +0.000 C 
BRANCH  22  23
ATOM     23  C   UNL     1       6.431   3.999  13.689  0.00  0.00    +0.000 A 
ATOM     24  C   UNL     1       5.036   3.932  13.564  0.00  0.00    +0.000 A 
ATOM     25  C   UNL     1       4.456   3.389  12.415  0.00  0.00    +0.000 A 
ATOM     26  C   UNL     1       5.263   2.901  11.388  0.00  0.00    +0.000 A 
ATOM     27  C   UNL     1       6.650   2.950  11.510  0.00  0.00    +0.000 A 
ATOM     28  C   UNL     1       7.231   3.492  12.656  0.00  0.00    +0.000 A 
ENDBRANCH  22  23
ENDBRANCH  21  22
ENDBRANCH  19  21
ENDBRANCH   8  19
TORSDOF 6
ENDMDL
