MODEL 1
REMARK VINA RESULT:      -7.0      0.000      0.000
REMARK  Name = 
REMARK  8 active torsions:
REMARK  status: ('A' for Active; 'I' for Inactive)
REMARK    1  A    between atoms: C_2  and  C_3
REMARK    2  A    between atoms: C_3  and  N_4
REMARK    3  A    between atoms: C_9  and  O_10
REMARK    4  A    between atoms: O_10  and  C_11
REMARK    5  A    between atoms: N_13  and  C_14
REMARK    6  A    between atoms: C_17  and  O_18
REMARK    7  A    between atoms: O_18  and  C_19
REMARK    8  A    between atoms: C_22  and  C_23
REMARK                            x       y       z     vdW  Elec       q    Type
REMARK                         _______ _______ _______ _____ _____    ______ ____
ROOT
ATOM      1  N   UNL     1       5.575   4.256  16.609  0.00  0.00    +0.000 N 
ATOM      2  C   UNL     1       6.712   5.033  16.406  0.00  0.00    +0.000 C 
ATOM      3  C   UNL     1       7.364   5.726  17.345  0.00  0.00    +0.000 C 
ATOM      4  C   UNL     1       6.834   5.711  18.722  0.00  0.00    +0.000 C 
ATOM      5  O   UNL     1       7.506   6.229  19.613  0.00  0.00    +0.000 OA
ATOM      6  C   UNL     1       5.428   5.163  18.945  0.00  0.00    +0.000 C 
ATOM      7  C   UNL     1       5.200   3.924  18.023  0.00  0.00    +0.000 C 
ENDROOT
BRANCH   7   8
ATOM      8  C   UNL     1       3.761   3.419  18.170  0.00  0.00    +0.000 A 
ATOM      9  C   UNL     1       2.758   3.940  17.321  0.00  0.00    +0.000 A 
ATOM     10  C   UNL     1       1.418   3.576  17.450  0.00  0.00    +0.000 A 
ATOM     11  C   UNL     1       1.049   2.643  18.408  0.00  0.00    +0.000 A 
ATOM     12  C   UNL     1       2.020   2.085  19.239  0.00  0.00    +0.000 A 
ATOM     13  C   UNL     1       3.362   2.479  19.136  0.00  0.00    +0.000 A 
ATOM     14 BR   UNL     1       4.568   1.681  20.369  0.00  0.00    +0.000 Br
ENDBRANCH   7   8
BRANCH   1  15
ATOM     15  C   UNL     1       5.074   3.394  15.525  0.00  0.00    +0.000 C 
BRANCH  15  17
ATOM     16  C   UNL     1       6.322   3.881  13.215  0.00  0.00    +0.000 C 
ATOM     17  C   UNL     1       5.717   3.658  14.230  0.00  0.00    +0.000 C 
ENDBRANCH  15  17
ENDBRANCH   1  15
BRANCH   6  18
ATOM     18  O   UNL     1       4.524   6.231  18.591  0.00  0.00    +0.000 OA
BRANCH  18  19
ATOM     19  C   UNL     1       3.483   6.449  19.426  0.00  0.00    +0.000 C 
ATOM     20  O   UNL     1       3.207   5.741  20.380  0.00  0.00    +0.000 OA
ATOM     21  N   UNL     1       2.825   7.558  18.979  0.00  0.00    +0.000 N 
ATOM     22  H   UNL     1       3.117   7.878  18.066  0.00  0.00    +0.000 HD
BRANCH  21  23
ATOM     23  C   UNL     1       1.845   8.295  19.659  0.00  0.00    +0.000 A 
ATOM     24  C   UNL     1       1.512   8.060  20.993  0.00  0.00    +0.000 A 
ATOM     25  C   UNL     1       0.570   8.866  21.636  0.00  0.00    +0.000 A 
ATOM     26  C   UNL     1      -0.043   9.917  20.958  0.00  0.00    +0.000 A 
ATOM     27  C   UNL     1       0.269  10.144  19.617  0.00  0.00    +0.000 A 
ATOM     28  C   UNL     1       1.220   9.343  18.974  0.00  0.00    +0.000 A 
BRANCH  26  29
ATOM     29  O   UNL     1      -0.949  10.632  21.688  0.00  0.00    +0.000 OA
ATOM     30  C   UNL     1      -0.945  10.375  23.086  0.00  0.00    +0.000 C 
ENDBRANCH  26  29
ENDBRANCH  21  23
ENDBRANCH  18  19
ENDBRANCH   6  18
TORSDOF 7
ENDMDL
MODEL 2
REMARK VINA RESULT:      -7.0      2.016      4.536
REMARK  Name = 
REMARK  8 active torsions:
REMARK  status: ('A' for Active; 'I' for Inactive)
REMARK    1  A    between atoms: C_2  and  C_3
REMARK    2  A    between atoms: C_3  and  N_4
REMARK    3  A    between atoms: C_9  and  O_10
REMARK    4  A    between atoms: O_10  and  C_11
REMARK    5  A    between atoms: N_13  and  C_14
REMARK    6  A    between atoms: C_17  and  O_18
REMARK    7  A    between atoms: O_18  and  C_19
REMARK    8  A    between atoms: C_22  and  C_23
REMARK                            x       y       z     vdW  Elec       q    Type
REMARK                         _______ _______ _______ _____ _____    ______ ____
ROOT
ATOM      1  N   UNL     1       3.726   2.601  18.708  0.00  0.00    +0.000 N 
ATOM      2  C   UNL     1       2.416   2.148  18.844  0.00  0.00    +0.000 C 
ATOM      3  C   UNL     1       1.326   2.751  18.361  0.00  0.00    +0.000 C 
ATOM      4  C   UNL     1       1.493   4.031  17.645  0.00  0.00    +0.000 C 
ATOM      5  O   UNL     1       0.513   4.516  17.080  0.00  0.00    +0.000 OA
ATOM      6  C   UNL     1       2.838   4.743  17.749  0.00  0.00    +0.000 C 
ATOM      7  C   UNL     1       3.988   3.689  17.711  0.00  0.00    +0.000 C 
ENDROOT
BRANCH   7   8
ATOM      8  C   UNL     1       5.341   4.383  17.906  0.00  0.00    +0.000 A 
ATOM      9  C   UNL     1       5.705   4.832  19.196  0.00  0.00    +0.000 A 
ATOM     10  C   UNL     1       6.888   5.532  19.428  0.00  0.00    +0.000 A 
ATOM     11  C   UNL     1       7.764   5.767  18.378  0.00  0.00    +0.000 A 
ATOM     12  C   UNL     1       7.450   5.307  17.100  0.00  0.00    +0.000 A 
ATOM     13  C   UNL     1       6.242   4.636  16.857  0.00  0.00    +0.000 A 
ATOM     14 BR   UNL     1       5.916   4.117  15.058  0.00  0.00    +0.000 Br
ENDBRANCH   7   8
BRANCH   1  15
ATOM     15  C   UNL     1       4.846   1.738  19.123  0.00  0.00    +0.000 C 
BRANCH  15  17
ATOM     16  C   UNL     1       4.891   1.203  21.739  0.00  0.00    +0.000 C 
ATOM     17  C   UNL     1       4.881   1.491  20.572  0.00  0.00    +0.000 C 
ENDBRANCH  15  17
ENDBRANCH   1  15
BRANCH   6  18
ATOM     18  O   UNL     1       2.825   5.433  19.016  0.00  0.00    +0.000 OA
BRANCH  18  19
ATOM     19  C   UNL     1       2.597   6.766  18.980  0.00  0.00    +0.000 C 
ATOM     20  O   UNL     1       2.860   7.483  18.029  0.00  0.00    +0.000 OA
ATOM     21  N   UNL     1       2.063   7.123  20.185  0.00  0.00    +0.000 N 
ATOM     22  H   UNL     1       2.105   6.401  20.890  0.00  0.00    +0.000 HD
BRANCH  21  23
ATOM     23  C   UNL     1       1.448   8.339  20.514  0.00  0.00    +0.000 A 
ATOM     24  C   UNL     1       1.068   9.277  19.554  0.00  0.00    +0.000 A 
ATOM     25  C   UNL     1       0.403  10.444  19.937  0.00  0.00    +0.000 A 
ATOM     26  C   UNL     1       0.105  10.683  21.276  0.00  0.00    +0.000 A 
ATOM     27  C   UNL     1       0.502   9.760  22.243  0.00  0.00    +0.000 A 
ATOM     28  C   UNL     1       1.160   8.584  21.860  0.00  0.00    +0.000 A 
BRANCH  26  29
ATOM     29  O   UNL     1      -0.542  11.860  21.529  0.00  0.00    +0.000 OA
ATOM     30  C   UNL     1       0.244  13.034  21.374  0.00  0.00    +0.000 C 
ENDBRANCH  26  29
ENDBRANCH  21  23
ENDBRANCH  18  19
ENDBRANCH   6  18
TORSDOF 7
ENDMDL
MODEL 3
REMARK VINA RESULT:      -6.7      4.045      8.910
REMARK  Name = 
REMARK  8 active torsions:
REMARK  status: ('A' for Active; 'I' for Inactive)
REMARK    1  A    between atoms: C_2  and  C_3
REMARK    2  A    between atoms: C_3  and  N_4
REMARK    3  A    between atoms: C_9  and  O_10
REMARK    4  A    between atoms: O_10  and  C_11
REMARK    5  A    between atoms: N_13  and  C_14
REMARK    6  A    between atoms: C_17  and  O_18
REMARK    7  A    between atoms: O_18  and  C_19
REMARK    8  A    between atoms: C_22  and  C_23
REMARK                            x       y       z     vdW  Elec       q    Type
REMARK                         _______ _______ _______ _____ _____    ______ ____
ROOT
ATOM      1  N   UNL     1       1.234  12.916  19.529  0.00  0.00    +0.000 N 
ATOM      2  C   UNL     1       2.313  12.626  18.699  0.00  0.00    +0.000 C 
ATOM      3  C   UNL     1       2.477  11.504  17.992  0.00  0.00    +0.000 C 
ATOM      4  C   UNL     1       1.455  10.446  18.110  0.00  0.00    +0.000 C 
ATOM      5  O   UNL     1       1.530   9.475  17.358  0.00  0.00    +0.000 OA
ATOM      6  C   UNL     1       0.435  10.554  19.239  0.00  0.00    +0.000 C 
ATOM      7  C   UNL     1       0.017  12.046  19.420  0.00  0.00    +0.000 C 
ENDROOT
BRANCH   7   8
ATOM      8  C   UNL     1      -0.938  12.182  20.611  0.00  0.00    +0.000 A 
ATOM      9  C   UNL     1      -0.403  12.265  21.917  0.00  0.00    +0.000 A 
ATOM     10  C   UNL     1      -1.218  12.318  23.047  0.00  0.00    +0.000 A 
ATOM     11  C   UNL     1      -2.598  12.333  22.899  0.00  0.00    +0.000 A 
ATOM     12  C   UNL     1      -3.156  12.286  21.623  0.00  0.00    +0.000 A 
ATOM     13  C   UNL     1      -2.339  12.194  20.486  0.00  0.00    +0.000 A 
ATOM     14 BR   UNL     1      -3.234  12.080  18.814  0.00  0.00    +0.000 Br
ENDBRANCH   7   8
BRANCH   1  15
ATOM     15  C   UNL     1       1.088  14.268  20.096  0.00  0.00    +0.000 C 
BRANCH  15  17
ATOM     16  C   UNL     1       1.878  16.248  18.488  0.00  0.00    +0.000 C 
ATOM     17  C   UNL     1       1.559  15.328  19.194  0.00  0.00    +0.000 C 
ENDBRANCH  15  17
ENDBRANCH   1  15
BRANCH   6  18
ATOM     18  O   UNL     1       1.101  10.067  20.423  0.00  0.00    +0.000 OA
BRANCH  18  19
ATOM     19  C   UNL     1       0.971   8.749  20.696  0.00  0.00    +0.000 C 
ATOM     20  O   UNL     1       0.141   8.283  21.459  0.00  0.00    +0.000 OA
ATOM     21  N   UNL     1       1.934   8.087  19.990  0.00  0.00    +0.000 N 
ATOM     22  H   UNL     1       2.629   8.688  19.569  0.00  0.00    +0.000 HD
BRANCH  21  23
ATOM     23  C   UNL     1       2.028   6.706  19.770  0.00  0.00    +0.000 A 
ATOM     24  C   UNL     1       2.412   6.161  18.545  0.00  0.00    +0.000 A 
ATOM     25  C   UNL     1       2.547   4.779  18.401  0.00  0.00    +0.000 A 
ATOM     26  C   UNL     1       2.306   3.928  19.477  0.00  0.00    +0.000 A 
ATOM     27  C   UNL     1       1.899   4.465  20.698  0.00  0.00    +0.000 A 
ATOM     28  C   UNL     1       1.774   5.852  20.847  0.00  0.00    +0.000 A 
BRANCH  26  29
ATOM     29  O   UNL     1       2.465   2.597  19.215  0.00  0.00    +0.000 OA
ATOM     30  C   UNL     1       2.677   2.265  17.849  0.00  0.00    +0.000 C 
ENDBRANCH  26  29
ENDBRANCH  21  23
ENDBRANCH  18  19
ENDBRANCH   6  18
TORSDOF 7
ENDMDL
MODEL 4
REMARK VINA RESULT:      -6.5      0.630      1.133
REMARK  Name = 
REMARK  8 active torsions:
REMARK  status: ('A' for Active; 'I' for Inactive)
REMARK    1  A    between atoms: C_2  and  C_3
REMARK    2  A    between atoms: C_3  and  N_4
REMARK    3  A    between atoms: C_9  and  O_10
REMARK    4  A    between atoms: O_10  and  C_11
REMARK    5  A    between atoms: N_13  and  C_14
REMARK    6  A    between atoms: C_17  and  O_18
REMARK    7  A    between atoms: O_18  and  C_19
REMARK    8  A    between atoms: C_22  and  C_23
REMARK                            x       y       z     vdW  Elec       q    Type
REMARK                         _______ _______ _______ _____ _____    ______ ____
ROOT
ATOM      1  N   UNL     1       5.566   4.331  16.343  0.00  0.00    +0.000 N 
ATOM      2  C   UNL     1       6.676   5.118  16.051  0.00  0.00    +0.000 C 
ATOM      3  C   UNL     1       7.333   5.896  16.917  0.00  0.00    +0.000 C 
ATOM      4  C   UNL     1       6.838   5.972  18.305  0.00  0.00    +0.000 C 
ATOM      5  O   UNL     1       7.518   6.573  19.136  0.00  0.00    +0.000 OA
ATOM      6  C   UNL     1       5.453   5.407  18.607  0.00  0.00    +0.000 C 
ATOM      7  C   UNL     1       5.236   4.098  17.788  0.00  0.00    +0.000 C 
ENDROOT
BRANCH   7   8
ATOM      8  C   UNL     1       3.815   3.569  18.011  0.00  0.00    +0.000 A 
ATOM      9  C   UNL     1       2.767   4.041  17.188  0.00  0.00    +0.000 A 
ATOM     10  C   UNL     1       1.442   3.655  17.384  0.00  0.00    +0.000 A 
ATOM     11  C   UNL     1       1.132   2.748  18.388  0.00  0.00    +0.000 A 
ATOM     12  C   UNL     1       2.148   2.238  19.196  0.00  0.00    +0.000 A 
ATOM     13  C   UNL     1       3.477   2.655  19.024  0.00  0.00    +0.000 A 
ATOM     14 BR   UNL     1       4.749   1.923  20.231  0.00  0.00    +0.000 Br
ENDBRANCH   7   8
BRANCH   1  15
ATOM     15  C   UNL     1       5.061   3.376  15.340  0.00  0.00    +0.000 C 
BRANCH  15  17
ATOM     16  C   UNL     1       6.110   3.689  12.905  0.00  0.00    +0.000 C 
ATOM     17  C   UNL     1       5.683   3.541  14.019  0.00  0.00    +0.000 C 
ENDBRANCH  15  17
ENDBRANCH   1  15
BRANCH   6  18
ATOM     18  O   UNL     1       4.513   6.423  18.199  0.00  0.00    +0.000 OA
BRANCH  18  19
ATOM     19  C   UNL     1       3.511   6.707  19.063  0.00  0.00    +0.000 C 
ATOM     20  O   UNL     1       3.301   6.095  20.097  0.00  0.00    +0.000 OA
ATOM     21  N   UNL     1       2.806   7.754  18.542  0.00  0.00    +0.000 N 
ATOM     22  H   UNL     1       3.044   7.983  17.587  0.00  0.00    +0.000 HD
BRANCH  21  23
ATOM     23  C   UNL     1       1.846   8.539  19.195  0.00  0.00    +0.000 A 
ATOM     24  C   UNL     1       1.171   9.585  18.566  0.00  0.00    +0.000 A 
ATOM     25  C   UNL     1       0.181  10.294  19.249  0.00  0.00    +0.000 A 
ATOM     26  C   UNL     1      -0.150   9.963  20.561  0.00  0.00    +0.000 A 
ATOM     27  C   UNL     1       0.537   8.933  21.203  0.00  0.00    +0.000 A 
ATOM     28  C   UNL     1       1.523   8.215  20.516  0.00  0.00    +0.000 A 
BRANCH  26  29
ATOM     29  O   UNL     1      -1.130  10.730  21.126  0.00  0.00    +0.000 OA
ATOM     30  C   UNL     1      -1.439  11.933  20.434  0.00  0.00    +0.000 C 
ENDBRANCH  26  29
ENDBRANCH  21  23
ENDBRANCH  18  19
ENDBRANCH   6  18
TORSDOF 7
ENDMDL
MODEL 5
REMARK VINA RESULT:      -6.5      3.692      6.214
REMARK  Name = 
REMARK  8 active torsions:
REMARK  status: ('A' for Active; 'I' for Inactive)
REMARK    1  A    between atoms: C_2  and  C_3
REMARK    2  A    between atoms: C_3  and  N_4
REMARK    3  A    between atoms: C_9  and  O_10
REMARK    4  A    between atoms: O_10  and  C_11
REMARK    5  A    between atoms: N_13  and  C_14
REMARK    6  A    between atoms: C_17  and  O_18
REMARK    7  A    between atoms: O_18  and  C_19
REMARK    8  A    between atoms: C_22  and  C_23
REMARK                            x       y       z     vdW  Elec       q    Type
REMARK                         _______ _______ _______ _____ _____    ______ ____
ROOT
ATOM      1  N   UNL     1       4.348   4.503  17.065  0.00  0.00    +0.000 N 
ATOM      2  C   UNL     1       5.409   3.748  16.572  0.00  0.00    +0.000 C 
ATOM      3  C   UNL     1       6.682   3.835  16.968  0.00  0.00    +0.000 C 
ATOM      4  C   UNL     1       7.029   4.838  17.994  0.00  0.00    +0.000 C 
ATOM      5  O   UNL     1       8.168   4.826  18.460  0.00  0.00    +0.000 OA
ATOM      6  C   UNL     1       5.997   5.909  18.330  0.00  0.00    +0.000 C 
ATOM      7  C   UNL     1       4.571   5.276  18.331  0.00  0.00    +0.000 C 
ENDROOT
BRANCH   7   8
ATOM      8  C   UNL     1       3.516   6.360  18.577  0.00  0.00    +0.000 A 
ATOM      9  C   UNL     1       3.481   7.492  17.731  0.00  0.00    +0.000 A 
ATOM     10  C   UNL     1       2.594   8.546  17.944  0.00  0.00    +0.000 A 
ATOM     11  C   UNL     1       1.683   8.477  18.989  0.00  0.00    +0.000 A 
ATOM     12  C   UNL     1       1.670   7.358  19.821  0.00  0.00    +0.000 A 
ATOM     13  C   UNL     1       2.587   6.314  19.631  0.00  0.00    +0.000 A 
ATOM     14 BR   UNL     1       2.494   4.879  20.873  0.00  0.00    +0.000 Br
ENDBRANCH   7   8
BRANCH   1  15
ATOM     15  C   UNL     1       2.967   4.168  16.675  0.00  0.00    +0.000 C 
BRANCH  15  17
ATOM     16  C   UNL     1       1.984   2.189  18.176  0.00  0.00    +0.000 C 
ATOM     17  C   UNL     1       2.380   3.094  17.489  0.00  0.00    +0.000 C 
ENDBRANCH  15  17
ENDBRANCH   1  15
BRANCH   6  18
ATOM     18  O   UNL     1       6.108   6.907  17.294  0.00  0.00    +0.000 OA
BRANCH  18  19
ATOM     19  C   UNL     1       7.278   7.583  17.223  0.00  0.00    +0.000 C 
ATOM     20  O   UNL     1       8.201   7.283  16.484  0.00  0.00    +0.000 OA
ATOM     21  N   UNL     1       7.217   8.604  18.127  0.00  0.00    +0.000 N 
ATOM     22  H   UNL     1       6.432   8.553  18.762  0.00  0.00    +0.000 HD
BRANCH  21  23
ATOM     23  C   UNL     1       8.085   9.699  18.230  0.00  0.00    +0.000 A 
ATOM     24  C   UNL     1       9.232   9.681  19.024  0.00  0.00    +0.000 A 
ATOM     25  C   UNL     1      10.093  10.781  19.041  0.00  0.00    +0.000 A 
ATOM     26  C   UNL     1       9.823  11.904  18.262  0.00  0.00    +0.000 A 
ATOM     27  C   UNL     1       8.666  11.937  17.484  0.00  0.00    +0.000 A 
ATOM     28  C   UNL     1       7.807  10.831  17.458  0.00  0.00    +0.000 A 
BRANCH  26  29
ATOM     29  O   UNL     1      10.733  12.917  18.365  0.00  0.00    +0.000 OA
ATOM     30  C   UNL     1      11.603  13.070  17.250  0.00  0.00    +0.000 C 
ENDBRANCH  26  29
ENDBRANCH  21  23
ENDBRANCH  18  19
ENDBRANCH   6  18
TORSDOF 7
ENDMDL
MODEL 6
REMARK VINA RESULT:      -6.5      4.013      8.902
REMARK  Name = 
REMARK  8 active torsions:
REMARK  status: ('A' for Active; 'I' for Inactive)
REMARK    1  A    between atoms: C_2  and  C_3
REMARK    2  A    between atoms: C_3  and  N_4
REMARK    3  A    between atoms: C_9  and  O_10
REMARK    4  A    between atoms: O_10  and  C_11
REMARK    5  A    between atoms: N_13  and  C_14
REMARK    6  A    between atoms: C_17  and  O_18
REMARK    7  A    between atoms: O_18  and  C_19
REMARK    8  A    between atoms: C_22  and  C_23
REMARK                            x       y       z     vdW  Elec       q    Type
REMARK                         _______ _______ _______ _____ _____    ______ ____
ROOT
ATOM      1  N   UNL     1       1.118  12.845  19.466  0.00  0.00    +0.000 N 
ATOM      2  C   UNL     1       2.155  12.436  18.633  0.00  0.00    +0.000 C 
ATOM      3  C   UNL     1       2.235  11.260  18.004  0.00  0.00    +0.000 C 
ATOM      4  C   UNL     1       1.159  10.274  18.222  0.00  0.00    +0.000 C 
ATOM      5  O   UNL     1       1.157   9.250  17.539  0.00  0.00    +0.000 OA
ATOM      6  C   UNL     1       0.179  10.520  19.365  0.00  0.00    +0.000 C 
ATOM      7  C   UNL     1      -0.149  12.043  19.449  0.00  0.00    +0.000 C 
ENDROOT
BRANCH   7   8
ATOM      8  C   UNL     1      -1.061  12.317  20.650  0.00  0.00    +0.000 A 
ATOM      9  C   UNL     1      -0.481  12.511  21.925  0.00  0.00    +0.000 A 
ATOM     10  C   UNL     1      -1.257  12.693  23.069  0.00  0.00    +0.000 A 
ATOM     11  C   UNL     1      -2.640  12.730  22.963  0.00  0.00    +0.000 A 
ATOM     12  C   UNL     1      -3.241  12.575  21.715  0.00  0.00    +0.000 A 
ATOM     13  C   UNL     1      -2.464  12.354  20.568  0.00  0.00    +0.000 A 
ATOM     14 BR   UNL     1      -3.417  12.102  18.943  0.00  0.00    +0.000 Br
ENDBRANCH   7   8
BRANCH   1  15
ATOM     15  C   UNL     1       1.065  14.240  19.939  0.00  0.00    +0.000 C 
BRANCH  15  17
ATOM     16  C   UNL     1       3.438  15.425  20.245  0.00  0.00    +0.000 C 
ATOM     17  C   UNL     1       2.393  14.851  20.092  0.00  0.00    +0.000 C 
ENDBRANCH  15  17
ENDBRANCH   1  15
BRANCH   6  18
ATOM     18  O   UNL     1       0.849  10.079  20.564  0.00  0.00    +0.000 OA
BRANCH  18  19
ATOM     19  C   UNL     1       0.802   8.754  20.836  0.00  0.00    +0.000 C 
ATOM     20  O   UNL     1      -0.063   8.221  21.510  0.00  0.00    +0.000 OA
ATOM     21  N   UNL     1       1.889   8.177  20.246  0.00  0.00    +0.000 N 
ATOM     22  H   UNL     1       2.572   8.833  19.895  0.00  0.00    +0.000 HD
BRANCH  21  23
ATOM     23  C   UNL     1       2.122   6.808  20.052  0.00  0.00    +0.000 A 
ATOM     24  C   UNL     1       1.602   5.826  20.895  0.00  0.00    +0.000 A 
ATOM     25  C   UNL     1       1.817   4.474  20.617  0.00  0.00    +0.000 A 
ATOM     26  C   UNL     1       2.546   4.090  19.494  0.00  0.00    +0.000 A 
ATOM     27  C   UNL     1       3.089   5.067  18.660  0.00  0.00    +0.000 A 
ATOM     28  C   UNL     1       2.865   6.422  18.932  0.00  0.00    +0.000 A 
BRANCH  26  29
ATOM     29  O   UNL     1       2.695   2.742  19.329  0.00  0.00    +0.000 OA
ATOM     30  C   UNL     1       1.532   2.049  18.892  0.00  0.00    +0.000 C 
ENDBRANCH  26  29
ENDBRANCH  21  23
ENDBRANCH  18  19
ENDBRANCH   6  18
TORSDOF 7
ENDMDL
MODEL 7
REMARK VINA RESULT:      -6.5      4.637     10.118
REMARK  Name = 
REMARK  8 active torsions:
REMARK  status: ('A' for Active; 'I' for Inactive)
REMARK    1  A    between atoms: C_2  and  C_3
REMARK    2  A    between atoms: C_3  and  N_4
REMARK    3  A    between atoms: C_9  and  O_10
REMARK    4  A    between atoms: O_10  and  C_11
REMARK    5  A    between atoms: N_13  and  C_14
REMARK    6  A    between atoms: C_17  and  O_18
REMARK    7  A    between atoms: O_18  and  C_19
REMARK    8  A    between atoms: C_22  and  C_23
REMARK                            x       y       z     vdW  Elec       q    Type
REMARK                         _______ _______ _______ _____ _____    ______ ____
ROOT
ATOM      1  N   UNL     1      -0.439  14.807  21.409  0.00  0.00    +0.000 N 
ATOM      2  C   UNL     1      -1.594  14.511  22.126  0.00  0.00    +0.000 C 
ATOM      3  C   UNL     1      -1.891  13.332  22.679  0.00  0.00    +0.000 C 
ATOM      4  C   UNL     1      -0.943  12.215  22.500  0.00  0.00    +0.000 C 
ATOM      5  O   UNL     1      -1.143  11.173  23.122  0.00  0.00    +0.000 OA
ATOM      6  C   UNL     1       0.163  12.371  21.461  0.00  0.00    +0.000 C 
ATOM      7  C   UNL     1       0.701  13.835  21.490  0.00  0.00    +0.000 C 
ENDROOT
BRANCH   7   8
ATOM      8  C   UNL     1       1.749  14.030  20.389  0.00  0.00    +0.000 A 
ATOM      9  C   UNL     1       1.456  13.598  19.074  0.00  0.00    +0.000 A 
ATOM     10  C   UNL     1       2.391  13.681  18.044  0.00  0.00    +0.000 A 
ATOM     11  C   UNL     1       3.636  14.241  18.290  0.00  0.00    +0.000 A 
ATOM     12  C   UNL     1       3.944  14.707  19.567  0.00  0.00    +0.000 A 
ATOM     13  C   UNL     1       3.019  14.590  20.615  0.00  0.00    +0.000 A 
ATOM     14 BR   UNL     1       3.592  15.213  22.316  0.00  0.00    +0.000 Br
ENDBRANCH   7   8
BRANCH   1  15
ATOM     15  C   UNL     1      -0.153  16.200  21.021  0.00  0.00    +0.000 C 
BRANCH  15  17
ATOM     16  C   UNL     1      -0.633  16.701  18.442  0.00  0.00    +0.000 C 
ATOM     17  C   UNL     1      -0.465  16.484  19.613  0.00  0.00    +0.000 C 
ENDBRANCH  15  17
ENDBRANCH   1  15
BRANCH   6  18
ATOM     18  O   UNL     1      -0.447  12.080  20.186  0.00  0.00    +0.000 OA
BRANCH  18  19
ATOM     19  C   UNL     1      -0.381  10.798  19.758  0.00  0.00    +0.000 C 
ATOM     20  O   UNL     1      -1.289  10.217  19.187  0.00  0.00    +0.000 OA
ATOM     21  N   UNL     1       0.845  10.312  20.107  0.00  0.00    +0.000 N 
ATOM     22  H   UNL     1       1.367  10.907  20.737  0.00  0.00    +0.000 HD
BRANCH  21  23
ATOM     23  C   UNL     1       1.447   9.127  19.662  0.00  0.00    +0.000 A 
ATOM     24  C   UNL     1       1.594   8.003  20.474  0.00  0.00    +0.000 A 
ATOM     25  C   UNL     1       2.146   6.829  19.958  0.00  0.00    +0.000 A 
ATOM     26  C   UNL     1       2.551   6.763  18.627  0.00  0.00    +0.000 A 
ATOM     27  C   UNL     1       2.428   7.891  17.815  0.00  0.00    +0.000 A 
ATOM     28  C   UNL     1       1.865   9.065  18.329  0.00  0.00    +0.000 A 
BRANCH  26  29
ATOM     29  O   UNL     1       3.081   5.566  18.237  0.00  0.00    +0.000 OA
ATOM     30  C   UNL     1       4.149   5.647  17.301  0.00  0.00    +0.000 C 
ENDBRANCH  26  29
ENDBRANCH  21  23
ENDBRANCH  18  19
ENDBRANCH   6  18
TORSDOF 7
ENDMDL
MODEL 8
REMARK VINA RESULT:      -6.5      4.133      8.887
REMARK  Name = 
REMARK  8 active torsions:
REMARK  status: ('A' for Active; 'I' for Inactive)
REMARK    1  A    between atoms: C_2  and  C_3
REMARK    2  A    between atoms: C_3  and  N_4
REMARK    3  A    between atoms: C_9  and  O_10
REMARK    4  A    between atoms: O_10  and  C_11
REMARK    5  A    between atoms: N_13  and  C_14
REMARK    6  A    between atoms: C_17  and  O_18
REMARK    7  A    between atoms: O_18  and  C_19
REMARK    8  A    between atoms: C_22  and  C_23
REMARK                            x       y       z     vdW  Elec       q    Type
REMARK                         _______ _______ _______ _____ _____    ______ ____
ROOT
ATOM      1  N   UNL     1       1.114  12.654  19.761  0.00  0.00    +0.000 N 
ATOM      2  C   UNL     1       2.144  12.438  18.851  0.00  0.00    +0.000 C 
ATOM      3  C   UNL     1       2.292  11.357  18.080  0.00  0.00    +0.000 C 
ATOM      4  C   UNL     1       1.309  10.264  18.209  0.00  0.00    +0.000 C 
ATOM      5  O   UNL     1       1.360   9.334  17.405  0.00  0.00    +0.000 OA
ATOM      6  C   UNL     1       0.361  10.287  19.404  0.00  0.00    +0.000 C 
ATOM      7  C   UNL     1      -0.085  11.755  19.686  0.00  0.00    +0.000 C 
ENDROOT
BRANCH   7   8
ATOM      8  C   UNL     1      -0.965  11.804  20.939  0.00  0.00    +0.000 A 
ATOM      9  C   UNL     1      -0.442  11.337  22.167  0.00  0.00    +0.000 A 
ATOM     10  C   UNL     1      -1.212  11.288  23.328  0.00  0.00    +0.000 A 
ATOM     11  C   UNL     1      -2.521  11.748  23.303  0.00  0.00    +0.000 A 
ATOM     12  C   UNL     1      -3.056  12.247  22.116  0.00  0.00    +0.000 A 
ATOM     13  C   UNL     1      -2.294  12.261  20.938  0.00  0.00    +0.000 A 
ATOM     14 BR   UNL     1      -3.167  12.914  19.382  0.00  0.00    +0.000 Br
ENDBRANCH   7   8
BRANCH   1  15
ATOM     15  C   UNL     1       0.968  13.972  20.404  0.00  0.00    +0.000 C 
BRANCH  15  17
ATOM     16  C   UNL     1      -0.180  15.750  18.775  0.00  0.00    +0.000 C 
ATOM     17  C   UNL     1       0.308  14.965  19.545  0.00  0.00    +0.000 C 
ENDBRANCH  15  17
ENDBRANCH   1  15
BRANCH   6  18
ATOM     18  O   UNL     1       1.114   9.763  20.518  0.00  0.00    +0.000 OA
BRANCH  18  19
ATOM     19  C   UNL     1       1.084   8.422  20.695  0.00  0.00    +0.000 C 
ATOM     20  O   UNL     1       0.297   7.843  21.425  0.00  0.00    +0.000 OA
ATOM     21  N   UNL     1       2.089   7.887  19.942  0.00  0.00    +0.000 N 
ATOM     22  H   UNL     1       2.734   8.566  19.563  0.00  0.00    +0.000 HD
BRANCH  21  23
ATOM     23  C   UNL     1       2.284   6.536  19.623  0.00  0.00    +0.000 A 
ATOM     24  C   UNL     1       2.589   5.570  20.581  0.00  0.00    +0.000 A 
ATOM     25  C   UNL     1       2.711   4.228  20.214  0.00  0.00    +0.000 A 
ATOM     26  C   UNL     1       2.525   3.837  18.890  0.00  0.00    +0.000 A 
ATOM     27  C   UNL     1       2.242   4.801  17.923  0.00  0.00    +0.000 A 
ATOM     28  C   UNL     1       2.109   6.145  18.292  0.00  0.00    +0.000 A 
BRANCH  26  29
ATOM     29  O   UNL     1       2.675   2.501  18.650  0.00  0.00    +0.000 OA
ATOM     30  C   UNL     1       3.807   1.894  19.260  0.00  0.00    +0.000 C 
ENDBRANCH  26  29
ENDBRANCH  21  23
ENDBRANCH  18  19
ENDBRANCH   6  18
TORSDOF 7
ENDMDL
MODEL 9
REMARK VINA RESULT:      -6.4      4.365     10.273
REMARK  Name = 
REMARK  8 active torsions:
REMARK  status: ('A' for Active; 'I' for Inactive)
REMARK    1  A    between atoms: C_2  and  C_3
REMARK    2  A    between atoms: C_3  and  N_4
REMARK    3  A    between atoms: C_9  and  O_10
REMARK    4  A    between atoms: O_10  and  C_11
REMARK    5  A    between atoms: N_13  and  C_14
REMARK    6  A    between atoms: C_17  and  O_18
REMARK    7  A    between atoms: O_18  and  C_19
REMARK    8  A    between atoms: C_22  and  C_23
REMARK                            x       y       z     vdW  Elec       q    Type
REMARK                         _______ _______ _______ _____ _____    ______ ____
ROOT
ATOM      1  N   UNL     1      -3.818  12.696  21.458  0.00  0.00    +0.000 N 
ATOM      2  C   UNL     1      -3.820  13.012  22.813  0.00  0.00    +0.000 C 
ATOM      3  C   UNL     1      -2.741  13.270  23.558  0.00  0.00    +0.000 C 
ATOM      4  C   UNL     1      -1.413  13.187  22.920  0.00  0.00    +0.000 C 
ATOM      5  O   UNL     1      -0.432  13.560  23.562  0.00  0.00    +0.000 OA
ATOM      6  C   UNL     1      -1.315  12.531  21.546  0.00  0.00    +0.000 C 
ATOM      7  C   UNL     1      -2.553  12.936  20.687  0.00  0.00    +0.000 C 
ENDROOT
BRANCH   7   8
ATOM      8  C   UNL     1      -2.514  12.211  19.337  0.00  0.00    +0.000 A 
ATOM      9  C   UNL     1      -3.504  11.244  19.046  0.00  0.00    +0.000 A 
ATOM     10  C   UNL     1      -3.485  10.499  17.868  0.00  0.00    +0.000 A 
ATOM     11  C   UNL     1      -2.495  10.733  16.924  0.00  0.00    +0.000 A 
ATOM     12  C   UNL     1      -1.523  11.703  17.167  0.00  0.00    +0.000 A 
ATOM     13  C   UNL     1      -1.519  12.427  18.368  0.00  0.00    +0.000 A 
ATOM     14 BR   UNL     1      -0.105  13.677  18.591  0.00  0.00    +0.000 Br
ENDBRANCH   7   8
BRANCH   1  15
ATOM     15  C   UNL     1      -5.092  12.625  20.720  0.00  0.00    +0.000 C 
BRANCH  15  17
ATOM     16  C   UNL     1      -7.044  14.158  21.703  0.00  0.00    +0.000 C 
ATOM     17  C   UNL     1      -6.132  13.502  21.274  0.00  0.00    +0.000 C 
ENDBRANCH  15  17
ENDBRANCH   1  15
BRANCH   6  18
ATOM     18  O   UNL     1      -1.308  11.108  21.785  0.00  0.00    +0.000 OA
BRANCH  18  19
ATOM     19  C   UNL     1      -0.127  10.469  21.619  0.00  0.00    +0.000 C 
ATOM     20  O   UNL     1       0.675  10.263  22.514  0.00  0.00    +0.000 OA
ATOM     21  N   UNL     1      -0.020  10.145  20.297  0.00  0.00    +0.000 N 
ATOM     22  H   UNL     1      -0.715  10.576  19.704  0.00  0.00    +0.000 HD
BRANCH  21  23
ATOM     23  C   UNL     1       0.906   9.272  19.710  0.00  0.00    +0.000 A 
ATOM     24  C   UNL     1       1.402   8.145  20.365  0.00  0.00    +0.000 A 
ATOM     25  C   UNL     1       2.276   7.276  19.707  0.00  0.00    +0.000 A 
ATOM     26  C   UNL     1       2.657   7.519  18.390  0.00  0.00    +0.000 A 
ATOM     27  C   UNL     1       2.182   8.656  17.736  0.00  0.00    +0.000 A 
ATOM     28  C   UNL     1       1.298   9.522  18.391  0.00  0.00    +0.000 A 
BRANCH  26  29
ATOM     29  O   UNL     1       3.519   6.604  17.854  0.00  0.00    +0.000 OA
ATOM     30  C   UNL     1       3.325   5.261  18.279  0.00  0.00    +0.000 C 
ENDBRANCH  26  29
ENDBRANCH  21  23
ENDBRANCH  18  19
ENDBRANCH   6  18
TORSDOF 7
ENDMDL
