MODEL 1
REMARK VINA RESULT:      -8.2      0.000      0.000
REMARK  Name = 
REMARK  4 active torsions:
REMARK  status: ('A' for Active; 'I' for Inactive)
REMARK    1  A    between atoms: C_2  and  C_11
REMARK    2  A    between atoms: N_3  and  C_4
REMARK    3  A    between atoms: C_11  and  C_12
REMARK    4  A    between atoms: C_11  and  N_18
REMARK                            x       y       z     vdW  Elec       q    Type
REMARK                         _______ _______ _______ _____ _____    ______ ____
ROOT
ATOM      1  C   UNL     1       3.025   4.700  18.744  0.00  0.00    +0.000 C 
ENDROOT
BRANCH   1   2
ATOM      2  C   UNL     1       2.529   6.140  18.942  0.00  0.00    +0.000 A 
ATOM      3  C   UNL     1       2.165   6.697  20.180  0.00  0.00    +0.000 A 
ATOM      4  C   UNL     1       1.723   8.028  20.256  0.00  0.00    +0.000 A 
ATOM      5  C   UNL     1       1.623   8.811  19.102  0.00  0.00    +0.000 A 
ATOM      6  C   UNL     1       1.962   8.270  17.867  0.00  0.00    +0.000 A 
ATOM      7  C   UNL     1       2.406   6.954  17.784  0.00  0.00    +0.000 A 
ENDBRANCH   1   2
BRANCH   1   8
ATOM      8  N   UNL     1       2.244   3.609  19.400  0.00  0.00    +0.000 NA
ATOM      9  C   UNL     1       1.399   3.914  20.568  0.00  0.00    +0.000 C 
ATOM     10  C   UNL     1       2.183   3.713  21.870  0.00  0.00    +0.000 C 
ATOM     11  O   UNL     1       2.710   2.402  21.946  0.00  0.00    +0.000 OA
ATOM     12  C   UNL     1       3.611   2.181  20.874  0.00  0.00    +0.000 C 
ATOM     13  C   UNL     1       2.888   2.292  19.534  0.00  0.00    +0.000 C 
ENDBRANCH   1   8
BRANCH   1  15
ATOM     14  O   UNL     1       2.589   3.682  16.669  0.00  0.00    +0.000 OA
ATOM     15  C   UNL     1       3.415   4.279  17.352  0.00  0.00    +0.000 C 
ATOM     16  N   UNL     1       4.655   4.537  16.795  0.00  0.00    +0.000 N 
ATOM     17  H   UNL     1       4.772   4.185  15.831  0.00  0.00    +0.000 HD
BRANCH  16  18
ATOM     18  C   UNL     1       5.779   5.299  17.308  0.00  0.00    +0.000 A 
ATOM     19  C   UNL     1       6.709   4.867  18.296  0.00  0.00    +0.000 A 
ATOM     20  C   UNL     1       7.704   5.705  18.790  0.00  0.00    +0.000 A 
ATOM     21  C   UNL     1       7.842   6.991  18.304  0.00  0.00    +0.000 A 
ATOM     22  F   UNL     1       8.813   7.793  18.802  0.00  0.00    +0.000 F 
ATOM     23  C   UNL     1       6.982   7.444  17.303  0.00  0.00    +0.000 A 
ATOM     24  C   UNL     1       5.967   6.607  16.811  0.00  0.00    +0.000 A 
ENDBRANCH  16  18
ENDBRANCH   1  15
TORSDOF 4
ENDMDL
MODEL 2
REMARK VINA RESULT:      -8.0      0.099      1.012
REMARK  Name = 
REMARK  4 active torsions:
REMARK  status: ('A' for Active; 'I' for Inactive)
REMARK    1  A    between atoms: C_2  and  C_11
REMARK    2  A    between atoms: N_3  and  C_4
REMARK    3  A    between atoms: C_11  and  C_12
REMARK    4  A    between atoms: C_11  and  N_18
REMARK                            x       y       z     vdW  Elec       q    Type
REMARK                         _______ _______ _______ _____ _____    ______ ____
ROOT
ATOM      1  C   UNL     1       2.978   4.744  18.694  0.00  0.00    +0.000 C 
ENDROOT
BRANCH   1   2
ATOM      2  C   UNL     1       2.490   6.197  18.797  0.00  0.00    +0.000 A 
ATOM      3  C   UNL     1       2.339   7.068  17.706  0.00  0.00    +0.000 A 
ATOM      4  C   UNL     1       1.885   8.383  17.904  0.00  0.00    +0.000 A 
ATOM      5  C   UNL     1       1.591   8.846  19.190  0.00  0.00    +0.000 A 
ATOM      6  C   UNL     1       1.752   8.002  20.284  0.00  0.00    +0.000 A 
ATOM      7  C   UNL     1       2.196   6.698  20.094  0.00  0.00    +0.000 A 
ENDBRANCH   1   2
BRANCH   1   8
ATOM      8  N   UNL     1       2.168   3.699  19.388  0.00  0.00    +0.000 NA
ATOM      9  C   UNL     1       1.384   4.053  20.585  0.00  0.00    +0.000 C 
ATOM     10  C   UNL     1       2.205   3.824  21.858  0.00  0.00    +0.000 C 
ATOM     11  O   UNL     1       2.669   2.488  21.926  0.00  0.00    +0.000 OA
ATOM     12  C   UNL     1       3.517   2.215  20.824  0.00  0.00    +0.000 C 
ATOM     13  C   UNL     1       2.751   2.352  19.510  0.00  0.00    +0.000 C 
ENDBRANCH   1   8
BRANCH   1  15
ATOM     14  O   UNL     1       2.588   3.614  16.669  0.00  0.00    +0.000 OA
ATOM     15  C   UNL     1       3.401   4.242  17.339  0.00  0.00    +0.000 C 
ATOM     16  N   UNL     1       4.658   4.459  16.803  0.00  0.00    +0.000 N 
ATOM     17  H   UNL     1       4.798   4.053  15.864  0.00  0.00    +0.000 HD
BRANCH  16  18
ATOM     18  C   UNL     1       5.774   5.240  17.303  0.00  0.00    +0.000 A 
ATOM     19  C   UNL     1       6.739   4.815  18.260  0.00  0.00    +0.000 A 
ATOM     20  C   UNL     1       7.724   5.669  18.746  0.00  0.00    +0.000 A 
ATOM     21  C   UNL     1       7.817   6.967  18.280  0.00  0.00    +0.000 A 
ATOM     22  F   UNL     1       8.779   7.785  18.769  0.00  0.00    +0.000 F 
ATOM     23  C   UNL     1       6.923   7.415  17.308  0.00  0.00    +0.000 A 
ATOM     24  C   UNL     1       5.917   6.562  16.825  0.00  0.00    +0.000 A 
ENDBRANCH  16  18
ENDBRANCH   1  15
TORSDOF 4
ENDMDL
MODEL 3
REMARK VINA RESULT:      -7.9      0.811      1.393
REMARK  Name = 
REMARK  4 active torsions:
REMARK  status: ('A' for Active; 'I' for Inactive)
REMARK    1  A    between atoms: C_2  and  C_11
REMARK    2  A    between atoms: N_3  and  C_4
REMARK    3  A    between atoms: C_11  and  C_12
REMARK    4  A    between atoms: C_11  and  N_18
REMARK                            x       y       z     vdW  Elec       q    Type
REMARK                         _______ _______ _______ _____ _____    ______ ____
ROOT
ATOM      1  C   UNL     1       3.575   4.282  18.608  0.00  0.00    +0.000 C 
ENDROOT
BRANCH   1   2
ATOM      2  C   UNL     1       2.972   5.676  18.840  0.00  0.00    +0.000 A 
ATOM      3  C   UNL     1       2.636   6.201  20.099  0.00  0.00    +0.000 A 
ATOM      4  C   UNL     1       2.088   7.490  20.207  0.00  0.00    +0.000 A 
ATOM      5  C   UNL     1       1.858   8.261  19.063  0.00  0.00    +0.000 A 
ATOM      6  C   UNL     1       2.168   7.750  17.809  0.00  0.00    +0.000 A 
ATOM      7  C   UNL     1       2.715   6.476  17.695  0.00  0.00    +0.000 A 
ENDBRANCH   1   2
BRANCH   1   8
ATOM      8  N   UNL     1       2.798   3.108  19.105  0.00  0.00    +0.000 NA
ATOM      9  C   UNL     1       1.329   3.100  18.991  0.00  0.00    +0.000 C 
ATOM     10  C   UNL     1       0.685   3.671  20.259  0.00  0.00    +0.000 C 
ATOM     11  O   UNL     1       1.114   2.963  21.407  0.00  0.00    +0.000 OA
ATOM     12  C   UNL     1       2.518   3.089  21.555  0.00  0.00    +0.000 C 
ATOM     13  C   UNL     1       3.241   2.475  20.358  0.00  0.00    +0.000 C 
ENDBRANCH   1   8
BRANCH   1  15
ATOM     14  O   UNL     1       3.516   3.211  16.515  0.00  0.00    +0.000 OA
ATOM     15  C   UNL     1       4.135   3.980  17.243  0.00  0.00    +0.000 C 
ATOM     16  N   UNL     1       5.309   4.532  16.760  0.00  0.00    +0.000 N 
ATOM     17  H   UNL     1       5.562   4.228  15.806  0.00  0.00    +0.000 HD
BRANCH  16  18
ATOM     18  C   UNL     1       6.186   5.534  17.335  0.00  0.00    +0.000 A 
ATOM     19  C   UNL     1       6.306   6.890  16.917  0.00  0.00    +0.000 A 
ATOM     20  C   UNL     1       7.242   7.755  17.475  0.00  0.00    +0.000 A 
ATOM     21  C   UNL     1       8.074   7.326  18.492  0.00  0.00    +0.000 A 
ATOM     22  F   UNL     1       8.982   8.181  19.017  0.00  0.00    +0.000 F 
ATOM     23  C   UNL     1       7.962   6.019  18.966  0.00  0.00    +0.000 A 
ATOM     24  C   UNL     1       7.029   5.138  18.397  0.00  0.00    +0.000 A 
ENDBRANCH  16  18
ENDBRANCH   1  15
TORSDOF 4
ENDMDL
MODEL 4
REMARK VINA RESULT:      -7.9      0.979      1.219
REMARK  Name = 
REMARK  4 active torsions:
REMARK  status: ('A' for Active; 'I' for Inactive)
REMARK    1  A    between atoms: C_2  and  C_11
REMARK    2  A    between atoms: N_3  and  C_4
REMARK    3  A    between atoms: C_11  and  C_12
REMARK    4  A    between atoms: C_11  and  N_18
REMARK                            x       y       z     vdW  Elec       q    Type
REMARK                         _______ _______ _______ _____ _____    ______ ____
ROOT
ATOM      1  C   UNL     1       3.862   3.989  18.743  0.00  0.00    +0.000 C 
ENDROOT
BRANCH   1   2
ATOM      2  C   UNL     1       3.259   5.400  18.819  0.00  0.00    +0.000 A 
ATOM      3  C   UNL     1       2.834   6.024  20.003  0.00  0.00    +0.000 A 
ATOM      4  C   UNL     1       2.294   7.320  19.967  0.00  0.00    +0.000 A 
ATOM      5  C   UNL     1       2.160   8.001  18.753  0.00  0.00    +0.000 A 
ATOM      6  C   UNL     1       2.560   7.390  17.570  0.00  0.00    +0.000 A 
ATOM      7  C   UNL     1       3.100   6.108  17.598  0.00  0.00    +0.000 A 
ENDBRANCH   1   2
BRANCH   1   8
ATOM      8  N   UNL     1       3.053   2.866  19.304  0.00  0.00    +0.000 NA
ATOM      9  C   UNL     1       1.611   2.783  19.008  0.00  0.00    +0.000 C 
ATOM     10  C   UNL     1       0.795   3.502  20.088  0.00  0.00    +0.000 C 
ATOM     11  O   UNL     1       1.086   2.982  21.372  0.00  0.00    +0.000 OA
ATOM     12  C   UNL     1       2.455   3.185  21.676  0.00  0.00    +0.000 C 
ATOM     13  C   UNL     1       3.341   2.437  20.683  0.00  0.00    +0.000 C 
ENDBRANCH   1   8
BRANCH   1  15
ATOM     14  O   UNL     1       3.889   2.746  16.747  0.00  0.00    +0.000 OA
ATOM     15  C   UNL     1       4.486   3.563  17.441  0.00  0.00    +0.000 C 
ATOM     16  N   UNL     1       5.696   4.051  16.977  0.00  0.00    +0.000 N 
ATOM     17  H   UNL     1       5.992   3.663  16.067  0.00  0.00    +0.000 HD
BRANCH  16  18
ATOM     18  C   UNL     1       6.563   5.082  17.514  0.00  0.00    +0.000 A 
ATOM     19  C   UNL     1       7.325   5.002  18.715  0.00  0.00    +0.000 A 
ATOM     20  C   UNL     1       8.061   6.079  19.196  0.00  0.00    +0.000 A 
ATOM     21  C   UNL     1       8.103   7.269  18.493  0.00  0.00    +0.000 A 
ATOM     22  F   UNL     1       8.821   8.309  18.981  0.00  0.00    +0.000 F 
ATOM     23  C   UNL     1       7.410   7.380  17.288  0.00  0.00    +0.000 A 
ATOM     24  C   UNL     1       6.653   6.300  16.805  0.00  0.00    +0.000 A 
ENDBRANCH  16  18
ENDBRANCH   1  15
TORSDOF 4
ENDMDL
MODEL 5
REMARK VINA RESULT:      -7.8      0.236      1.440
REMARK  Name = 
REMARK  4 active torsions:
REMARK  status: ('A' for Active; 'I' for Inactive)
REMARK    1  A    between atoms: C_2  and  C_11
REMARK    2  A    between atoms: N_3  and  C_4
REMARK    3  A    between atoms: C_11  and  C_12
REMARK    4  A    between atoms: C_11  and  N_18
REMARK                            x       y       z     vdW  Elec       q    Type
REMARK                         _______ _______ _______ _____ _____    ______ ____
ROOT
ATOM      1  C   UNL     1       3.110   4.826  18.730  0.00  0.00    +0.000 C 
ENDROOT
BRANCH   1   2
ATOM      2  C   UNL     1       2.572   6.263  18.804  0.00  0.00    +0.000 A 
ATOM      3  C   UNL     1       2.409   7.113  17.698  0.00  0.00    +0.000 A 
ATOM      4  C   UNL     1       1.908   8.414  17.871  0.00  0.00    +0.000 A 
ATOM      5  C   UNL     1       1.579   8.885  19.145  0.00  0.00    +0.000 A 
ATOM      6  C   UNL     1       1.751   8.063  20.253  0.00  0.00    +0.000 A 
ATOM      7  C   UNL     1       2.242   6.772  20.089  0.00  0.00    +0.000 A 
ENDBRANCH   1   2
BRANCH   1   8
ATOM      8  N   UNL     1       2.288   3.753  19.365  0.00  0.00    +0.000 NA
ATOM      9  C   UNL     1       1.459   4.066  20.542  0.00  0.00    +0.000 C 
ATOM     10  C   UNL     1       2.237   3.808  21.837  0.00  0.00    +0.000 C 
ATOM     11  O   UNL     1       2.713   2.476  21.884  0.00  0.00    +0.000 OA
ATOM     12  C   UNL     1       3.602   2.243  20.806  0.00  0.00    +0.000 C 
ATOM     13  C   UNL     1       2.881   2.410  19.470  0.00  0.00    +0.000 C 
ENDBRANCH   1   8
BRANCH   1  15
ATOM     14  O   UNL     1       2.926   3.612  16.724  0.00  0.00    +0.000 OA
ATOM     15  C   UNL     1       3.638   4.344  17.405  0.00  0.00    +0.000 C 
ATOM     16  N   UNL     1       4.882   4.689  16.907  0.00  0.00    +0.000 N 
ATOM     17  H   UNL     1       5.101   4.280  15.985  0.00  0.00    +0.000 HD
BRANCH  16  18
ATOM     18  C   UNL     1       5.883   5.604  17.424  0.00  0.00    +0.000 A 
ATOM     19  C   UNL     1       6.123   6.933  16.973  0.00  0.00    +0.000 A 
ATOM     20  C   UNL     1       7.167   7.705  17.472  0.00  0.00    +0.000 A 
ATOM     21  C   UNL     1       7.996   7.208  18.461  0.00  0.00    +0.000 A 
ATOM     22  F   UNL     1       9.011   7.972  18.929  0.00  0.00    +0.000 F 
ATOM     23  C   UNL     1       7.772   5.927  18.965  0.00  0.00    +0.000 A 
ATOM     24  C   UNL     1       6.728   5.138  18.455  0.00  0.00    +0.000 A 
ENDBRANCH  16  18
ENDBRANCH   1  15
TORSDOF 4
ENDMDL
MODEL 6
REMARK VINA RESULT:      -7.8      3.139      6.178
REMARK  Name = 
REMARK  4 active torsions:
REMARK  status: ('A' for Active; 'I' for Inactive)
REMARK    1  A    between atoms: C_2  and  C_11
REMARK    2  A    between atoms: N_3  and  C_4
REMARK    3  A    between atoms: C_11  and  C_12
REMARK    4  A    between atoms: C_11  and  N_18
REMARK                            x       y       z     vdW  Elec       q    Type
REMARK                         _______ _______ _______ _____ _____    ______ ____
ROOT
ATOM      1  C   UNL     1       4.197   5.863  17.997  0.00  0.00    +0.000 C 
ENDROOT
BRANCH   1   2
ATOM      2  C   UNL     1       3.942   4.348  18.023  0.00  0.00    +0.000 A 
ATOM      3  C   UNL     1       3.044   3.675  17.178  0.00  0.00    +0.000 A 
ATOM      4  C   UNL     1       2.881   2.284  17.280  0.00  0.00    +0.000 A 
ATOM      5  C   UNL     1       3.598   1.553  18.233  0.00  0.00    +0.000 A 
ATOM      6  C   UNL     1       4.476   2.206  19.089  0.00  0.00    +0.000 A 
ATOM      7  C   UNL     1       4.647   3.583  18.990  0.00  0.00    +0.000 A 
ENDBRANCH   1   2
BRANCH   1   8
ATOM      8  N   UNL     1       4.979   6.407  16.847  0.00  0.00    +0.000 NA
ATOM      9  C   UNL     1       5.210   5.568  15.657  0.00  0.00    +0.000 C 
ATOM     10  C   UNL     1       6.527   4.796  15.787  0.00  0.00    +0.000 C 
ATOM     11  O   UNL     1       7.611   5.679  16.011  0.00  0.00    +0.000 OA
ATOM     12  C   UNL     1       7.415   6.384  17.225  0.00  0.00    +0.000 C 
ATOM     13  C   UNL     1       6.153   7.240  17.150  0.00  0.00    +0.000 C 
ENDBRANCH   1   8
BRANCH   1  15
ATOM     14  O   UNL     1       2.929   7.814  17.656  0.00  0.00    +0.000 OA
ATOM     15  C   UNL     1       3.037   6.774  18.299  0.00  0.00    +0.000 C 
ATOM     16  N   UNL     1       2.078   6.498  19.257  0.00  0.00    +0.000 N 
ATOM     17  H   UNL     1       1.344   7.220  19.347  0.00  0.00    +0.000 HD
BRANCH  16  18
ATOM     18  C   UNL     1       1.884   5.323  20.086  0.00  0.00    +0.000 A 
ATOM     19  C   UNL     1       2.589   5.010  21.283  0.00  0.00    +0.000 A 
ATOM     20  C   UNL     1       2.395   3.812  21.963  0.00  0.00    +0.000 A 
ATOM     21  C   UNL     1       1.473   2.888  21.506  0.00  0.00    +0.000 A 
ATOM     22  F   UNL     1       1.303   1.725  22.178  0.00  0.00    +0.000 F 
ATOM     23  C   UNL     1       0.727   3.170  20.362  0.00  0.00    +0.000 A 
ATOM     24  C   UNL     1       0.928   4.372  19.664  0.00  0.00    +0.000 A 
ENDBRANCH  16  18
ENDBRANCH   1  15
TORSDOF 4
ENDMDL
MODEL 7
REMARK VINA RESULT:      -7.8      2.603      5.033
REMARK  Name = 
REMARK  4 active torsions:
REMARK  status: ('A' for Active; 'I' for Inactive)
REMARK    1  A    between atoms: C_2  and  C_11
REMARK    2  A    between atoms: N_3  and  C_4
REMARK    3  A    between atoms: C_11  and  C_12
REMARK    4  A    between atoms: C_11  and  N_18
REMARK                            x       y       z     vdW  Elec       q    Type
REMARK                         _______ _______ _______ _____ _____    ______ ____
ROOT
ATOM      1  C   UNL     1       3.622   4.846  17.873  0.00  0.00    +0.000 C 
ENDROOT
BRANCH   1   2
ATOM      2  C   UNL     1       4.934   4.778  17.075  0.00  0.00    +0.000 A 
ATOM      3  C   UNL     1       6.214   4.707  17.648  0.00  0.00    +0.000 A 
ATOM      4  C   UNL     1       7.355   4.648  16.830  0.00  0.00    +0.000 A 
ATOM      5  C   UNL     1       7.232   4.674  15.438  0.00  0.00    +0.000 A 
ATOM      6  C   UNL     1       5.973   4.762  14.855  0.00  0.00    +0.000 A 
ATOM      7  C   UNL     1       4.839   4.816  15.658  0.00  0.00    +0.000 A 
ENDBRANCH   1   2
BRANCH   1   8
ATOM      8  N   UNL     1       2.580   3.821  17.567  0.00  0.00    +0.000 NA
ATOM      9  C   UNL     1       1.257   3.907  18.212  0.00  0.00    +0.000 C 
ATOM     10  C   UNL     1       1.234   3.095  19.511  0.00  0.00    +0.000 C 
ATOM     11  O   UNL     1       1.602   1.749  19.273  0.00  0.00    +0.000 OA
ATOM     12  C   UNL     1       2.924   1.693  18.766  0.00  0.00    +0.000 C 
ATOM     13  C   UNL     1       3.017   2.422  17.427  0.00  0.00    +0.000 C 
ENDBRANCH   1   8
BRANCH   1  15
ATOM     14  O   UNL     1       4.356   4.228  20.020  0.00  0.00    +0.000 OA
ATOM     15  C   UNL     1       3.718   5.044  19.362  0.00  0.00    +0.000 C 
ATOM     16  N   UNL     1       3.134   6.105  20.031  0.00  0.00    +0.000 N 
ATOM     17  H   UNL     1       3.289   6.104  21.052  0.00  0.00    +0.000 HD
BRANCH  16  18
ATOM     18  C   UNL     1       2.422   7.263  19.522  0.00  0.00    +0.000 A 
ATOM     19  C   UNL     1       2.468   7.761  18.189  0.00  0.00    +0.000 A 
ATOM     20  C   UNL     1       1.818   8.933  17.815  0.00  0.00    +0.000 A 
ATOM     21  C   UNL     1       1.070   9.643  18.736  0.00  0.00    +0.000 A 
ATOM     22  F   UNL     1       0.450  10.785  18.354  0.00  0.00    +0.000 F 
ATOM     23  C   UNL     1       0.960   9.170  20.043  0.00  0.00    +0.000 A 
ATOM     24  C   UNL     1       1.624   7.995  20.429  0.00  0.00    +0.000 A 
ENDBRANCH  16  18
ENDBRANCH   1  15
TORSDOF 4
ENDMDL
MODEL 8
REMARK VINA RESULT:      -7.6      2.424      5.076
REMARK  Name = 
REMARK  4 active torsions:
REMARK  status: ('A' for Active; 'I' for Inactive)
REMARK    1  A    between atoms: C_2  and  C_11
REMARK    2  A    between atoms: N_3  and  C_4
REMARK    3  A    between atoms: C_11  and  C_12
REMARK    4  A    between atoms: C_11  and  N_18
REMARK                            x       y       z     vdW  Elec       q    Type
REMARK                         _______ _______ _______ _____ _____    ______ ____
ROOT
ATOM      1  C   UNL     1       3.534   5.643  18.449  0.00  0.00    +0.000 C 
ENDROOT
BRANCH   1   2
ATOM      2  C   UNL     1       5.051   5.874  18.368  0.00  0.00    +0.000 A 
ATOM      3  C   UNL     1       5.991   5.328  19.258  0.00  0.00    +0.000 A 
ATOM      4  C   UNL     1       7.360   5.600  19.099  0.00  0.00    +0.000 A 
ATOM      5  C   UNL     1       7.804   6.428  18.063  0.00  0.00    +0.000 A 
ATOM      6  C   UNL     1       6.885   6.992  17.185  0.00  0.00    +0.000 A 
ATOM      7  C   UNL     1       5.528   6.723  17.334  0.00  0.00    +0.000 A 
ENDBRANCH   1   2
BRANCH   1   8
ATOM      8  N   UNL     1       2.959   4.562  17.594  0.00  0.00    +0.000 NA
ATOM      9  C   UNL     1       1.524   4.241  17.688  0.00  0.00    +0.000 C 
ATOM     10  C   UNL     1       1.284   3.130  18.716  0.00  0.00    +0.000 C 
ATOM     11  O   UNL     1       2.049   1.980  18.405  0.00  0.00    +0.000 OA
ATOM     12  C   UNL     1       3.430   2.294  18.441  0.00  0.00    +0.000 C 
ATOM     13  C   UNL     1       3.767   3.349  17.389  0.00  0.00    +0.000 C 
ENDBRANCH   1   8
BRANCH   1  15
ATOM     14  O   UNL     1       3.125   4.624  20.529  0.00  0.00    +0.000 OA
ATOM     15  C   UNL     1       2.905   5.598  19.816  0.00  0.00    +0.000 C 
ATOM     16  N   UNL     1       2.097   6.604  20.319  0.00  0.00    +0.000 N 
ATOM     17  H   UNL     1       1.740   6.428  21.272  0.00  0.00    +0.000 HD
BRANCH  16  18
ATOM     18  C   UNL     1       1.749   7.899  19.764  0.00  0.00    +0.000 A 
ATOM     19  C   UNL     1       2.048   8.361  18.451  0.00  0.00    +0.000 A 
ATOM     20  C   UNL     1       1.750   9.655  18.038  0.00  0.00    +0.000 A 
ATOM     21  C   UNL     1       1.115  10.535  18.894  0.00  0.00    +0.000 A 
ATOM     22  F   UNL     1       0.839  11.793  18.475  0.00  0.00    +0.000 F 
ATOM     23  C   UNL     1       0.761  10.113  20.175  0.00  0.00    +0.000 A 
ATOM     24  C   UNL     1       1.072   8.812  20.602  0.00  0.00    +0.000 A 
ENDBRANCH  16  18
ENDBRANCH   1  15
TORSDOF 4
ENDMDL
MODEL 9
REMARK VINA RESULT:      -7.6      3.130      6.120
REMARK  Name = 
REMARK  4 active torsions:
REMARK  status: ('A' for Active; 'I' for Inactive)
REMARK    1  A    between atoms: C_2  and  C_11
REMARK    2  A    between atoms: N_3  and  C_4
REMARK    3  A    between atoms: C_11  and  C_12
REMARK    4  A    between atoms: C_11  and  N_18
REMARK                            x       y       z     vdW  Elec       q    Type
REMARK                         _______ _______ _______ _____ _____    ______ ____
ROOT
ATOM      1  C   UNL     1       4.266   5.742  18.031  0.00  0.00    +0.000 C 
ENDROOT
BRANCH   1   2
ATOM      2  C   UNL     1       4.049   4.226  18.161  0.00  0.00    +0.000 A 
ATOM      3  C   UNL     1       4.693   3.405  19.101  0.00  0.00    +0.000 A 
ATOM      4  C   UNL     1       4.426   2.026  19.140  0.00  0.00    +0.000 A 
ATOM      5  C   UNL     1       3.527   1.452  18.236  0.00  0.00    +0.000 A 
ATOM      6  C   UNL     1       2.894   2.248  17.288  0.00  0.00    +0.000 A 
ATOM      7  C   UNL     1       3.151   3.614  17.247  0.00  0.00    +0.000 A 
ENDBRANCH   1   2
BRANCH   1   8
ATOM      8  N   UNL     1       5.061   6.222  16.862  0.00  0.00    +0.000 NA
ATOM      9  C   UNL     1       5.269   5.336  15.703  0.00  0.00    +0.000 C 
ATOM     10  C   UNL     1       6.564   4.533  15.861  0.00  0.00    +0.000 C 
ATOM     11  O   UNL     1       7.672   5.393  16.053  0.00  0.00    +0.000 OA
ATOM     12  C   UNL     1       7.497   6.147  17.241  0.00  0.00    +0.000 C 
ATOM     13  C   UNL     1       6.259   7.034  17.136  0.00  0.00    +0.000 C 
ENDBRANCH   1   8
BRANCH   1  15
ATOM     14  O   UNL     1       2.979   7.650  17.550  0.00  0.00    +0.000 OA
ATOM     15  C   UNL     1       3.077   6.640  18.240  0.00  0.00    +0.000 C 
ATOM     16  N   UNL     1       2.078   6.385  19.164  0.00  0.00    +0.000 N 
ATOM     17  H   UNL     1       1.328   7.093  19.190  0.00  0.00    +0.000 HD
BRANCH  16  18
ATOM     18  C   UNL     1       1.868   5.240  20.031  0.00  0.00    +0.000 A 
ATOM     19  C   UNL     1       2.544   4.976  21.257  0.00  0.00    +0.000 A 
ATOM     20  C   UNL     1       2.337   3.804  21.977  0.00  0.00    +0.000 A 
ATOM     21  C   UNL     1       1.430   2.860  21.533  0.00  0.00    +0.000 A 
ATOM     22  F   UNL     1       1.247   1.722  22.244  0.00  0.00    +0.000 F 
ATOM     23  C   UNL     1       0.711   3.095  20.361  0.00  0.00    +0.000 A 
ATOM     24  C   UNL     1       0.926   4.270  19.623  0.00  0.00    +0.000 A 
ENDBRANCH  16  18
ENDBRANCH   1  15
TORSDOF 4
ENDMDL
