MODEL 1
REMARK VINA RESULT:      -7.9      0.000      0.000
REMARK  Name = 
REMARK  7 active torsions:
REMARK  status: ('A' for Active; 'I' for Inactive)
REMARK    1  A    between atoms: C_1  and  C_2
REMARK    2  A    between atoms: C_4  and  C_5
REMARK    3  A    between atoms: C_8  and  C_9
REMARK    4  A    between atoms: C_15  and  C_16
REMARK    5  A    between atoms: C_15  and  C_17
REMARK    6  A    between atoms: C_20  and  C_21
REMARK    7  A    between atoms: C_20  and  C_22
REMARK                            x       y       z     vdW  Elec       q    Type
REMARK                         _______ _______ _______ _____ _____    ______ ____
ROOT
ATOM      1  C   UNL     1       2.606   7.476  18.708  0.00  0.00    +0.000 A 
ATOM      2  C   UNL     1       2.590   8.372  17.640  0.00  0.00    +0.000 A 
ATOM      3  C   UNL     1       1.939   9.600  17.742  0.00  0.00    +0.000 A 
ATOM      4  C   UNL     1       1.234   9.944  18.898  0.00  0.00    +0.000 A 
ATOM      5  C   UNL     1       1.238   9.062  19.995  0.00  0.00    +0.000 A 
ATOM      6  C   UNL     1       1.922   7.841  19.876  0.00  0.00    +0.000 A 
ATOM      7  C   UNL     1       0.529   9.396  21.309  0.00  0.00    +0.000 C 
ATOM      8  C   UNL     1       1.499   9.243  22.506  0.00  0.00    +0.000 C 
ATOM      9  C   UNL     1      -0.655   8.440  21.573  0.00  0.00    +0.000 C 
ATOM     10  C   UNL     1      -0.005  10.836  21.276  0.00  0.00    +0.000 C 
ATOM     11  O   UNL     1      -0.066  11.532  22.294  0.00  0.00    +0.000 OA
ATOM     12  C   UNL     1      -0.486  11.346  19.899  0.00  0.00    +0.000 C 
ATOM     13  C   UNL     1      -1.722  10.588  19.390  0.00  0.00    +0.000 C 
ATOM     14  C   UNL     1      -0.855  12.831  19.986  0.00  0.00    +0.000 C 
ATOM     15  N   UNL     1       0.626  11.203  18.952  0.00  0.00    +0.000 N 
ATOM     16  H   UNL     1       0.472  11.632  18.044  0.00  0.00    +0.000 HD
ENDROOT
BRANCH   1  22
ATOM     17  C   UNL     1       4.831   6.525  16.565  0.00  0.00    +0.000 C 
ATOM     18  C   UNL     1       4.311   5.764  17.744  0.00  0.00    +0.000 A 
ATOM     19  C   UNL     1       4.812   4.470  18.111  0.00  0.00    +0.000 A 
ATOM     20  C   UNL     1       4.220   3.966  19.246  0.00  0.00    +0.000 A 
ATOM     21  S   UNL     1       3.024   5.002  19.842  0.00  0.00    +0.000 S 
ATOM     22  C   UNL     1       3.341   6.200  18.643  0.00  0.00    +0.000 A 
BRANCH  20  23
ATOM     23  C   UNL     1       4.550   2.732  19.864  0.00  0.00    +0.000 C 
ATOM     24  N   UNL     1       4.824   1.721  20.377  0.00  0.00    +0.000 NA
ENDBRANCH  20  23
ENDBRANCH   1  22
TORSDOF 2
ENDMDL
MODEL 2
REMARK VINA RESULT:      -7.3      1.233      1.498
REMARK  Name = 
REMARK  7 active torsions:
REMARK  status: ('A' for Active; 'I' for Inactive)
REMARK    1  A    between atoms: C_1  and  C_2
REMARK    2  A    between atoms: C_4  and  C_5
REMARK    3  A    between atoms: C_8  and  C_9
REMARK    4  A    between atoms: C_15  and  C_16
REMARK    5  A    between atoms: C_15  and  C_17
REMARK    6  A    between atoms: C_20  and  C_21
REMARK    7  A    between atoms: C_20  and  C_22
REMARK                            x       y       z     vdW  Elec       q    Type
REMARK                         _______ _______ _______ _____ _____    ______ ____
ROOT
ATOM      1  C   UNL     1       2.291   6.635  18.881  0.00  0.00    +0.000 A 
ATOM      2  C   UNL     1       2.567   7.340  17.710  0.00  0.00    +0.000 A 
ATOM      3  C   UNL     1       2.294   8.703  17.612  0.00  0.00    +0.000 A 
ATOM      4  C   UNL     1       1.685   9.391  18.664  0.00  0.00    +0.000 A 
ATOM      5  C   UNL     1       1.401   8.707  19.860  0.00  0.00    +0.000 A 
ATOM      6  C   UNL     1       1.706   7.338  19.943  0.00  0.00    +0.000 A 
ATOM      7  C   UNL     1       0.779   9.407  21.070  0.00  0.00    +0.000 C 
ATOM      8  C   UNL     1       1.627   9.157  22.341  0.00  0.00    +0.000 C 
ATOM      9  C   UNL     1      -0.638   8.871  21.370  0.00  0.00    +0.000 C 
ATOM     10  C   UNL     1       0.685  10.920  20.820  0.00  0.00    +0.000 C 
ATOM     11  O   UNL     1       0.797  11.741  21.735  0.00  0.00    +0.000 OA
ATOM     12  C   UNL     1       0.414  11.347  19.359  0.00  0.00    +0.000 C 
ATOM     13  C   UNL     1      -0.973  10.904  18.865  0.00  0.00    +0.000 C 
ATOM     14  C   UNL     1       0.487  12.873  19.233  0.00  0.00    +0.000 C 
ATOM     15  N   UNL     1       1.465  10.764  18.517  0.00  0.00    +0.000 N 
ATOM     16  H   UNL     1       1.469  11.087  17.553  0.00  0.00    +0.000 HD
ENDROOT
BRANCH   1  22
ATOM     17  C   UNL     1       1.078   4.091  17.298  0.00  0.00    +0.000 C 
ATOM     18  C   UNL     1       2.135   4.091  18.356  0.00  0.00    +0.000 A 
ATOM     19  C   UNL     1       2.810   2.896  18.775  0.00  0.00    +0.000 A 
ATOM     20  C   UNL     1       3.770   3.128  19.734  0.00  0.00    +0.000 A 
ATOM     21  S   UNL     1       3.826   4.756  20.184  0.00  0.00    +0.000 S 
ATOM     22  C   UNL     1       2.628   5.208  19.028  0.00  0.00    +0.000 A 
BRANCH  20  23
ATOM     23  C   UNL     1       4.621   2.142  20.297  0.00  0.00    +0.000 C 
ATOM     24  N   UNL     1       5.325   1.337  20.761  0.00  0.00    +0.000 NA
ENDBRANCH  20  23
ENDBRANCH   1  22
TORSDOF 2
ENDMDL
MODEL 3
REMARK VINA RESULT:      -7.2      1.575      1.980
REMARK  Name = 
REMARK  7 active torsions:
REMARK  status: ('A' for Active; 'I' for Inactive)
REMARK    1  A    between atoms: C_1  and  C_2
REMARK    2  A    between atoms: C_4  and  C_5
REMARK    3  A    between atoms: C_8  and  C_9
REMARK    4  A    between atoms: C_15  and  C_16
REMARK    5  A    between atoms: C_15  and  C_17
REMARK    6  A    between atoms: C_20  and  C_21
REMARK    7  A    between atoms: C_20  and  C_22
REMARK                            x       y       z     vdW  Elec       q    Type
REMARK                         _______ _______ _______ _____ _____    ______ ____
ROOT
ATOM      1  C   UNL     1       2.386   7.876  18.483  0.00  0.00    +0.000 A 
ATOM      2  C   UNL     1       2.365   8.926  17.564  0.00  0.00    +0.000 A 
ATOM      3  C   UNL     1       1.764  10.143  17.877  0.00  0.00    +0.000 A 
ATOM      4  C   UNL     1       1.114  10.329  19.100  0.00  0.00    +0.000 A 
ATOM      5  C   UNL     1       1.125   9.290  20.050  0.00  0.00    +0.000 A 
ATOM      6  C   UNL     1       1.758   8.080  19.719  0.00  0.00    +0.000 A 
ATOM      7  C   UNL     1       0.477   9.441  21.428  0.00  0.00    +0.000 C 
ATOM      8  C   UNL     1       1.483   9.077  22.547  0.00  0.00    +0.000 C 
ATOM      9  C   UNL     1      -0.732   8.494  21.592  0.00  0.00    +0.000 C 
ATOM     10  C   UNL     1      -0.005  10.885  21.635  0.00  0.00    +0.000 C 
ATOM     11  O   UNL     1      -0.003  11.420  22.748  0.00  0.00    +0.000 OA
ATOM     12  C   UNL     1      -0.516  11.615  20.371  0.00  0.00    +0.000 C 
ATOM     13  C   UNL     1      -1.797  10.981  19.805  0.00  0.00    +0.000 C 
ATOM     14  C   UNL     1      -0.826  13.080  20.697  0.00  0.00    +0.000 C 
ATOM     15  N   UNL     1       0.556  11.582  19.369  0.00  0.00    +0.000 N 
ATOM     16  H   UNL     1       0.385  12.149  18.543  0.00  0.00    +0.000 HD
ENDROOT
BRANCH   1  22
ATOM     17  C   UNL     1       1.799   4.939  19.699  0.00  0.00    +0.000 C 
ATOM     18  C   UNL     1       2.837   5.323  18.692  0.00  0.00    +0.000 A 
ATOM     19  C   UNL     1       3.705   4.362  18.072  0.00  0.00    +0.000 A 
ATOM     20  C   UNL     1       4.559   4.924  17.151  0.00  0.00    +0.000 A 
ATOM     21  S   UNL     1       4.374   6.602  17.066  0.00  0.00    +0.000 S 
ATOM     22  C   UNL     1       3.071   6.604  18.196  0.00  0.00    +0.000 A 
BRANCH  20  23
ATOM     23  C   UNL     1       5.492   4.210  16.355  0.00  0.00    +0.000 C 
ATOM     24  N   UNL     1       6.263   3.628  15.703  0.00  0.00    +0.000 NA
ENDBRANCH  20  23
ENDBRANCH   1  22
TORSDOF 2
ENDMDL
MODEL 4
REMARK VINA RESULT:      -7.1      1.766      3.367
REMARK  Name = 
REMARK  7 active torsions:
REMARK  status: ('A' for Active; 'I' for Inactive)
REMARK    1  A    between atoms: C_1  and  C_2
REMARK    2  A    between atoms: C_4  and  C_5
REMARK    3  A    between atoms: C_8  and  C_9
REMARK    4  A    between atoms: C_15  and  C_16
REMARK    5  A    between atoms: C_15  and  C_17
REMARK    6  A    between atoms: C_20  and  C_21
REMARK    7  A    between atoms: C_20  and  C_22
REMARK                            x       y       z     vdW  Elec       q    Type
REMARK                         _______ _______ _______ _____ _____    ______ ____
ROOT
ATOM      1  C   UNL     1       1.138   8.572  20.593  0.00  0.00    +0.000 A 
ATOM      2  C   UNL     1       1.077   8.574  21.987  0.00  0.00    +0.000 A 
ATOM      3  C   UNL     1       0.312   9.517  22.671  0.00  0.00    +0.000 A 
ATOM      4  C   UNL     1      -0.371  10.523  21.983  0.00  0.00    +0.000 A 
ATOM      5  C   UNL     1      -0.333  10.541  20.577  0.00  0.00    +0.000 A 
ATOM      6  C   UNL     1       0.426   9.566  19.909  0.00  0.00    +0.000 A 
ATOM      7  C   UNL     1      -1.097  11.584  19.756  0.00  0.00    +0.000 C 
ATOM      8  C   UNL     1      -1.985  10.896  18.692  0.00  0.00    +0.000 C 
ATOM      9  C   UNL     1      -0.135  12.521  18.994  0.00  0.00    +0.000 C 
ATOM     10  C   UNL     1      -1.984  12.438  20.674  0.00  0.00    +0.000 C 
ATOM     11  O   UNL     1      -3.067  12.894  20.295  0.00  0.00    +0.000 OA
ATOM     12  C   UNL     1      -1.424  12.715  22.089  0.00  0.00    +0.000 C 
ATOM     13  C   UNL     1      -0.154  13.579  22.059  0.00  0.00    +0.000 C 
ATOM     14  C   UNL     1      -2.469  13.451  22.935  0.00  0.00    +0.000 C 
ATOM     15  N   UNL     1      -1.147  11.421  22.723  0.00  0.00    +0.000 N 
ATOM     16  H   UNL     1      -0.901  11.472  23.708  0.00  0.00    +0.000 HD
ENDROOT
BRANCH   1  22
ATOM     17  C   UNL     1       2.493   8.780  17.666  0.00  0.00    +0.000 C 
ATOM     18  C   UNL     1       2.496   7.607  18.595  0.00  0.00    +0.000 A 
ATOM     19  C   UNL     1       3.188   6.386  18.297  0.00  0.00    +0.000 A 
ATOM     20  C   UNL     1       3.089   5.452  19.303  0.00  0.00    +0.000 A 
ATOM     21  S   UNL     1       2.120   6.000  20.574  0.00  0.00    +0.000 S 
ATOM     22  C   UNL     1       1.890   7.548  19.848  0.00  0.00    +0.000 A 
BRANCH  20  23
ATOM     23  C   UNL     1       3.711   4.176  19.301  0.00  0.00    +0.000 C 
ATOM     24  N   UNL     1       4.221   3.128  19.292  0.00  0.00    +0.000 NA
ENDBRANCH  20  23
ENDBRANCH   1  22
TORSDOF 2
ENDMDL
MODEL 5
REMARK VINA RESULT:      -7.1      3.169      7.251
REMARK  Name = 
REMARK  7 active torsions:
REMARK  status: ('A' for Active; 'I' for Inactive)
REMARK    1  A    between atoms: C_1  and  C_2
REMARK    2  A    between atoms: C_4  and  C_5
REMARK    3  A    between atoms: C_8  and  C_9
REMARK    4  A    between atoms: C_15  and  C_16
REMARK    5  A    between atoms: C_15  and  C_17
REMARK    6  A    between atoms: C_20  and  C_21
REMARK    7  A    between atoms: C_20  and  C_22
REMARK                            x       y       z     vdW  Elec       q    Type
REMARK                         _______ _______ _______ _____ _____    ______ ____
ROOT
ATOM      1  C   UNL     1       1.905   8.311  18.840  0.00  0.00    +0.000 A 
ATOM      2  C   UNL     1       2.792   8.791  17.876  0.00  0.00    +0.000 A 
ATOM      3  C   UNL     1       3.654   7.929  17.201  0.00  0.00    +0.000 A 
ATOM      4  C   UNL     1       3.695   6.568  17.509  0.00  0.00    +0.000 A 
ATOM      5  C   UNL     1       2.806   6.054  18.472  0.00  0.00    +0.000 A 
ATOM      6  C   UNL     1       1.930   6.939  19.123  0.00  0.00    +0.000 A 
ATOM      7  C   UNL     1       2.761   4.565  18.825  0.00  0.00    +0.000 C 
ATOM      8  C   UNL     1       1.316   4.021  18.709  0.00  0.00    +0.000 C 
ATOM      9  C   UNL     1       3.215   4.314  20.280  0.00  0.00    +0.000 C 
ATOM     10  C   UNL     1       3.676   3.767  17.884  0.00  0.00    +0.000 C 
ATOM     11  O   UNL     1       3.410   2.610  17.543  0.00  0.00    +0.000 OA
ATOM     12  C   UNL     1       4.959   4.490  17.415  0.00  0.00    +0.000 C 
ATOM     13  C   UNL     1       5.934   4.765  18.571  0.00  0.00    +0.000 C 
ATOM     14  C   UNL     1       5.697   3.636  16.378  0.00  0.00    +0.000 C 
ATOM     15  N   UNL     1       4.558   5.748  16.776  0.00  0.00    +0.000 N 
ATOM     16  H   UNL     1       5.309   6.247  16.306  0.00  0.00    +0.000 HD
ENDROOT
BRANCH   1  22
ATOM     17  C   UNL     1      -0.595   9.934  17.588  0.00  0.00    +0.000 C 
ATOM     18  C   UNL     1      -0.149   9.898  19.015  0.00  0.00    +0.000 A 
ATOM     19  C   UNL     1      -0.857  10.577  20.064  0.00  0.00    +0.000 A 
ATOM     20  C   UNL     1      -0.296  10.383  21.305  0.00  0.00    +0.000 A 
ATOM     21  S   UNL     1       1.109   9.446  21.219  0.00  0.00    +0.000 S 
ATOM     22  C   UNL     1       0.943   9.195  19.521  0.00  0.00    +0.000 A 
BRANCH  20  23
ATOM     23  C   UNL     1      -0.808  10.894  22.526  0.00  0.00    +0.000 C 
ATOM     24  N   UNL     1      -1.233  11.319  23.525  0.00  0.00    +0.000 NA
ENDBRANCH  20  23
ENDBRANCH   1  22
TORSDOF 2
ENDMDL
MODEL 6
REMARK VINA RESULT:      -7.1      2.355      3.742
REMARK  Name = 
REMARK  7 active torsions:
REMARK  status: ('A' for Active; 'I' for Inactive)
REMARK    1  A    between atoms: C_1  and  C_2
REMARK    2  A    between atoms: C_4  and  C_5
REMARK    3  A    between atoms: C_8  and  C_9
REMARK    4  A    between atoms: C_15  and  C_16
REMARK    5  A    between atoms: C_15  and  C_17
REMARK    6  A    between atoms: C_20  and  C_21
REMARK    7  A    between atoms: C_20  and  C_22
REMARK                            x       y       z     vdW  Elec       q    Type
REMARK                         _______ _______ _______ _____ _____    ______ ____
ROOT
ATOM      1  C   UNL     1       1.467   8.420  20.026  0.00  0.00    +0.000 A 
ATOM      2  C   UNL     1       1.277   8.275  21.401  0.00  0.00    +0.000 A 
ATOM      3  C   UNL     1       0.395   9.100  22.095  0.00  0.00    +0.000 A 
ATOM      4  C   UNL     1      -0.284  10.134  21.445  0.00  0.00    +0.000 A 
ATOM      5  C   UNL     1      -0.118  10.300  20.058  0.00  0.00    +0.000 A 
ATOM      6  C   UNL     1       0.760   9.440  19.375  0.00  0.00    +0.000 A 
ATOM      7  C   UNL     1      -0.866  11.379  19.272  0.00  0.00    +0.000 C 
ATOM      8  C   UNL     1      -1.607  10.758  18.063  0.00  0.00    +0.000 C 
ATOM      9  C   UNL     1       0.102  12.440  18.703  0.00  0.00    +0.000 C 
ATOM     10  C   UNL     1      -1.886  12.086  20.177  0.00  0.00    +0.000 C 
ATOM     11  O   UNL     1      -2.956  12.521  19.740  0.00  0.00    +0.000 OA
ATOM     12  C   UNL     1      -1.478  12.244  21.660  0.00  0.00    +0.000 C 
ATOM     13  C   UNL     1      -0.266  13.173  21.840  0.00  0.00    +0.000 C 
ATOM     14  C   UNL     1      -2.640  12.833  22.467  0.00  0.00    +0.000 C 
ATOM     15  N   UNL     1      -1.179  10.909  22.189  0.00  0.00    +0.000 N 
ATOM     16  H   UNL     1      -1.029  10.870  23.194  0.00  0.00    +0.000 HD
ENDROOT
BRANCH   1  22
ATOM     17  C   UNL     1       2.005   5.263  20.462  0.00  0.00    +0.000 C 
ATOM     18  C   UNL     1       2.593   6.156  19.415  0.00  0.00    +0.000 A 
ATOM     19  C   UNL     1       3.473   5.672  18.390  0.00  0.00    +0.000 A 
ATOM     20  C   UNL     1       3.868   6.654  17.511  0.00  0.00    +0.000 A 
ATOM     21  S   UNL     1       3.245   8.166  17.940  0.00  0.00    +0.000 S 
ATOM     22  C   UNL     1       2.347   7.519  19.262  0.00  0.00    +0.000 A 
BRANCH  20  23
ATOM     23  C   UNL     1       4.697   6.454  16.377  0.00  0.00    +0.000 C 
ATOM     24  N   UNL     1       5.383   6.295  15.448  0.00  0.00    +0.000 NA
ENDBRANCH  20  23
ENDBRANCH   1  22
TORSDOF 2
ENDMDL
MODEL 7
REMARK VINA RESULT:      -7.1      3.154      7.330
REMARK  Name = 
REMARK  7 active torsions:
REMARK  status: ('A' for Active; 'I' for Inactive)
REMARK    1  A    between atoms: C_1  and  C_2
REMARK    2  A    between atoms: C_4  and  C_5
REMARK    3  A    between atoms: C_8  and  C_9
REMARK    4  A    between atoms: C_15  and  C_16
REMARK    5  A    between atoms: C_15  and  C_17
REMARK    6  A    between atoms: C_20  and  C_21
REMARK    7  A    between atoms: C_20  and  C_22
REMARK                            x       y       z     vdW  Elec       q    Type
REMARK                         _______ _______ _______ _____ _____    ______ ____
ROOT
ATOM      1  C   UNL     1       2.100   7.401  19.415  0.00  0.00    +0.000 A 
ATOM      2  C   UNL     1       3.013   7.397  18.360  0.00  0.00    +0.000 A 
ATOM      3  C   UNL     1       3.522   6.201  17.856  0.00  0.00    +0.000 A 
ATOM      4  C   UNL     1       3.176   4.975  18.429  0.00  0.00    +0.000 A 
ATOM      5  C   UNL     1       2.251   4.949  19.490  0.00  0.00    +0.000 A 
ATOM      6  C   UNL     1       1.735   6.166  19.965  0.00  0.00    +0.000 A 
ATOM      7  C   UNL     1       1.789   3.639  20.133  0.00  0.00    +0.000 C 
ATOM      8  C   UNL     1       0.244   3.557  20.152  0.00  0.00    +0.000 C 
ATOM      9  C   UNL     1       2.258   3.533  21.601  0.00  0.00    +0.000 C 
ATOM     10  C   UNL     1       2.347   2.438  19.356  0.00  0.00    +0.000 C 
ATOM     11  O   UNL     1       1.721   1.377  19.257  0.00  0.00    +0.000 OA
ATOM     12  C   UNL     1       3.748   2.629  18.731  0.00  0.00    +0.000 C 
ATOM     13  C   UNL     1       4.847   2.797  19.792  0.00  0.00    +0.000 C 
ATOM     14  C   UNL     1       4.113   1.412  17.872  0.00  0.00    +0.000 C 
ATOM     15  N   UNL     1       3.695   3.808  17.860  0.00  0.00    +0.000 N 
ATOM     16  H   UNL     1       4.523   3.955  17.288  0.00  0.00    +0.000 HD
ENDROOT
BRANCH   1  22
ATOM     17  C   UNL     1       1.750  10.239  17.908  0.00  0.00    +0.000 C 
ATOM     18  C   UNL     1       1.326   9.882  19.297  0.00  0.00    +0.000 A 
ATOM     19  C   UNL     1       0.623  10.797  20.151  0.00  0.00    +0.000 A 
ATOM     20  C   UNL     1       0.298  10.253  21.373  0.00  0.00    +0.000 A 
ATOM     21  S   UNL     1       0.883   8.675  21.531  0.00  0.00    +0.000 S 
ATOM     22  C   UNL     1       1.502   8.649  19.921  0.00  0.00    +0.000 A 
BRANCH  20  23
ATOM     23  C   UNL     1      -0.435  10.911  22.394  0.00  0.00    +0.000 C 
ATOM     24  N   UNL     1      -1.040  11.455  23.229  0.00  0.00    +0.000 NA
ENDBRANCH  20  23
ENDBRANCH   1  22
TORSDOF 2
ENDMDL
MODEL 8
REMARK VINA RESULT:      -7.0      3.144      7.502
REMARK  Name = 
REMARK  7 active torsions:
REMARK  status: ('A' for Active; 'I' for Inactive)
REMARK    1  A    between atoms: C_1  and  C_2
REMARK    2  A    between atoms: C_4  and  C_5
REMARK    3  A    between atoms: C_8  and  C_9
REMARK    4  A    between atoms: C_15  and  C_16
REMARK    5  A    between atoms: C_15  and  C_17
REMARK    6  A    between atoms: C_20  and  C_21
REMARK    7  A    between atoms: C_20  and  C_22
REMARK                            x       y       z     vdW  Elec       q    Type
REMARK                         _______ _______ _______ _____ _____    ______ ____
ROOT
ATOM      1  C   UNL     1       1.948   8.277  18.794  0.00  0.00    +0.000 A 
ATOM      2  C   UNL     1       2.846   8.782  17.852  0.00  0.00    +0.000 A 
ATOM      3  C   UNL     1       3.721   7.938  17.171  0.00  0.00    +0.000 A 
ATOM      4  C   UNL     1       3.765   6.570  17.452  0.00  0.00    +0.000 A 
ATOM      5  C   UNL     1       2.866   6.033  18.392  0.00  0.00    +0.000 A 
ATOM      6  C   UNL     1       1.977   6.900  19.049  0.00  0.00    +0.000 A 
ATOM      7  C   UNL     1       2.824   4.537  18.714  0.00  0.00    +0.000 C 
ATOM      8  C   UNL     1       1.385   3.988  18.567  0.00  0.00    +0.000 C 
ATOM      9  C   UNL     1       3.260   4.257  20.169  0.00  0.00    +0.000 C 
ATOM     10  C   UNL     1       3.756   3.763  17.769  0.00  0.00    +0.000 C 
ATOM     11  O   UNL     1       3.501   2.612  17.401  0.00  0.00    +0.000 OA
ATOM     12  C   UNL     1       5.042   4.502  17.332  0.00  0.00    +0.000 C 
ATOM     13  C   UNL     1       6.000   4.758  18.507  0.00  0.00    +0.000 C 
ATOM     14  C   UNL     1       5.798   3.673  16.288  0.00  0.00    +0.000 C 
ATOM     15  N   UNL     1       4.643   5.771  16.714  0.00  0.00    +0.000 N 
ATOM     16  H   UNL     1       5.397   6.283  16.265  0.00  0.00    +0.000 HD
ENDROOT
BRANCH   1  22
ATOM     17  C   UNL     1       1.452   8.656  21.965  0.00  0.00    +0.000 C 
ATOM     18  C   UNL     1       0.740   9.337  20.840  0.00  0.00    +0.000 A 
ATOM     19  C   UNL     1      -0.267  10.338  21.054  0.00  0.00    +0.000 A 
ATOM     20  C   UNL     1      -0.766  10.858  19.882  0.00  0.00    +0.000 A 
ATOM     21  S   UNL     1      -0.085  10.115  18.525  0.00  0.00    +0.000 S 
ATOM     22  C   UNL     1       0.972   9.142  19.480  0.00  0.00    +0.000 A 
BRANCH  20  23
ATOM     23  C   UNL     1      -1.735  11.891  19.791  0.00  0.00    +0.000 C 
ATOM     24  N   UNL     1      -2.526  12.744  19.715  0.00  0.00    +0.000 NA
ENDBRANCH  20  23
ENDBRANCH   1  22
TORSDOF 2
ENDMDL
MODEL 9
REMARK VINA RESULT:      -7.0      2.343      3.371
REMARK  Name = 
REMARK  7 active torsions:
REMARK  status: ('A' for Active; 'I' for Inactive)
REMARK    1  A    between atoms: C_1  and  C_2
REMARK    2  A    between atoms: C_4  and  C_5
REMARK    3  A    between atoms: C_8  and  C_9
REMARK    4  A    between atoms: C_15  and  C_16
REMARK    5  A    between atoms: C_15  and  C_17
REMARK    6  A    between atoms: C_20  and  C_21
REMARK    7  A    between atoms: C_20  and  C_22
REMARK                            x       y       z     vdW  Elec       q    Type
REMARK                         _______ _______ _______ _____ _____    ______ ____
ROOT
ATOM      1  C   UNL     1       2.604   6.893  18.975  0.00  0.00    +0.000 A 
ATOM      2  C   UNL     1       2.393   6.536  20.307  0.00  0.00    +0.000 A 
ATOM      3  C   UNL     1       1.567   7.297  21.132  0.00  0.00    +0.000 A 
ATOM      4  C   UNL     1       0.970   8.470  20.665  0.00  0.00    +0.000 A 
ATOM      5  C   UNL     1       1.159   8.851  19.323  0.00  0.00    +0.000 A 
ATOM      6  C   UNL     1       1.978   8.055  18.505  0.00  0.00    +0.000 A 
ATOM      7  C   UNL     1       0.497  10.096  18.730  0.00  0.00    +0.000 C 
ATOM      8  C   UNL     1      -0.278   9.740  17.438  0.00  0.00    +0.000 C 
ATOM      9  C   UNL     1       1.543  11.164  18.340  0.00  0.00    +0.000 C 
ATOM     10  C   UNL     1      -0.477  10.716  19.744  0.00  0.00    +0.000 C 
ATOM     11  O   UNL     1      -1.509  11.293  19.389  0.00  0.00    +0.000 OA
ATOM     12  C   UNL     1      -0.070  10.597  21.231  0.00  0.00    +0.000 C 
ATOM     13  C   UNL     1       1.204  11.393  21.557  0.00  0.00    +0.000 C 
ATOM     14  C   UNL     1      -1.193  11.127  22.129  0.00  0.00    +0.000 C 
ATOM     15  N   UNL     1       0.127   9.174  21.530  0.00  0.00    +0.000 N 
ATOM     16  H   UNL     1       0.266   8.960  22.514  0.00  0.00    +0.000 HD
ENDROOT
BRANCH   1  22
ATOM     17  C   UNL     1       1.983   3.949  17.793  0.00  0.00    +0.000 C 
ATOM     18  C   UNL     1       3.181   4.806  17.533  0.00  0.00    +0.000 A 
ATOM     19  C   UNL     1       4.228   4.418  16.631  0.00  0.00    +0.000 A 
ATOM     20  C   UNL     1       5.216   5.368  16.512  0.00  0.00    +0.000 A 
ATOM     21  S   UNL     1       4.934   6.695  17.521  0.00  0.00    +0.000 S 
ATOM     22  C   UNL     1       3.423   6.069  18.069  0.00  0.00    +0.000 A 
BRANCH  20  23
ATOM     23  C   UNL     1       6.346   5.274  15.659  0.00  0.00    +0.000 C 
ATOM     24  N   UNL     1       7.272   5.191  14.955  0.00  0.00    +0.000 NA
ENDBRANCH  20  23
ENDBRANCH   1  22
TORSDOF 2
ENDMDL
