MODEL 1
REMARK VINA RESULT:      -7.3      0.000      0.000
REMARK  Name = 
REMARK  6 active torsions:
REMARK  status: ('A' for Active; 'I' for Inactive)
REMARK    1  A    between atoms: C_1  and  C_2
REMARK    2  A    between atoms: C_2  and  C_3
REMARK    3  A    between atoms: C_2  and  C_4
REMARK    4  A    between atoms: C_4  and  N_5
REMARK    5  A    between atoms: C_8  and  N_9
REMARK    6  A    between atoms: C_10  and  C_12
REMARK                            x       y       z     vdW  Elec       q    Type
REMARK                         _______ _______ _______ _____ _____    ______ ____
ROOT
ATOM      1  N   UNL     1       3.720   5.018  17.657  0.00  0.00    +0.000 N 
ATOM      2  C   UNL     1       4.992   5.333  17.134  0.00  0.00    +0.000 A 
ATOM      3  C   UNL     1       5.499   6.607  17.334  0.00  0.00    +0.000 A 
ATOM      4  C   UNL     1       6.748   6.879  16.812  0.00  0.00    +0.000 A 
ATOM      5  N   UNL     1       7.418   5.975  16.095  0.00  0.00    +0.000 NA
ATOM      6  C   UNL     1       6.832   4.796  15.903  0.00  0.00    +0.000 A 
ATOM      7  N   UNL     1       5.649   4.422  16.402  0.00  0.00    +0.000 NA
ATOM      8  H   UNL     1       3.580   5.486  18.547  0.00  0.00    +0.000 HD
ENDROOT
BRANCH   4   9
ATOM      9  N   UNL     1       7.332   8.135  17.083  0.00  0.00    +0.000 N 
ATOM     10  C   UNL     1       8.183   8.364  18.146  0.00  0.00    +0.000 C 
ATOM     11  O   UNL     1       8.593   7.525  18.947  0.00  0.00    +0.000 OA
ATOM     12  H   UNL     1       7.122   8.887  16.443  0.00  0.00    +0.000 HD
BRANCH  10  13
ATOM     13  C   UNL     1       8.664   9.761  18.354  0.00  0.00    +0.000 A 
ATOM     14  C   UNL     1       8.301  10.833  17.526  0.00  0.00    +0.000 A 
ATOM     15  C   UNL     1       8.724  12.131  17.842  0.00  0.00    +0.000 A 
ATOM     16  C   UNL     1       9.498  12.360  18.978  0.00  0.00    +0.000 A 
ATOM     17  C   UNL     1       9.855  11.294  19.792  0.00  0.00    +0.000 A 
ATOM     18  F   UNL     1      10.589  11.516  20.891  0.00  0.00    +0.000 F 
ATOM     19  C   UNL     1       9.449  10.002  19.492  0.00  0.00    +0.000 A 
ENDBRANCH  10  13
ENDBRANCH   4   9
BRANCH   1  20
ATOM     20  C   UNL     1       3.485   3.575  17.780  0.00  0.00    +0.000 C 
BRANCH  20  22
ATOM     21  C   UNL     1       1.376   4.247  19.012  0.00  0.00    +0.000 C 
ATOM     22  C   UNL     1       2.568   3.288  18.980  0.00  0.00    +0.000 C 
ATOM     23  C   UNL     1       2.071   1.842  18.933  0.00  0.00    +0.000 C 
ENDBRANCH  20  22
ENDBRANCH   1  20
TORSDOF 4
ENDMDL
MODEL 2
REMARK VINA RESULT:      -7.3      4.867      6.441
REMARK  Name = 
REMARK  6 active torsions:
REMARK  status: ('A' for Active; 'I' for Inactive)
REMARK    1  A    between atoms: C_1  and  C_2
REMARK    2  A    between atoms: C_2  and  C_3
REMARK    3  A    between atoms: C_2  and  C_4
REMARK    4  A    between atoms: C_4  and  N_5
REMARK    5  A    between atoms: C_8  and  N_9
REMARK    6  A    between atoms: C_10  and  C_12
REMARK                            x       y       z     vdW  Elec       q    Type
REMARK                         _______ _______ _______ _____ _____    ______ ____
ROOT
ATOM      1  N   UNL     1       5.616   4.555  13.748  0.00  0.00    +0.000 N 
ATOM      2  C   UNL     1       5.882   4.827  15.108  0.00  0.00    +0.000 A 
ATOM      3  C   UNL     1       5.052   5.704  15.787  0.00  0.00    +0.000 A 
ATOM      4  C   UNL     1       5.339   5.944  17.116  0.00  0.00    +0.000 A 
ATOM      5  N   UNL     1       6.404   5.403  17.710  0.00  0.00    +0.000 NA
ATOM      6  C   UNL     1       7.181   4.618  16.967  0.00  0.00    +0.000 A 
ATOM      7  N   UNL     1       6.964   4.290  15.690  0.00  0.00    +0.000 NA
ATOM      8  H   UNL     1       4.616   4.537  13.583  0.00  0.00    +0.000 HD
ENDROOT
BRANCH   4   9
ATOM      9  N   UNL     1       4.455   6.755  17.860  0.00  0.00    +0.000 N 
ATOM     10  C   UNL     1       3.182   6.360  18.220  0.00  0.00    +0.000 C 
ATOM     11  O   UNL     1       2.672   5.260  18.011  0.00  0.00    +0.000 OA
ATOM     12  H   UNL     1       4.797   7.659  18.152  0.00  0.00    +0.000 HD
BRANCH  10  13
ATOM     13  C   UNL     1       2.331   7.352  18.940  0.00  0.00    +0.000 A 
ATOM     14  C   UNL     1       1.971   7.223  20.290  0.00  0.00    +0.000 A 
ATOM     15  C   UNL     1       1.243   8.244  20.917  0.00  0.00    +0.000 A 
ATOM     16  C   UNL     1       0.883   9.387  20.205  0.00  0.00    +0.000 A 
ATOM     17  C   UNL     1       1.241   9.506  18.870  0.00  0.00    +0.000 A 
ATOM     18  F   UNL     1       0.905  10.611  18.190  0.00  0.00    +0.000 F 
ATOM     19  C   UNL     1       1.957   8.504  18.232  0.00  0.00    +0.000 A 
ENDBRANCH  10  13
ENDBRANCH   4   9
BRANCH   1  20
ATOM     20  C   UNL     1       6.251   3.321  13.271  0.00  0.00    +0.000 C 
BRANCH  20  22
ATOM     21  C   UNL     1       6.239   1.639  11.376  0.00  0.00    +0.000 C 
ATOM     22  C   UNL     1       5.861   3.058  11.806  0.00  0.00    +0.000 C 
ATOM     23  C   UNL     1       4.359   3.277  11.611  0.00  0.00    +0.000 C 
ENDBRANCH  20  22
ENDBRANCH   1  20
TORSDOF 4
ENDMDL
MODEL 3
REMARK VINA RESULT:      -7.2      1.096      1.669
REMARK  Name = 
REMARK  6 active torsions:
REMARK  status: ('A' for Active; 'I' for Inactive)
REMARK    1  A    between atoms: C_1  and  C_2
REMARK    2  A    between atoms: C_2  and  C_3
REMARK    3  A    between atoms: C_2  and  C_4
REMARK    4  A    between atoms: C_4  and  N_5
REMARK    5  A    between atoms: C_8  and  N_9
REMARK    6  A    between atoms: C_10  and  C_12
REMARK                            x       y       z     vdW  Elec       q    Type
REMARK                         _______ _______ _______ _____ _____    ______ ____
ROOT
ATOM      1  N   UNL     1       3.935   4.903  17.845  0.00  0.00    +0.000 N 
ATOM      2  C   UNL     1       5.131   5.343  17.240  0.00  0.00    +0.000 A 
ATOM      3  C   UNL     1       5.620   6.599  17.564  0.00  0.00    +0.000 A 
ATOM      4  C   UNL     1       6.794   6.995  16.956  0.00  0.00    +0.000 A 
ATOM      5  N   UNL     1       7.406   6.230  16.049  0.00  0.00    +0.000 NA
ATOM      6  C   UNL     1       6.836   5.064  15.754  0.00  0.00    +0.000 A 
ATOM      7  N   UNL     1       5.728   4.573  16.319  0.00  0.00    +0.000 NA
ATOM      8  H   UNL     1       3.882   5.236  18.802  0.00  0.00    +0.000 HD
ENDROOT
BRANCH   4   9
ATOM      9  N   UNL     1       7.368   8.227  17.339  0.00  0.00    +0.000 N 
ATOM     10  C   UNL     1       8.266   8.355  18.380  0.00  0.00    +0.000 C 
ATOM     11  O   UNL     1       8.730   7.442  19.061  0.00  0.00    +0.000 OA
ATOM     12  H   UNL     1       7.114   9.040  16.798  0.00  0.00    +0.000 HD
BRANCH  10  13
ATOM     13  C   UNL     1       8.732   9.731  18.722  0.00  0.00    +0.000 A 
ATOM     14  C   UNL     1       9.214  10.089  19.989  0.00  0.00    +0.000 A 
ATOM     15  C   UNL     1       9.717  11.379  20.204  0.00  0.00    +0.000 A 
ATOM     16  C   UNL     1       9.744  12.304  19.161  0.00  0.00    +0.000 A 
ATOM     17  C   UNL     1       9.263  11.943  17.910  0.00  0.00    +0.000 A 
ATOM     18  F   UNL     1       9.302  12.829  16.905  0.00  0.00    +0.000 F 
ATOM     19  C   UNL     1       8.758  10.672  17.681  0.00  0.00    +0.000 A 
ENDBRANCH  10  13
ENDBRANCH   4   9
BRANCH   1  20
ATOM     20  C   UNL     1       3.757   3.447  17.785  0.00  0.00    +0.000 C 
BRANCH  20  22
ATOM     21  C   UNL     1       1.807   2.101  18.680  0.00  0.00    +0.000 C 
ATOM     22  C   UNL     1       2.268   3.102  17.619  0.00  0.00    +0.000 C 
ATOM     23  C   UNL     1       1.418   4.372  17.698  0.00  0.00    +0.000 C 
ENDBRANCH  20  22
ENDBRANCH   1  20
TORSDOF 4
ENDMDL
MODEL 4
REMARK VINA RESULT:      -7.2      4.888      6.291
REMARK  Name = 
REMARK  6 active torsions:
REMARK  status: ('A' for Active; 'I' for Inactive)
REMARK    1  A    between atoms: C_1  and  C_2
REMARK    2  A    between atoms: C_2  and  C_3
REMARK    3  A    between atoms: C_2  and  C_4
REMARK    4  A    between atoms: C_4  and  N_5
REMARK    5  A    between atoms: C_8  and  N_9
REMARK    6  A    between atoms: C_10  and  C_12
REMARK                            x       y       z     vdW  Elec       q    Type
REMARK                         _______ _______ _______ _____ _____    ______ ____
ROOT
ATOM      1  N   UNL     1       5.820   4.581  13.417  0.00  0.00    +0.000 N 
ATOM      2  C   UNL     1       6.019   4.864  14.785  0.00  0.00    +0.000 A 
ATOM      3  C   UNL     1       5.217   5.817  15.392  0.00  0.00    +0.000 A 
ATOM      4  C   UNL     1       5.437   6.066  16.732  0.00  0.00    +0.000 A 
ATOM      5  N   UNL     1       6.419   5.462  17.404  0.00  0.00    +0.000 NA
ATOM      6  C   UNL     1       7.179   4.604  16.728  0.00  0.00    +0.000 A 
ATOM      7  N   UNL     1       7.019   4.263  15.446  0.00  0.00    +0.000 NA
ATOM      8  H   UNL     1       4.833   4.632  13.188  0.00  0.00    +0.000 HD
ENDROOT
BRANCH   4   9
ATOM      9  N   UNL     1       4.572   6.959  17.402  0.00  0.00    +0.000 N 
ATOM     10  C   UNL     1       3.335   6.593  17.894  0.00  0.00    +0.000 C 
ATOM     11  O   UNL     1       2.849   5.462  17.880  0.00  0.00    +0.000 OA
ATOM     12  H   UNL     1       4.902   7.904  17.537  0.00  0.00    +0.000 HD
BRANCH  10  13
ATOM     13  C   UNL     1       2.496   7.661  18.512  0.00  0.00    +0.000 A 
ATOM     14  C   UNL     1       1.979   8.747  17.792  0.00  0.00    +0.000 A 
ATOM     15  C   UNL     1       1.125   9.660  18.426  0.00  0.00    +0.000 A 
ATOM     16  C   UNL     1       0.785   9.487  19.767  0.00  0.00    +0.000 A 
ATOM     17  C   UNL     1       1.302   8.410  20.474  0.00  0.00    +0.000 A 
ATOM     18  F   UNL     1       0.965   8.238  21.759  0.00  0.00    +0.000 F 
ATOM     19  C   UNL     1       2.152   7.501  19.863  0.00  0.00    +0.000 A 
ENDBRANCH  10  13
ENDBRANCH   4   9
BRANCH   1  20
ATOM     20  C   UNL     1       6.388   3.292  13.005  0.00  0.00    +0.000 C 
BRANCH  20  22
ATOM     21  C   UNL     1       4.434   3.488  11.404  0.00  0.00    +0.000 C 
ATOM     22  C   UNL     1       5.384   2.529  12.124  0.00  0.00    +0.000 C 
ATOM     23  C   UNL     1       6.126   1.667  11.100  0.00  0.00    +0.000 C 
ENDBRANCH  20  22
ENDBRANCH   1  20
TORSDOF 4
ENDMDL
MODEL 5
REMARK VINA RESULT:      -6.9      5.504      6.966
REMARK  Name = 
REMARK  6 active torsions:
REMARK  status: ('A' for Active; 'I' for Inactive)
REMARK    1  A    between atoms: C_1  and  C_2
REMARK    2  A    between atoms: C_2  and  C_3
REMARK    3  A    between atoms: C_2  and  C_4
REMARK    4  A    between atoms: C_4  and  N_5
REMARK    5  A    between atoms: C_8  and  N_9
REMARK    6  A    between atoms: C_10  and  C_12
REMARK                            x       y       z     vdW  Elec       q    Type
REMARK                         _______ _______ _______ _____ _____    ______ ____
ROOT
ATOM      1  N   UNL     1       2.009   7.204  19.298  0.00  0.00    +0.000 N 
ATOM      2  C   UNL     1       2.795   6.060  19.043  0.00  0.00    +0.000 A 
ATOM      3  C   UNL     1       3.259   5.842  17.756  0.00  0.00    +0.000 A 
ATOM      4  C   UNL     1       4.027   4.714  17.544  0.00  0.00    +0.000 A 
ATOM      5  N   UNL     1       4.266   3.837  18.521  0.00  0.00    +0.000 NA
ATOM      6  C   UNL     1       3.733   4.095  19.713  0.00  0.00    +0.000 A 
ATOM      7  N   UNL     1       3.015   5.177  20.029  0.00  0.00    +0.000 NA
ATOM      8  H   UNL     1       2.335   7.985  18.737  0.00  0.00    +0.000 HD
ENDROOT
BRANCH   4   9
ATOM      9  N   UNL     1       4.595   4.517  16.267  0.00  0.00    +0.000 N 
ATOM     10  C   UNL     1       5.880   4.902  15.939  0.00  0.00    +0.000 C 
ATOM     11  O   UNL     1       6.711   5.397  16.701  0.00  0.00    +0.000 OA
ATOM     12  H   UNL     1       4.025   4.049  15.578  0.00  0.00    +0.000 HD
BRANCH  10  13
ATOM     13  C   UNL     1       6.321   4.700  14.528  0.00  0.00    +0.000 A 
ATOM     14  C   UNL     1       7.420   5.361  13.962  0.00  0.00    +0.000 A 
ATOM     15  C   UNL     1       7.824   5.049  12.656  0.00  0.00    +0.000 A 
ATOM     16  C   UNL     1       7.140   4.080  11.924  0.00  0.00    +0.000 A 
ATOM     17  C   UNL     1       6.053   3.430  12.491  0.00  0.00    +0.000 A 
ATOM     18  F   UNL     1       5.404   2.490  11.790  0.00  0.00    +0.000 F 
ATOM     19  C   UNL     1       5.636   3.730  13.779  0.00  0.00    +0.000 A 
ENDBRANCH  10  13
ENDBRANCH   4   9
BRANCH   1  20
ATOM     20  C   UNL     1       1.955   7.565  20.719  0.00  0.00    +0.000 C 
BRANCH  20  22
ATOM     21  C   UNL     1       0.945   9.230  22.339  0.00  0.00    +0.000 C 
ATOM     22  C   UNL     1       0.810   8.561  20.970  0.00  0.00    +0.000 C 
ATOM     23  C   UNL     1       0.785   9.625  19.871  0.00  0.00    +0.000 C 
ENDBRANCH  20  22
ENDBRANCH   1  20
TORSDOF 4
ENDMDL
MODEL 6
REMARK VINA RESULT:      -6.9      4.330      8.412
REMARK  Name = 
REMARK  6 active torsions:
REMARK  status: ('A' for Active; 'I' for Inactive)
REMARK    1  A    between atoms: C_1  and  C_2
REMARK    2  A    between atoms: C_2  and  C_3
REMARK    3  A    between atoms: C_2  and  C_4
REMARK    4  A    between atoms: C_4  and  N_5
REMARK    5  A    between atoms: C_8  and  N_9
REMARK    6  A    between atoms: C_10  and  C_12
REMARK                            x       y       z     vdW  Elec       q    Type
REMARK                         _______ _______ _______ _____ _____    ______ ____
ROOT
ATOM      1  N   UNL     1       7.950   8.686  17.786  0.00  0.00    +0.000 N 
ATOM      2  C   UNL     1       7.771   7.289  17.879  0.00  0.00    +0.000 A 
ATOM      3  C   UNL     1       7.198   6.618  16.810  0.00  0.00    +0.000 A 
ATOM      4  C   UNL     1       7.041   5.252  16.934  0.00  0.00    +0.000 A 
ATOM      5  N   UNL     1       7.372   4.608  18.055  0.00  0.00    +0.000 NA
ATOM      6  C   UNL     1       7.862   5.339  19.053  0.00  0.00    +0.000 A 
ATOM      7  N   UNL     1       8.092   6.656  19.016  0.00  0.00    +0.000 NA
ATOM      8  H   UNL     1       8.190   8.947  16.836  0.00  0.00    +0.000 HD
ENDROOT
BRANCH   4   9
ATOM      9  N   UNL     1       6.551   4.527  15.826  0.00  0.00    +0.000 N 
ATOM     10  C   UNL     1       6.968   4.749  14.528  0.00  0.00    +0.000 C 
ATOM     11  O   UNL     1       7.843   5.535  14.167  0.00  0.00    +0.000 OA
ATOM     12  H   UNL     1       5.877   3.799  16.015  0.00  0.00    +0.000 HD
BRANCH  10  13
ATOM     13  C   UNL     1       6.307   3.960  13.448  0.00  0.00    +0.000 A 
ATOM     14  C   UNL     1       4.936   4.043  13.162  0.00  0.00    +0.000 A 
ATOM     15  C   UNL     1       4.408   3.337  12.073  0.00  0.00    +0.000 A 
ATOM     16  C   UNL     1       5.242   2.559  11.271  0.00  0.00    +0.000 A 
ATOM     17  C   UNL     1       6.596   2.480  11.561  0.00  0.00    +0.000 A 
ATOM     18  F   UNL     1       7.399   1.742  10.782  0.00  0.00    +0.000 F 
ATOM     19  C   UNL     1       7.135   3.168  12.638  0.00  0.00    +0.000 A 
ENDBRANCH  10  13
ENDBRANCH   4   9
BRANCH   1  20
ATOM     20  C   UNL     1       8.936   9.207  18.739  0.00  0.00    +0.000 C 
BRANCH  20  22
ATOM     21  C   UNL     1       9.154  11.382  20.020  0.00  0.00    +0.000 C 
ATOM     22  C   UNL     1       9.011  10.740  18.639  0.00  0.00    +0.000 C 
ATOM     23  C   UNL     1      10.183  11.156  17.748  0.00  0.00    +0.000 C 
ENDBRANCH  20  22
ENDBRANCH   1  20
TORSDOF 4
ENDMDL
MODEL 7
REMARK VINA RESULT:      -6.9      4.997      6.900
REMARK  Name = 
REMARK  6 active torsions:
REMARK  status: ('A' for Active; 'I' for Inactive)
REMARK    1  A    between atoms: C_1  and  C_2
REMARK    2  A    between atoms: C_2  and  C_3
REMARK    3  A    between atoms: C_2  and  C_4
REMARK    4  A    between atoms: C_4  and  N_5
REMARK    5  A    between atoms: C_8  and  N_9
REMARK    6  A    between atoms: C_10  and  C_12
REMARK                            x       y       z     vdW  Elec       q    Type
REMARK                         _______ _______ _______ _____ _____    ______ ____
ROOT
ATOM      1  N   UNL     1       6.119   5.224  18.044  0.00  0.00    +0.000 N 
ATOM      2  C   UNL     1       4.847   4.933  18.582  0.00  0.00    +0.000 A 
ATOM      3  C   UNL     1       4.166   5.931  19.261  0.00  0.00    +0.000 A 
ATOM      4  C   UNL     1       2.923   5.613  19.771  0.00  0.00    +0.000 A 
ATOM      5  N   UNL     1       2.420   4.381  19.670  0.00  0.00    +0.000 NA
ATOM      6  C   UNL     1       3.167   3.468  19.052  0.00  0.00    +0.000 A 
ATOM      7  N   UNL     1       4.358   3.688  18.488  0.00  0.00    +0.000 NA
ATOM      8  H   UNL     1       6.145   6.178  17.701  0.00  0.00    +0.000 HD
ENDROOT
BRANCH   4   9
ATOM      9  N   UNL     1       2.164   6.634  20.382  0.00  0.00    +0.000 N 
ATOM     10  C   UNL     1       1.852   7.826  19.757  0.00  0.00    +0.000 C 
ATOM     11  O   UNL     1       2.124   8.135  18.598  0.00  0.00    +0.000 OA
ATOM     12  H   UNL     1       1.823   6.457  21.315  0.00  0.00    +0.000 HD
BRANCH  10  13
ATOM     13  C   UNL     1       1.108   8.846  20.552  0.00  0.00    +0.000 A 
ATOM     14  C   UNL     1       0.426   9.926  19.974  0.00  0.00    +0.000 A 
ATOM     15  C   UNL     1      -0.324  10.790  20.783  0.00  0.00    +0.000 A 
ATOM     16  C   UNL     1      -0.398  10.575  22.159  0.00  0.00    +0.000 A 
ATOM     17  C   UNL     1       0.281   9.504  22.724  0.00  0.00    +0.000 A 
ATOM     18  F   UNL     1       0.198   9.290  24.044  0.00  0.00    +0.000 F 
ATOM     19  C   UNL     1       1.031   8.642  21.939  0.00  0.00    +0.000 A 
ENDBRANCH  10  13
ENDBRANCH   4   9
BRANCH   1  20
ATOM     20  C   UNL     1       6.534   4.279  17.000  0.00  0.00    +0.000 C 
BRANCH  20  22
ATOM     21  C   UNL     1       6.237   3.933  14.508  0.00  0.00    +0.000 C 
ATOM     22  C   UNL     1       6.477   4.957  15.620  0.00  0.00    +0.000 C 
ATOM     23  C   UNL     1       5.374   6.017  15.596  0.00  0.00    +0.000 C 
ENDBRANCH  20  22
ENDBRANCH   1  20
TORSDOF 4
ENDMDL
MODEL 8
REMARK VINA RESULT:      -6.9      2.674      3.772
REMARK  Name = 
REMARK  6 active torsions:
REMARK  status: ('A' for Active; 'I' for Inactive)
REMARK    1  A    between atoms: C_1  and  C_2
REMARK    2  A    between atoms: C_2  and  C_3
REMARK    3  A    between atoms: C_2  and  C_4
REMARK    4  A    between atoms: C_4  and  N_5
REMARK    5  A    between atoms: C_8  and  N_9
REMARK    6  A    between atoms: C_10  and  C_12
REMARK                            x       y       z     vdW  Elec       q    Type
REMARK                         _______ _______ _______ _____ _____    ______ ____
ROOT
ATOM      1  N   UNL     1       7.107   5.296  15.172  0.00  0.00    +0.000 N 
ATOM      2  C   UNL     1       7.143   5.552  16.560  0.00  0.00    +0.000 A 
ATOM      3  C   UNL     1       7.887   6.626  17.020  0.00  0.00    +0.000 A 
ATOM      4  C   UNL     1       7.896   6.849  18.383  0.00  0.00    +0.000 A 
ATOM      5  N   UNL     1       7.265   6.033  19.230  0.00  0.00    +0.000 NA
ATOM      6  C   UNL     1       6.623   4.992  18.706  0.00  0.00    +0.000 A 
ATOM      7  N   UNL     1       6.519   4.716  17.402  0.00  0.00    +0.000 NA
ATOM      8  H   UNL     1       7.113   6.168  14.654  0.00  0.00    +0.000 HD
ENDROOT
BRANCH   4   9
ATOM      9  N   UNL     1       8.564   7.992  18.874  0.00  0.00    +0.000 N 
ATOM     10  C   UNL     1       8.380   9.259  18.358  0.00  0.00    +0.000 C 
ATOM     11  O   UNL     1       7.590   9.579  17.471  0.00  0.00    +0.000 OA
ATOM     12  H   UNL     1       9.188   7.859  19.656  0.00  0.00    +0.000 HD
BRANCH  10  13
ATOM     13  C   UNL     1       9.211  10.361  18.925  0.00  0.00    +0.000 A 
ATOM     14  C   UNL     1       9.305  10.627  20.299  0.00  0.00    +0.000 A 
ATOM     15  C   UNL     1      10.177  11.623  20.758  0.00  0.00    +0.000 A 
ATOM     16  C   UNL     1      10.956  12.344  19.853  0.00  0.00    +0.000 A 
ATOM     17  C   UNL     1      10.858  12.076  18.495  0.00  0.00    +0.000 A 
ATOM     18  F   UNL     1      11.616  12.760  17.628  0.00  0.00    +0.000 F 
ATOM     19  C   UNL     1       9.996  11.097  18.024  0.00  0.00    +0.000 A 
ENDBRANCH  10  13
ENDBRANCH   4   9
BRANCH   1  20
ATOM     20  C   UNL     1       5.976   4.452  14.768  0.00  0.00    +0.000 C 
BRANCH  20  22
ATOM     21  C   UNL     1       4.974   3.570  12.615  0.00  0.00    +0.000 C 
ATOM     22  C   UNL     1       6.264   3.797  13.407  0.00  0.00    +0.000 C 
ATOM     23  C   UNL     1       7.226   4.666  12.594  0.00  0.00    +0.000 C 
ENDBRANCH  20  22
ENDBRANCH   1  20
TORSDOF 4
ENDMDL
MODEL 9
REMARK VINA RESULT:      -6.8      4.933      6.183
REMARK  Name = 
REMARK  6 active torsions:
REMARK  status: ('A' for Active; 'I' for Inactive)
REMARK    1  A    between atoms: C_1  and  C_2
REMARK    2  A    between atoms: C_2  and  C_3
REMARK    3  A    between atoms: C_2  and  C_4
REMARK    4  A    between atoms: C_4  and  N_5
REMARK    5  A    between atoms: C_8  and  N_9
REMARK    6  A    between atoms: C_10  and  C_12
REMARK                            x       y       z     vdW  Elec       q    Type
REMARK                         _______ _______ _______ _____ _____    ______ ____
ROOT
ATOM      1  N   UNL     1       3.301   4.503  20.294  0.00  0.00    +0.000 N 
ATOM      2  C   UNL     1       3.404   5.474  19.274  0.00  0.00    +0.000 A 
ATOM      3  C   UNL     1       4.180   5.192  18.162  0.00  0.00    +0.000 A 
ATOM      4  C   UNL     1       4.256   6.163  17.183  0.00  0.00    +0.000 A 
ATOM      5  N   UNL     1       3.657   7.347  17.324  0.00  0.00    +0.000 NA
ATOM      6  C   UNL     1       2.980   7.555  18.451  0.00  0.00    +0.000 A 
ATOM      7  N   UNL     1       2.812   6.666  19.435  0.00  0.00    +0.000 NA
ATOM      8  H   UNL     1       3.291   3.572  19.892  0.00  0.00    +0.000 HD
ENDROOT
BRANCH   4   9
ATOM      9  N   UNL     1       4.958   5.867  15.994  0.00  0.00    +0.000 N 
ATOM     10  C   UNL     1       5.216   4.581  15.564  0.00  0.00    +0.000 C 
ATOM     11  O   UNL     1       4.831   3.541  16.098  0.00  0.00    +0.000 OA
ATOM     12  H   UNL     1       5.260   6.650  15.432  0.00  0.00    +0.000 HD
BRANCH  10  13
ATOM     13  C   UNL     1       6.036   4.419  14.328  0.00  0.00    +0.000 A 
ATOM     14  C   UNL     1       5.687   3.558  13.278  0.00  0.00    +0.000 A 
ATOM     15  C   UNL     1       6.464   3.530  12.112  0.00  0.00    +0.000 A 
ATOM     16  C   UNL     1       7.578   4.360  11.992  0.00  0.00    +0.000 A 
ATOM     17  C   UNL     1       7.918   5.209  13.036  0.00  0.00    +0.000 A 
ATOM     18  F   UNL     1       8.981   6.015  12.914  0.00  0.00    +0.000 F 
ATOM     19  C   UNL     1       7.163   5.245  14.198  0.00  0.00    +0.000 A 
ENDBRANCH  10  13
ENDBRANCH   4   9
BRANCH   1  20
ATOM     20  C   UNL     1       2.143   4.708  21.172  0.00  0.00    +0.000 C 
BRANCH  20  22
ATOM     21  C   UNL     1       0.684   3.102  19.864  0.00  0.00    +0.000 C 
ATOM     22  C   UNL     1       1.290   3.430  21.231  0.00  0.00    +0.000 C 
ATOM     23  C   UNL     1       2.134   2.252  21.721  0.00  0.00    +0.000 C 
ENDBRANCH  20  22
ENDBRANCH   1  20
TORSDOF 4
ENDMDL
