MODEL 1
REMARK VINA RESULT:      -7.9      0.000      0.000
REMARK  Name = 
REMARK  6 active torsions:
REMARK  status: ('A' for Active; 'I' for Inactive)
REMARK    1  A    between atoms: C_1  and  C_2
REMARK    2  A    between atoms: C_2  and  N_3
REMARK    3  A    between atoms: N_17  and  C_18
REMARK    4  A    between atoms: C_19  and  C_20
REMARK    5  A    between atoms: C_23  and  C_24
REMARK    6  A    between atoms: N_27  and  C_28
REMARK                            x       y       z     vdW  Elec       q    Type
REMARK                         _______ _______ _______ _____ _____    ______ ____
ROOT
ATOM      1  N   UNL     1       0.952  11.175  20.952  0.00  0.00    +0.000 N 
ATOM      2  C   UNL     1       0.591  10.199  21.827  0.00  0.00    +0.000 A 
ATOM      3  C   UNL     1       0.814   9.021  21.162  0.00  0.00    +0.000 A 
ATOM      4  C   UNL     1       1.354   9.378  19.905  0.00  0.00    +0.000 A 
ATOM      5  N   UNL     1       1.805   8.529  18.966  0.00  0.00    +0.000 N 
ATOM      6  C   UNL     1       2.144   7.185  19.088  0.00  0.00    +0.000 A 
ATOM      7  N   UNL     1       1.720   6.467  20.148  0.00  0.00    +0.000 NA
ATOM      8  C   UNL     1       2.054   5.171  20.227  0.00  0.00    +0.000 A 
ATOM      9  C   UNL     1       2.801   4.545  19.275  0.00  0.00    +0.000 A 
ATOM     10  C   UNL     1       3.295   5.391  18.289  0.00  0.00    +0.000 A 
ATOM     11  N   UNL     1       2.931   6.675  18.139  0.00  0.00    +0.000 NA
ATOM     12  C   UNL     1       4.232   4.802  17.353  0.00  0.00    +0.000 A 
ATOM     13  C   UNL     1       4.245   3.408  17.135  0.00  0.00    +0.000 A 
ATOM     14  N   UNL     1       5.305   2.997  16.448  0.00  0.00    +0.000 NA
ATOM     15  N   UNL     1       6.027   4.138  16.299  0.00  0.00    +0.000 N 
ATOM     16  C   UNL     1       7.280   4.055  15.587  0.00  0.00    +0.000 C 
ATOM     17  C   UNL     1       5.509   5.220  16.998  0.00  0.00    +0.000 A 
ATOM     18  C   UNL     1       3.297   2.514  17.858  0.00  0.00    +0.000 C 
ATOM     19  C   UNL     1       3.129   3.075  19.298  0.00  0.00    +0.000 C 
ATOM     20  N   UNL     1       1.392  10.710  19.770  0.00  0.00    +0.000 NA
ATOM     21  H   UNL     1       2.219   8.918  18.134  0.00  0.00    +0.000 HD
ENDROOT
BRANCH  17  22
ATOM     22  C   UNL     1       6.281   6.407  17.403  0.00  0.00    +0.000 A 
ATOM     23  C   UNL     1       7.382   6.310  18.257  0.00  0.00    +0.000 A 
ATOM     24  C   UNL     1       8.175   7.426  18.550  0.00  0.00    +0.000 A 
ATOM     25  C   UNL     1       7.834   8.683  18.048  0.00  0.00    +0.000 A 
ATOM     26  C   UNL     1       6.727   8.794  17.204  0.00  0.00    +0.000 A 
ATOM     27  C   UNL     1       5.985   7.663  16.858  0.00  0.00    +0.000 A 
BRANCH  25  28
ATOM     28  C   UNL     1       8.608   9.854  18.397  0.00  0.00    +0.000 A 
ATOM     29  C   UNL     1       9.497  10.107  19.465  0.00  0.00    +0.000 A 
ATOM     30  N   UNL     1       9.998  11.347  19.434  0.00  0.00    +0.000 NA
ATOM     31  N   UNL     1       9.420  11.886  18.345  0.00  0.00    +0.000 N 
ATOM     32  C   UNL     1       9.699  13.249  17.965  0.00  0.00    +0.000 C 
ATOM     33  C   UNL     1       8.579  11.031  17.695  0.00  0.00    +0.000 A 
ENDBRANCH  25  28
ENDBRANCH  17  22
BRANCH   1  35
ATOM     34  C   UNL     1       1.933  13.338  20.337  0.00  0.00    +0.000 C 
ATOM     35  C   UNL     1       0.949  12.599  21.224  0.00  0.00    +0.000 C 
ENDBRANCH   1  35
TORSDOF 3
ENDMDL
MODEL 2
REMARK VINA RESULT:      -7.8      1.244      1.710
REMARK  Name = 
REMARK  6 active torsions:
REMARK  status: ('A' for Active; 'I' for Inactive)
REMARK    1  A    between atoms: C_1  and  C_2
REMARK    2  A    between atoms: C_2  and  N_3
REMARK    3  A    between atoms: N_17  and  C_18
REMARK    4  A    between atoms: C_19  and  C_20
REMARK    5  A    between atoms: C_23  and  C_24
REMARK    6  A    between atoms: N_27  and  C_28
REMARK                            x       y       z     vdW  Elec       q    Type
REMARK                         _______ _______ _______ _____ _____    ______ ____
ROOT
ATOM      1  N   UNL     1       1.747  12.936  19.353  0.00  0.00    +0.000 N 
ATOM      2  C   UNL     1       1.080  12.175  20.262  0.00  0.00    +0.000 A 
ATOM      3  C   UNL     1       1.181  10.890  19.797  0.00  0.00    +0.000 A 
ATOM      4  C   UNL     1       1.966  10.960  18.622  0.00  0.00    +0.000 A 
ATOM      5  N   UNL     1       2.392   9.916  17.889  0.00  0.00    +0.000 N 
ATOM      6  C   UNL     1       2.453   8.569  18.234  0.00  0.00    +0.000 A 
ATOM      7  N   UNL     1       1.744   8.099  19.280  0.00  0.00    +0.000 NA
ATOM      8  C   UNL     1       1.817   6.793  19.575  0.00  0.00    +0.000 A 
ATOM      9  C   UNL     1       2.573   5.917  18.856  0.00  0.00    +0.000 A 
ATOM     10  C   UNL     1       3.361   6.513  17.878  0.00  0.00    +0.000 A 
ATOM     11  N   UNL     1       3.269   7.801  17.509  0.00  0.00    +0.000 NA
ATOM     12  C   UNL     1       4.306   5.645  17.203  0.00  0.00    +0.000 A 
ATOM     13  C   UNL     1       4.094   4.250  17.163  0.00  0.00    +0.000 A 
ATOM     14  N   UNL     1       5.153   3.574  16.731  0.00  0.00    +0.000 NA
ATOM     15  N   UNL     1       6.089   4.548  16.576  0.00  0.00    +0.000 N 
ATOM     16  C   UNL     1       7.399   4.156  16.115  0.00  0.00    +0.000 C 
ATOM     17  C   UNL     1       5.678   5.793  17.034  0.00  0.00    +0.000 A 
ATOM     18  C   UNL     1       2.897   3.642  17.808  0.00  0.00    +0.000 C 
ATOM     19  C   UNL     1       2.616   4.434  19.116  0.00  0.00    +0.000 C 
ATOM     20  N   UNL     1       2.270  12.232  18.335  0.00  0.00    +0.000 NA
ATOM     21  H   UNL     1       2.994  10.103  17.104  0.00  0.00    +0.000 HD
ENDROOT
BRANCH  17  22
ATOM     22  C   UNL     1       6.584   6.886  17.422  0.00  0.00    +0.000 A 
ATOM     23  C   UNL     1       6.390   8.195  16.970  0.00  0.00    +0.000 A 
ATOM     24  C   UNL     1       7.191   9.248  17.430  0.00  0.00    +0.000 A 
ATOM     25  C   UNL     1       8.254   8.996  18.299  0.00  0.00    +0.000 A 
ATOM     26  C   UNL     1       8.465   7.690  18.746  0.00  0.00    +0.000 A 
ATOM     27  C   UNL     1       7.616   6.658  18.340  0.00  0.00    +0.000 A 
BRANCH  25  28
ATOM     28  C   UNL     1       9.127  10.067  18.728  0.00  0.00    +0.000 A 
ATOM     29  C   UNL     1       9.376  10.621  20.002  0.00  0.00    +0.000 A 
ATOM     30  N   UNL     1      10.254  11.629  19.961  0.00  0.00    +0.000 NA
ATOM     31  N   UNL     1      10.561  11.719  18.654  0.00  0.00    +0.000 N 
ATOM     32  C   UNL     1      11.489  12.717  18.185  0.00  0.00    +0.000 C 
ATOM     33  C   UNL     1       9.908  10.807  17.878  0.00  0.00    +0.000 A 
ENDBRANCH  25  28
ENDBRANCH  17  22
BRANCH   1  35
ATOM     34  C   UNL     1       0.763  15.146  18.946  0.00  0.00    +0.000 C 
ATOM     35  C   UNL     1       1.965  14.366  19.445  0.00  0.00    +0.000 C 
ENDBRANCH   1  35
TORSDOF 3
ENDMDL
MODEL 3
REMARK VINA RESULT:      -7.7      3.075      9.837
REMARK  Name = 
REMARK  6 active torsions:
REMARK  status: ('A' for Active; 'I' for Inactive)
REMARK    1  A    between atoms: C_1  and  C_2
REMARK    2  A    between atoms: C_2  and  N_3
REMARK    3  A    between atoms: N_17  and  C_18
REMARK    4  A    between atoms: C_19  and  C_20
REMARK    5  A    between atoms: C_23  and  C_24
REMARK    6  A    between atoms: N_27  and  C_28
REMARK                            x       y       z     vdW  Elec       q    Type
REMARK                         _______ _______ _______ _____ _____    ______ ____
ROOT
ATOM      1  N   UNL     1       6.827   7.082  17.779  0.00  0.00    +0.000 N 
ATOM      2  C   UNL     1       7.818   6.888  18.690  0.00  0.00    +0.000 A 
ATOM      3  C   UNL     1       8.570   8.033  18.649  0.00  0.00    +0.000 A 
ATOM      4  C   UNL     1       7.933   8.887  17.717  0.00  0.00    +0.000 A 
ATOM      5  N   UNL     1       8.284  10.153  17.434  0.00  0.00    +0.000 N 
ATOM      6  C   UNL     1       9.099  11.020  18.155  0.00  0.00    +0.000 A 
ATOM      7  N   UNL     1       9.935  10.545  19.100  0.00  0.00    +0.000 NA
ATOM      8  C   UNL     1      10.716  11.408  19.765  0.00  0.00    +0.000 A 
ATOM      9  C   UNL     1      10.705  12.748  19.522  0.00  0.00    +0.000 A 
ATOM     10  C   UNL     1       9.727  13.157  18.624  0.00  0.00    +0.000 A 
ATOM     11  N   UNL     1       8.973  12.322  17.890  0.00  0.00    +0.000 NA
ATOM     12  C   UNL     1       9.565  14.589  18.463  0.00  0.00    +0.000 A 
ATOM     13  C   UNL     1      10.624  15.468  18.777  0.00  0.00    +0.000 A 
ATOM     14  N   UNL     1      10.250  16.742  18.814  0.00  0.00    +0.000 NA
ATOM     15  N   UNL     1       8.909  16.668  18.606  0.00  0.00    +0.000 N 
ATOM     16  C   UNL     1       8.160  17.902  18.591  0.00  0.00    +0.000 C 
ATOM     17  C   UNL     1       8.420  15.369  18.579  0.00  0.00    +0.000 A 
ATOM     18  C   UNL     1      11.926  14.945  19.276  0.00  0.00    +0.000 C 
ATOM     19  C   UNL     1      11.622  13.732  20.200  0.00  0.00    +0.000 C 
ATOM     20  N   UNL     1       6.886   8.270  17.155  0.00  0.00    +0.000 NA
ATOM     21  H   UNL     1       7.708  10.670  16.789  0.00  0.00    +0.000 HD
ENDROOT
BRANCH  17  22
ATOM     22  C   UNL     1       7.020  14.992  18.835  0.00  0.00    +0.000 A 
ATOM     23  C   UNL     1       6.468  15.047  20.118  0.00  0.00    +0.000 A 
ATOM     24  C   UNL     1       5.108  14.791  20.335  0.00  0.00    +0.000 A 
ATOM     25  C   UNL     1       4.288  14.402  19.275  0.00  0.00    +0.000 A 
ATOM     26  C   UNL     1       4.833  14.331  17.991  0.00  0.00    +0.000 A 
ATOM     27  C   UNL     1       6.172  14.658  17.772  0.00  0.00    +0.000 A 
BRANCH  25  28
ATOM     28  C   UNL     1       2.897  14.072  19.499  0.00  0.00    +0.000 A 
ATOM     29  C   UNL     1       2.200  13.690  20.666  0.00  0.00    +0.000 A 
ATOM     30  N   UNL     1       0.904  13.452  20.436  0.00  0.00    +0.000 NA
ATOM     31  N   UNL     1       0.779  13.677  19.114  0.00  0.00    +0.000 N 
ATOM     32  C   UNL     1      -0.495  13.512  18.460  0.00  0.00    +0.000 C 
ATOM     33  C   UNL     1       1.945  14.048  18.513  0.00  0.00    +0.000 A 
ENDBRANCH  25  28
ENDBRANCH  17  22
BRANCH   1  35
ATOM     34  C   UNL     1       4.999   6.540  16.235  0.00  0.00    +0.000 C 
ATOM     35  C   UNL     1       5.740   6.162  17.504  0.00  0.00    +0.000 C 
ENDBRANCH   1  35
TORSDOF 3
ENDMDL
MODEL 4
REMARK VINA RESULT:      -7.6      0.505      1.193
REMARK  Name = 
REMARK  6 active torsions:
REMARK  status: ('A' for Active; 'I' for Inactive)
REMARK    1  A    between atoms: C_1  and  C_2
REMARK    2  A    between atoms: C_2  and  N_3
REMARK    3  A    between atoms: N_17  and  C_18
REMARK    4  A    between atoms: C_19  and  C_20
REMARK    5  A    between atoms: C_23  and  C_24
REMARK    6  A    between atoms: N_27  and  C_28
REMARK                            x       y       z     vdW  Elec       q    Type
REMARK                         _______ _______ _______ _____ _____    ______ ____
ROOT
ATOM      1  N   UNL     1       1.074  11.538  20.588  0.00  0.00    +0.000 N 
ATOM      2  C   UNL     1       0.717  10.626  21.531  0.00  0.00    +0.000 A 
ATOM      3  C   UNL     1       0.917   9.405  20.942  0.00  0.00    +0.000 A 
ATOM      4  C   UNL     1       1.441   9.672  19.656  0.00  0.00    +0.000 A 
ATOM      5  N   UNL     1       1.868   8.758  18.768  0.00  0.00    +0.000 N 
ATOM      6  C   UNL     1       2.195   7.421  18.973  0.00  0.00    +0.000 A 
ATOM      7  N   UNL     1       1.781   6.779  20.084  0.00  0.00    +0.000 NA
ATOM      8  C   UNL     1       2.103   5.488  20.243  0.00  0.00    +0.000 A 
ATOM      9  C   UNL     1       2.828   4.792  19.323  0.00  0.00    +0.000 A 
ATOM     10  C   UNL     1       3.315   5.566  18.277  0.00  0.00    +0.000 A 
ATOM     11  N   UNL     1       2.962   6.842  18.047  0.00  0.00    +0.000 NA
ATOM     12  C   UNL     1       4.231   4.907  17.366  0.00  0.00    +0.000 A 
ATOM     13  C   UNL     1       4.226   3.501  17.241  0.00  0.00    +0.000 A 
ATOM     14  N   UNL     1       5.271   3.034  16.565  0.00  0.00    +0.000 NA
ATOM     15  N   UNL     1       6.003   4.155  16.331  0.00  0.00    +0.000 N 
ATOM     16  C   UNL     1       7.243   4.011  15.607  0.00  0.00    +0.000 C 
ATOM     17  C   UNL     1       5.506   5.287  16.966  0.00  0.00    +0.000 A 
ATOM     18  C   UNL     1       3.281   2.667  18.035  0.00  0.00    +0.000 C 
ATOM     19  C   UNL     1       3.142   3.324  19.437  0.00  0.00    +0.000 C 
ATOM     20  N   UNL     1       1.490  10.992  19.433  0.00  0.00    +0.000 NA
ATOM     21  H   UNL     1       2.273   9.088  17.906  0.00  0.00    +0.000 HD
ENDROOT
BRANCH  17  22
ATOM     22  C   UNL     1       6.296   6.489  17.279  0.00  0.00    +0.000 A 
ATOM     23  C   UNL     1       5.893   7.761  16.864  0.00  0.00    +0.000 A 
ATOM     24  C   UNL     1       6.591   8.909  17.258  0.00  0.00    +0.000 A 
ATOM     25  C   UNL     1       7.756   8.798  18.020  0.00  0.00    +0.000 A 
ATOM     26  C   UNL     1       8.175   7.530  18.429  0.00  0.00    +0.000 A 
ATOM     27  C   UNL     1       7.432   6.397  18.093  0.00  0.00    +0.000 A 
BRANCH  25  28
ATOM     28  C   UNL     1       8.520   9.973  18.377  0.00  0.00    +0.000 A 
ATOM     29  C   UNL     1       8.678  11.220  17.735  0.00  0.00    +0.000 A 
ATOM     30  N   UNL     1       9.503  12.039  18.398  0.00  0.00    +0.000 NA
ATOM     31  N   UNL     1       9.875  11.305  19.464  0.00  0.00    +0.000 N 
ATOM     32  C   UNL     1      10.791  11.841  20.439  0.00  0.00    +0.000 C 
ATOM     33  C   UNL     1       9.314  10.062  19.492  0.00  0.00    +0.000 A 
ENDBRANCH  25  28
ENDBRANCH  17  22
BRANCH   1  35
ATOM     34  C   UNL     1       2.503  13.527  20.738  0.00  0.00    +0.000 C 
ATOM     35  C   UNL     1       1.089  12.977  20.766  0.00  0.00    +0.000 C 
ENDBRANCH   1  35
TORSDOF 3
ENDMDL
MODEL 5
REMARK VINA RESULT:      -7.2      4.547      9.694
REMARK  Name = 
REMARK  6 active torsions:
REMARK  status: ('A' for Active; 'I' for Inactive)
REMARK    1  A    between atoms: C_1  and  C_2
REMARK    2  A    between atoms: C_2  and  N_3
REMARK    3  A    between atoms: N_17  and  C_18
REMARK    4  A    between atoms: C_19  and  C_20
REMARK    5  A    between atoms: C_23  and  C_24
REMARK    6  A    between atoms: N_27  and  C_28
REMARK                            x       y       z     vdW  Elec       q    Type
REMARK                         _______ _______ _______ _____ _____    ______ ____
ROOT
ATOM      1  N   UNL     1       6.235  11.934  25.596  0.00  0.00    +0.000 N 
ATOM      2  C   UNL     1       5.606  13.131  25.449  0.00  0.00    +0.000 A 
ATOM      3  C   UNL     1       6.470  13.902  24.716  0.00  0.00    +0.000 A 
ATOM      4  C   UNL     1       7.579  13.075  24.422  0.00  0.00    +0.000 A 
ATOM      5  N   UNL     1       8.625  13.400  23.642  0.00  0.00    +0.000 N 
ATOM      6  C   UNL     1       8.743  14.433  22.717  0.00  0.00    +0.000 A 
ATOM      7  N   UNL     1       7.887  15.475  22.744  0.00  0.00    +0.000 NA
ATOM      8  C   UNL     1       8.039  16.459  21.846  0.00  0.00    +0.000 A 
ATOM      9  C   UNL     1       9.027  16.453  20.909  0.00  0.00    +0.000 A 
ATOM     10  C   UNL     1       9.778  15.285  20.878  0.00  0.00    +0.000 A 
ATOM     11  N   UNL     1       9.702  14.308  21.798  0.00  0.00    +0.000 NA
ATOM     12  C   UNL     1      10.727  15.163  19.789  0.00  0.00    +0.000 A 
ATOM     13  C   UNL     1      11.216  16.314  19.134  0.00  0.00    +0.000 A 
ATOM     14  N   UNL     1      11.876  16.037  18.015  0.00  0.00    +0.000 NA
ATOM     15  N   UNL     1      11.731  14.690  17.906  0.00  0.00    +0.000 N 
ATOM     16  C   UNL     1      12.333  14.037  16.768  0.00  0.00    +0.000 C 
ATOM     17  C   UNL     1      10.879  14.143  18.857  0.00  0.00    +0.000 A 
ATOM     18  C   UNL     1      10.771  17.674  19.548  0.00  0.00    +0.000 C 
ATOM     19  C   UNL     1       9.268  17.577  19.936  0.00  0.00    +0.000 C 
ATOM     20  N   UNL     1       7.443  11.879  25.008  0.00  0.00    +0.000 NA
ATOM     21  H   UNL     1       9.323  12.695  23.469  0.00  0.00    +0.000 HD
ENDROOT
BRANCH  17  22
ATOM     22  C   UNL     1      10.181  12.854  18.717  0.00  0.00    +0.000 A 
ATOM     23  C   UNL     1       9.073  12.707  17.877  0.00  0.00    +0.000 A 
ATOM     24  C   UNL     1       8.483  11.455  17.667  0.00  0.00    +0.000 A 
ATOM     25  C   UNL     1       8.947  10.333  18.357  0.00  0.00    +0.000 A 
ATOM     26  C   UNL     1      10.045  10.472  19.209  0.00  0.00    +0.000 A 
ATOM     27  C   UNL     1      10.674  11.710  19.355  0.00  0.00    +0.000 A 
BRANCH  25  28
ATOM     28  C   UNL     1       8.303   9.048  18.196  0.00  0.00    +0.000 A 
ATOM     29  C   UNL     1       7.232   8.631  17.376  0.00  0.00    +0.000 A 
ATOM     30  N   UNL     1       6.925   7.340  17.548  0.00  0.00    +0.000 NA
ATOM     31  N   UNL     1       7.801   6.937  18.487  0.00  0.00    +0.000 N 
ATOM     32  C   UNL     1       7.787   5.578  18.968  0.00  0.00    +0.000 C 
ATOM     33  C   UNL     1       8.642   7.925  18.907  0.00  0.00    +0.000 A 
ENDBRANCH  25  28
ENDBRANCH  17  22
BRANCH   1  35
ATOM     34  C   UNL     1       4.537  11.132  27.174  0.00  0.00    +0.000 C 
ATOM     35  C   UNL     1       5.687  10.765  26.255  0.00  0.00    +0.000 C 
ENDBRANCH   1  35
TORSDOF 3
ENDMDL
MODEL 6
REMARK VINA RESULT:      -7.1      3.366      8.839
REMARK  Name = 
REMARK  6 active torsions:
REMARK  status: ('A' for Active; 'I' for Inactive)
REMARK    1  A    between atoms: C_1  and  C_2
REMARK    2  A    between atoms: C_2  and  N_3
REMARK    3  A    between atoms: N_17  and  C_18
REMARK    4  A    between atoms: C_19  and  C_20
REMARK    5  A    between atoms: C_23  and  C_24
REMARK    6  A    between atoms: N_27  and  C_28
REMARK                            x       y       z     vdW  Elec       q    Type
REMARK                         _______ _______ _______ _____ _____    ______ ____
ROOT
ATOM      1  N   UNL     1       1.472  13.084  20.539  0.00  0.00    +0.000 N 
ATOM      2  C   UNL     1       1.320  14.155  19.715  0.00  0.00    +0.000 A 
ATOM      3  C   UNL     1       2.513  14.825  19.774  0.00  0.00    +0.000 A 
ATOM      4  C   UNL     1       3.348  14.063  20.625  0.00  0.00    +0.000 A 
ATOM      5  N   UNL     1       4.643  14.308  20.891  0.00  0.00    +0.000 N 
ATOM      6  C   UNL     1       5.542  15.120  20.206  0.00  0.00    +0.000 A 
ATOM      7  N   UNL     1       5.097  16.056  19.344  0.00  0.00    +0.000 NA
ATOM      8  C   UNL     1       5.991  16.830  18.711  0.00  0.00    +0.000 A 
ATOM      9  C   UNL     1       7.333  16.713  18.908  0.00  0.00    +0.000 A 
ATOM     10  C   UNL     1       7.701  15.643  19.714  0.00  0.00    +0.000 A 
ATOM     11  N   UNL     1       6.839  14.889  20.416  0.00  0.00    +0.000 NA
ATOM     12  C   UNL     1       9.123  15.376  19.814  0.00  0.00    +0.000 A 
ATOM     13  C   UNL     1      10.062  16.397  19.552  0.00  0.00    +0.000 A 
ATOM     14  N   UNL     1      11.307  15.946  19.444  0.00  0.00    +0.000 NA
ATOM     15  N   UNL     1      11.149  14.600  19.551  0.00  0.00    +0.000 N 
ATOM     16  C   UNL     1      12.330  13.775  19.467  0.00  0.00    +0.000 C 
ATOM     17  C   UNL     1       9.821  14.196  19.584  0.00  0.00    +0.000 A 
ATOM     18  C   UNL     1       9.614  17.766  19.172  0.00  0.00    +0.000 C 
ATOM     19  C   UNL     1       8.357  17.615  18.270  0.00  0.00    +0.000 C 
ATOM     20  N   UNL     1       2.679  13.017  21.126  0.00  0.00    +0.000 NA
ATOM     21  H   UNL     1       5.138  13.651  21.473  0.00  0.00    +0.000 HD
ENDROOT
BRANCH  17  22
ATOM     22  C   UNL     1       9.344  12.848  19.235  0.00  0.00    +0.000 A 
ATOM     23  C   UNL     1       8.683  12.593  18.030  0.00  0.00    +0.000 A 
ATOM     24  C   UNL     1       8.329  11.290  17.658  0.00  0.00    +0.000 A 
ATOM     25  C   UNL     1       8.567  10.221  18.524  0.00  0.00    +0.000 A 
ATOM     26  C   UNL     1       9.215  10.467  19.737  0.00  0.00    +0.000 A 
ATOM     27  C   UNL     1       9.630  11.759  20.067  0.00  0.00    +0.000 A 
BRANCH  25  28
ATOM     28  C   UNL     1       8.146   8.881  18.178  0.00  0.00    +0.000 A 
ATOM     29  C   UNL     1       7.368   8.390  17.107  0.00  0.00    +0.000 A 
ATOM     30  N   UNL     1       7.192   7.065  17.166  0.00  0.00    +0.000 NA
ATOM     31  N   UNL     1       7.857   6.714  18.282  0.00  0.00    +0.000 N 
ATOM     32  C   UNL     1       7.897   5.338  18.710  0.00  0.00    +0.000 C 
ATOM     33  C   UNL     1       8.441   7.767  18.922  0.00  0.00    +0.000 A 
ENDBRANCH  25  28
ENDBRANCH  17  22
BRANCH   1  35
ATOM     34  C   UNL     1       0.741  10.840  19.869  0.00  0.00    +0.000 C 
ATOM     35  C   UNL     1       0.490  12.041  20.762  0.00  0.00    +0.000 C 
ENDBRANCH   1  35
TORSDOF 3
ENDMDL
MODEL 7
REMARK VINA RESULT:      -7.1      2.735      8.650
REMARK  Name = 
REMARK  6 active torsions:
REMARK  status: ('A' for Active; 'I' for Inactive)
REMARK    1  A    between atoms: C_1  and  C_2
REMARK    2  A    between atoms: C_2  and  N_3
REMARK    3  A    between atoms: N_17  and  C_18
REMARK    4  A    between atoms: C_19  and  C_20
REMARK    5  A    between atoms: C_23  and  C_24
REMARK    6  A    between atoms: N_27  and  C_28
REMARK                            x       y       z     vdW  Elec       q    Type
REMARK                         _______ _______ _______ _____ _____    ______ ____
ROOT
ATOM      1  N   UNL     1       7.462  14.116  18.135  0.00  0.00    +0.000 N 
ATOM      2  C   UNL     1       7.238  14.826  19.273  0.00  0.00    +0.000 A 
ATOM      3  C   UNL     1       5.875  14.939  19.363  0.00  0.00    +0.000 A 
ATOM      4  C   UNL     1       5.350  14.228  18.258  0.00  0.00    +0.000 A 
ATOM      5  N   UNL     1       4.049  14.003  18.006  0.00  0.00    +0.000 N 
ATOM      6  C   UNL     1       2.957  14.114  18.862  0.00  0.00    +0.000 A 
ATOM      7  N   UNL     1       3.057  14.815  20.010  0.00  0.00    +0.000 NA
ATOM      8  C   UNL     1       1.981  14.912  20.804  0.00  0.00    +0.000 A 
ATOM      9  C   UNL     1       0.786  14.336  20.496  0.00  0.00    +0.000 A 
ATOM     10  C   UNL     1       0.814  13.534  19.361  0.00  0.00    +0.000 A 
ATOM     11  N   UNL     1       1.847  13.464  18.506  0.00  0.00    +0.000 NA
ATOM     12  C   UNL     1      -0.387  12.767  19.091  0.00  0.00    +0.000 A 
ATOM     13  C   UNL     1      -1.631  13.179  19.614  0.00  0.00    +0.000 A 
ATOM     14  N   UNL     1      -2.580  12.257  19.489  0.00  0.00    +0.000 NA
ATOM     15  N   UNL     1      -1.907  11.203  18.956  0.00  0.00    +0.000 N 
ATOM     16  C   UNL     1      -2.649   9.994  18.690  0.00  0.00    +0.000 C 
ATOM     17  C   UNL     1      -0.535  11.402  18.876  0.00  0.00    +0.000 A 
ATOM     18  C   UNL     1      -1.739  14.407  20.449  0.00  0.00    +0.000 C 
ATOM     19  C   UNL     1      -0.460  14.489  21.329  0.00  0.00    +0.000 C 
ATOM     20  N   UNL     1       6.340  13.764  17.484  0.00  0.00    +0.000 NA
ATOM     21  H   UNL     1       3.813  13.431  17.211  0.00  0.00    +0.000 HD
ENDROOT
BRANCH  17  22
ATOM     22  C   UNL     1       0.467  10.326  18.792  0.00  0.00    +0.000 A 
ATOM     23  C   UNL     1       0.840   9.582  19.915  0.00  0.00    +0.000 A 
ATOM     24  C   UNL     1       1.711   8.491  19.807  0.00  0.00    +0.000 A 
ATOM     25  C   UNL     1       2.285   8.169  18.576  0.00  0.00    +0.000 A 
ATOM     26  C   UNL     1       1.930   8.914  17.450  0.00  0.00    +0.000 A 
ATOM     27  C   UNL     1       1.004   9.954  17.554  0.00  0.00    +0.000 A 
BRANCH  25  28
ATOM     28  C   UNL     1       3.237   7.084  18.466  0.00  0.00    +0.000 A 
ATOM     29  C   UNL     1       4.337   6.885  17.604  0.00  0.00    +0.000 A 
ATOM     30  N   UNL     1       4.956   5.719  17.821  0.00  0.00    +0.000 NA
ATOM     31  N   UNL     1       4.240   5.172  18.821  0.00  0.00    +0.000 N 
ATOM     32  C   UNL     1       4.588   3.875  19.347  0.00  0.00    +0.000 C 
ATOM     33  C   UNL     1       3.201   5.951  19.237  0.00  0.00    +0.000 A 
ENDBRANCH  25  28
ENDBRANCH  17  22
BRANCH   1  35
ATOM     34  C   UNL     1       8.958  12.197  17.826  0.00  0.00    +0.000 C 
ATOM     35  C   UNL     1       8.758  13.690  17.645  0.00  0.00    +0.000 C 
ENDBRANCH   1  35
TORSDOF 3
ENDMDL
MODEL 8
REMARK VINA RESULT:      -6.8      3.171      8.515
REMARK  Name = 
REMARK  6 active torsions:
REMARK  status: ('A' for Active; 'I' for Inactive)
REMARK    1  A    between atoms: C_1  and  C_2
REMARK    2  A    between atoms: C_2  and  N_3
REMARK    3  A    between atoms: N_17  and  C_18
REMARK    4  A    between atoms: C_19  and  C_20
REMARK    5  A    between atoms: C_23  and  C_24
REMARK    6  A    between atoms: N_27  and  C_28
REMARK                            x       y       z     vdW  Elec       q    Type
REMARK                         _______ _______ _______ _____ _____    ______ ____
ROOT
ATOM      1  N   UNL     1       6.142  14.374  21.530  0.00  0.00    +0.000 N 
ATOM      2  C   UNL     1       5.508  14.747  22.674  0.00  0.00    +0.000 A 
ATOM      3  C   UNL     1       4.177  14.787  22.350  0.00  0.00    +0.000 A 
ATOM      4  C   UNL     1       4.092  14.378  20.998  0.00  0.00    +0.000 A 
ATOM      5  N   UNL     1       2.961  14.185  20.298  0.00  0.00    +0.000 N 
ATOM      6  C   UNL     1       1.658  14.028  20.762  0.00  0.00    +0.000 A 
ATOM      7  N   UNL     1       1.329  14.400  22.016  0.00  0.00    +0.000 NA
ATOM      8  C   UNL     1       0.062  14.246  22.424  0.00  0.00    +0.000 A 
ATOM      9  C   UNL     1      -0.912  13.733  21.622  0.00  0.00    +0.000 A 
ATOM     10  C   UNL     1      -0.455  13.263  20.397  0.00  0.00    +0.000 A 
ATOM     11  N   UNL     1       0.788  13.458  19.926  0.00  0.00    +0.000 NA
ATOM     12  C   UNL     1      -1.422  12.556  19.582  0.00  0.00    +0.000 A 
ATOM     13  C   UNL     1      -2.805  12.771  19.764  0.00  0.00    +0.000 A 
ATOM     14  N   UNL     1      -3.560  11.884  19.125  0.00  0.00    +0.000 NA
ATOM     15  N   UNL     1      -2.642  11.034  18.596  0.00  0.00    +0.000 N 
ATOM     16  C   UNL     1      -3.126   9.915  17.823  0.00  0.00    +0.000 C 
ATOM     17  C   UNL     1      -1.341  11.293  19.007  0.00  0.00    +0.000 A 
ATOM     18  C   UNL     1      -3.299  13.729  20.793  0.00  0.00    +0.000 C 
ATOM     19  C   UNL     1      -2.359  13.617  22.027  0.00  0.00    +0.000 C 
ATOM     20  N   UNL     1       5.314  14.171  20.492  0.00  0.00    +0.000 NA
ATOM     21  H   UNL     1       3.040  13.837  19.357  0.00  0.00    +0.000 HD
ENDROOT
BRANCH  17  22
ATOM     22  C   UNL     1      -0.243  10.312  18.989  0.00  0.00    +0.000 A 
ATOM     23  C   UNL     1       0.122   9.597  20.133  0.00  0.00    +0.000 A 
ATOM     24  C   UNL     1       1.093   8.590  20.082  0.00  0.00    +0.000 A 
ATOM     25  C   UNL     1       1.774   8.330  18.891  0.00  0.00    +0.000 A 
ATOM     26  C   UNL     1       1.427   9.048  17.745  0.00  0.00    +0.000 A 
ATOM     27  C   UNL     1       0.406   9.999  17.788  0.00  0.00    +0.000 A 
BRANCH  25  28
ATOM     28  C   UNL     1       2.825   7.337  18.843  0.00  0.00    +0.000 A 
ATOM     29  C   UNL     1       3.136   6.257  19.698  0.00  0.00    +0.000 A 
ATOM     30  N   UNL     1       4.220   5.582  19.301  0.00  0.00    +0.000 NA
ATOM     31  N   UNL     1       4.604   6.240  18.191  0.00  0.00    +0.000 N 
ATOM     32  C   UNL     1       5.770   5.820  17.455  0.00  0.00    +0.000 C 
ATOM     33  C   UNL     1       3.801   7.298  17.880  0.00  0.00    +0.000 A 
ENDBRANCH  25  28
ENDBRANCH  17  22
BRANCH   1  35
ATOM     34  C   UNL     1       8.065  13.128  22.407  0.00  0.00    +0.000 C 
ATOM     35  C   UNL     1       7.566  14.138  21.391  0.00  0.00    +0.000 C 
ENDBRANCH   1  35
TORSDOF 3
ENDMDL
MODEL 9
REMARK VINA RESULT:      -6.8      2.707      9.247
REMARK  Name = 
REMARK  6 active torsions:
REMARK  status: ('A' for Active; 'I' for Inactive)
REMARK    1  A    between atoms: C_1  and  C_2
REMARK    2  A    between atoms: C_2  and  N_3
REMARK    3  A    between atoms: N_17  and  C_18
REMARK    4  A    between atoms: C_19  and  C_20
REMARK    5  A    between atoms: C_23  and  C_24
REMARK    6  A    between atoms: N_27  and  C_28
REMARK                            x       y       z     vdW  Elec       q    Type
REMARK                         _______ _______ _______ _____ _____    ______ ____
ROOT
ATOM      1  N   UNL     1       8.190  13.583  18.003  0.00  0.00    +0.000 N 
ATOM      2  C   UNL     1       8.201  14.333  19.137  0.00  0.00    +0.000 A 
ATOM      3  C   UNL     1       6.906  14.746  19.306  0.00  0.00    +0.000 A 
ATOM      4  C   UNL     1       6.168  14.161  18.250  0.00  0.00    +0.000 A 
ATOM      5  N   UNL     1       4.836  14.229  18.082  0.00  0.00    +0.000 N 
ATOM      6  C   UNL     1       3.852  14.585  18.999  0.00  0.00    +0.000 A 
ATOM      7  N   UNL     1       4.177  15.255  20.124  0.00  0.00    +0.000 NA
ATOM      8  C   UNL     1       3.201  15.594  20.979  0.00  0.00    +0.000 A 
ATOM      9  C   UNL     1       1.891  15.295  20.756  0.00  0.00    +0.000 A 
ATOM     10  C   UNL     1       1.670  14.499  19.639  0.00  0.00    +0.000 A 
ATOM     11  N   UNL     1       2.606  14.194  18.725  0.00  0.00    +0.000 NA
ATOM     12  C   UNL     1       0.315  14.015  19.457  0.00  0.00    +0.000 A 
ATOM     13  C   UNL     1      -0.773  14.696  20.046  0.00  0.00    +0.000 A 
ATOM     14  N   UNL     1      -1.907  14.006  19.998  0.00  0.00    +0.000 NA
ATOM     15  N   UNL     1      -1.519  12.826  19.448  0.00  0.00    +0.000 N 
ATOM     16  C   UNL     1      -2.525  11.810  19.253  0.00  0.00    +0.000 C 
ATOM     17  C   UNL     1      -0.145  12.715  19.281  0.00  0.00    +0.000 A 
ATOM     18  C   UNL     1      -0.553  15.924  20.860  0.00  0.00    +0.000 C 
ATOM     19  C   UNL     1       0.766  15.726  21.659  0.00  0.00    +0.000 C 
ATOM     20  N   UNL     1       6.979  13.484  17.428  0.00  0.00    +0.000 NA
ATOM     21  H   UNL     1       4.429  13.718  17.315  0.00  0.00    +0.000 HD
ENDROOT
BRANCH  17  22
ATOM     22  C   UNL     1       0.587  11.443  19.160  0.00  0.00    +0.000 A 
ATOM     23  C   UNL     1       0.702  10.557  20.235  0.00  0.00    +0.000 A 
ATOM     24  C   UNL     1       1.305   9.303  20.081  0.00  0.00    +0.000 A 
ATOM     25  C   UNL     1       1.874   8.941  18.858  0.00  0.00    +0.000 A 
ATOM     26  C   UNL     1       1.776   9.824  17.781  0.00  0.00    +0.000 A 
ATOM     27  C   UNL     1       1.108  11.042  17.924  0.00  0.00    +0.000 A 
BRANCH  25  28
ATOM     28  C   UNL     1       2.556   7.674  18.708  0.00  0.00    +0.000 A 
ATOM     29  C   UNL     1       2.468   6.468  19.435  0.00  0.00    +0.000 A 
ATOM     30  N   UNL     1       3.300   5.527  18.975  0.00  0.00    +0.000 NA
ATOM     31  N   UNL     1       3.925   6.141  17.953  0.00  0.00    +0.000 N 
ATOM     32  C   UNL     1       4.931   5.450  17.187  0.00  0.00    +0.000 C 
ATOM     33  C   UNL     1       3.515   7.427  17.758  0.00  0.00    +0.000 A 
ENDBRANCH  25  28
ENDBRANCH  17  22
BRANCH   1  35
ATOM     34  C   UNL     1      10.005  12.004  18.484  0.00  0.00    +0.000 C 
ATOM     35  C   UNL     1       9.326  12.877  17.445  0.00  0.00    +0.000 C 
ENDBRANCH   1  35
TORSDOF 3
ENDMDL
