MODEL 1
REMARK VINA RESULT:      -7.7      0.000      0.000
REMARK  Name = 
REMARK  11 active torsions:
REMARK  status: ('A' for Active; 'I' for Inactive)
REMARK    1  A    between atoms: C_1  and  C_2
REMARK    2  A    between atoms: C_2  and  C_3
REMARK    3  A    between atoms: C_3  and  C_4
REMARK    4  A    between atoms: C_4  and  C_5
REMARK    5  A    between atoms: C_4  and  N_18
REMARK    6  A    between atoms: N_7  and  C_8
REMARK    7  A    between atoms: C_8  and  C_9
REMARK    8  A    between atoms: C_22  and  C_23
REMARK    9  A    between atoms: C_23  and  O_25
REMARK   10  A    between atoms: O_25  and  C_26
REMARK   11  A    between atoms: C_26  and  C_27
REMARK                            x       y       z     vdW  Elec       q    Type
REMARK                         _______ _______ _______ _____ _____    ______ ____
ROOT
ATOM      1  C   UNL     1       2.436   5.361  19.004  0.00  0.00    +0.000 C 
ENDROOT
BRANCH   1   2
ATOM      2  N   UNL     1       3.292   4.446  18.264  0.00  0.00    +0.000 N 
ATOM      3  C   UNL     1       2.957   3.505  17.355  0.00  0.00    +0.000 C 
ATOM      4  O   UNL     1       1.933   3.308  16.750  0.00  0.00    +0.000 OA
ATOM      5  C   UNL     1       4.326   2.819  17.497  0.00  0.00    +0.000 C 
ATOM      6  C   UNL     1       4.611   3.878  18.598  0.00  0.00    +0.000 C 
BRANCH   6   7
ATOM      7  C   UNL     1       5.831   4.817  18.331  0.00  0.00    +0.000 C 
ATOM      8  O   UNL     1       6.200   5.710  19.086  0.00  0.00    +0.000 OA
BRANCH   7   9
ATOM      9  O   UNL     1       6.445   4.525  17.145  0.00  0.00    +0.000 OA
BRANCH   9  10
ATOM     10  C   UNL     1       6.403   5.551  16.145  0.00  0.00    +0.000 C 
BRANCH  10  11
ATOM     11  C   UNL     1       6.580   4.987  14.756  0.00  0.00    +0.000 A 
ATOM     12  C   UNL     1       5.631   4.080  14.260  0.00  0.00    +0.000 A 
ATOM     13  C   UNL     1       5.742   3.565  12.969  0.00  0.00    +0.000 A 
ATOM     14  C   UNL     1       6.798   3.958  12.150  0.00  0.00    +0.000 A 
ATOM     15  C   UNL     1       7.735   4.877  12.620  0.00  0.00    +0.000 A 
ATOM     16  C   UNL     1       7.623   5.394  13.911  0.00  0.00    +0.000 A 
ENDBRANCH  10  11
ENDBRANCH   9  10
ENDBRANCH   7   9
ENDBRANCH   6   7
ENDBRANCH   1   2
BRANCH   1  17
ATOM     17  C   UNL     1       2.611   6.799  18.468  0.00  0.00    +0.000 C 
ATOM     18  O   UNL     1       3.448   7.099  17.618  0.00  0.00    +0.000 OA
ATOM     19  N   UNL     1       1.882   7.775  19.109  0.00  0.00    +0.000 N 
ATOM     20  H   UNL     1       1.033   7.510  19.601  0.00  0.00    +0.000 HD
BRANCH  19  21
ATOM     21  C   UNL     1       1.995   9.154  18.666  0.00  0.00    +0.000 C 
BRANCH  21  22
ATOM     22  C   UNL     1       0.707   9.951  18.859  0.00  0.00    +0.000 C 
ATOM     23  N   UNL     1       0.917  11.395  18.446  0.00  0.00    +0.000 NA
ATOM     24  C   UNL     1       0.679  12.085  19.523  0.00  0.00    +0.000 C 
ATOM     25  C   UNL     1       0.323  11.317  20.691  0.00  0.00    +0.000 A 
ATOM     26  C   UNL     1       0.028  11.610  21.985  0.00  0.00    +0.000 A 
ATOM     27  N   UNL     1      -0.244  10.625  22.871  0.00  0.00    +0.000 NA
ATOM     28  C   UNL     1      -0.205   9.352  22.399  0.00  0.00    +0.000 A 
ATOM     29  N   UNL     1       0.070   8.978  21.136  0.00  0.00    +0.000 NA
ATOM     30  C   UNL     1       0.332  10.006  20.314  0.00  0.00    +0.000 A 
ENDBRANCH  21  22
ENDBRANCH  19  21
ENDBRANCH   1  17
BRANCH   1  31
ATOM     31  C   UNL     1       2.668   5.265  20.526  0.00  0.00    +0.000 C 
BRANCH  31  33
ATOM     32  C   UNL     1       0.947   3.411  20.646  0.00  0.00    +0.000 C 
ATOM     33  C   UNL     1       2.295   3.908  21.143  0.00  0.00    +0.000 C 
ENDBRANCH  31  33
ENDBRANCH   1  31
TORSDOF 10
ENDMDL
MODEL 2
REMARK VINA RESULT:      -7.6      0.905      1.235
REMARK  Name = 
REMARK  11 active torsions:
REMARK  status: ('A' for Active; 'I' for Inactive)
REMARK    1  A    between atoms: C_1  and  C_2
REMARK    2  A    between atoms: C_2  and  C_3
REMARK    3  A    between atoms: C_3  and  C_4
REMARK    4  A    between atoms: C_4  and  C_5
REMARK    5  A    between atoms: C_4  and  N_18
REMARK    6  A    between atoms: N_7  and  C_8
REMARK    7  A    between atoms: C_8  and  C_9
REMARK    8  A    between atoms: C_22  and  C_23
REMARK    9  A    between atoms: C_23  and  O_25
REMARK   10  A    between atoms: O_25  and  C_26
REMARK   11  A    between atoms: C_26  and  C_27
REMARK                            x       y       z     vdW  Elec       q    Type
REMARK                         _______ _______ _______ _____ _____    ______ ____
ROOT
ATOM      1  C   UNL     1       2.097   4.658  19.589  0.00  0.00    +0.000 C 
ENDROOT
BRANCH   1   2
ATOM      2  N   UNL     1       2.753   3.667  18.749  0.00  0.00    +0.000 N 
ATOM      3  C   UNL     1       2.227   2.597  18.115  0.00  0.00    +0.000 C 
ATOM      4  O   UNL     1       1.085   2.288  17.882  0.00  0.00    +0.000 OA
ATOM      5  C   UNL     1       3.619   1.974  17.921  0.00  0.00    +0.000 C 
ATOM      6  C   UNL     1       4.147   3.187  18.736  0.00  0.00    +0.000 C 
BRANCH   6   7
ATOM      7  C   UNL     1       5.165   4.108  17.991  0.00  0.00    +0.000 C 
ATOM      8  O   UNL     1       5.914   4.908  18.543  0.00  0.00    +0.000 OA
BRANCH   7   9
ATOM      9  O   UNL     1       5.124   3.918  16.638  0.00  0.00    +0.000 OA
BRANCH   9  10
ATOM     10  C   UNL     1       5.385   5.074  15.831  0.00  0.00    +0.000 C 
BRANCH  10  11
ATOM     11  C   UNL     1       5.951   4.701  14.482  0.00  0.00    +0.000 A 
ATOM     12  C   UNL     1       7.188   5.235  14.089  0.00  0.00    +0.000 A 
ATOM     13  C   UNL     1       7.759   4.885  12.865  0.00  0.00    +0.000 A 
ATOM     14  C   UNL     1       7.106   3.988  12.022  0.00  0.00    +0.000 A 
ATOM     15  C   UNL     1       5.889   3.432  12.410  0.00  0.00    +0.000 A 
ATOM     16  C   UNL     1       5.319   3.780  13.635  0.00  0.00    +0.000 A 
ENDBRANCH  10  11
ENDBRANCH   9  10
ENDBRANCH   7   9
ENDBRANCH   6   7
ENDBRANCH   1   2
BRANCH   1  17
ATOM     17  C   UNL     1       2.232   6.060  18.957  0.00  0.00    +0.000 C 
ATOM     18  O   UNL     1       2.659   6.242  17.818  0.00  0.00    +0.000 OA
ATOM     19  N   UNL     1       1.998   7.126  19.797  0.00  0.00    +0.000 N 
ATOM     20  H   UNL     1       1.413   6.986  20.616  0.00  0.00    +0.000 HD
BRANCH  19  21
ATOM     21  C   UNL     1       2.111   8.478  19.278  0.00  0.00    +0.000 C 
BRANCH  21  22
ATOM     22  C   UNL     1       0.777   9.222  19.256  0.00  0.00    +0.000 C 
ATOM     23  N   UNL     1       0.925  10.543  18.525  0.00  0.00    +0.000 NA
ATOM     24  C   UNL     1       0.616  11.446  19.409  0.00  0.00    +0.000 C 
ATOM     25  C   UNL     1       0.262  10.946  20.715  0.00  0.00    +0.000 A 
ATOM     26  C   UNL     1      -0.091  11.510  21.901  0.00  0.00    +0.000 A 
ATOM     27  N   UNL     1      -0.341  10.740  22.984  0.00  0.00    +0.000 NA
ATOM     28  C   UNL     1      -0.220   9.397  22.819  0.00  0.00    +0.000 A 
ATOM     29  N   UNL     1       0.116   8.761  21.682  0.00  0.00    +0.000 NA
ATOM     30  C   UNL     1       0.351   9.587  20.651  0.00  0.00    +0.000 A 
ENDBRANCH  21  22
ENDBRANCH  19  21
ENDBRANCH   1  17
BRANCH   1  31
ATOM     31  C   UNL     1       2.609   4.613  21.044  0.00  0.00    +0.000 C 
BRANCH  31  33
ATOM     32  C   UNL     1       1.100   2.662  21.619  0.00  0.00    +0.000 C 
ATOM     33  C   UNL     1       2.505   3.233  21.712  0.00  0.00    +0.000 C 
ENDBRANCH  31  33
ENDBRANCH   1  31
TORSDOF 10
ENDMDL
MODEL 3
REMARK VINA RESULT:      -7.5      3.092      7.485
REMARK  Name = 
REMARK  11 active torsions:
REMARK  status: ('A' for Active; 'I' for Inactive)
REMARK    1  A    between atoms: C_1  and  C_2
REMARK    2  A    between atoms: C_2  and  C_3
REMARK    3  A    between atoms: C_3  and  C_4
REMARK    4  A    between atoms: C_4  and  C_5
REMARK    5  A    between atoms: C_4  and  N_18
REMARK    6  A    between atoms: N_7  and  C_8
REMARK    7  A    between atoms: C_8  and  C_9
REMARK    8  A    between atoms: C_22  and  C_23
REMARK    9  A    between atoms: C_23  and  O_25
REMARK   10  A    between atoms: O_25  and  C_26
REMARK   11  A    between atoms: C_26  and  C_27
REMARK                            x       y       z     vdW  Elec       q    Type
REMARK                         _______ _______ _______ _____ _____    ______ ____
ROOT
ATOM      1  C   UNL     1       7.334   5.679  18.010  0.00  0.00    +0.000 C 
ENDROOT
BRANCH   1   2
ATOM      2  N   UNL     1       6.350   5.842  16.950  0.00  0.00    +0.000 N 
ATOM      3  C   UNL     1       6.437   5.518  15.642  0.00  0.00    +0.000 C 
ATOM      4  O   UNL     1       7.223   4.827  15.041  0.00  0.00    +0.000 OA
ATOM      5  C   UNL     1       5.238   6.415  15.295  0.00  0.00    +0.000 C 
ATOM      6  C   UNL     1       5.252   6.814  16.797  0.00  0.00    +0.000 C 
BRANCH   6   7
ATOM      7  C   UNL     1       3.950   6.484  17.595  0.00  0.00    +0.000 C 
ATOM      8  O   UNL     1       3.376   5.401  17.574  0.00  0.00    +0.000 OA
BRANCH   7   9
ATOM      9  O   UNL     1       3.519   7.556  18.325  0.00  0.00    +0.000 OA
BRANCH   9  10
ATOM     10  C   UNL     1       2.633   8.461  17.653  0.00  0.00    +0.000 C 
BRANCH  10  11
ATOM     11  C   UNL     1       1.542   8.962  18.569  0.00  0.00    +0.000 A 
ATOM     12  C   UNL     1       1.581   8.617  19.930  0.00  0.00    +0.000 A 
ATOM     13  C   UNL     1       0.610   9.090  20.813  0.00  0.00    +0.000 A 
ATOM     14  C   UNL     1      -0.406   9.924  20.351  0.00  0.00    +0.000 A 
ATOM     15  C   UNL     1      -0.444  10.293  19.008  0.00  0.00    +0.000 A 
ATOM     16  C   UNL     1       0.528   9.822  18.124  0.00  0.00    +0.000 A 
ENDBRANCH  10  11
ENDBRANCH   9  10
ENDBRANCH   7   9
ENDBRANCH   6   7
ENDBRANCH   1   2
BRANCH   1  17
ATOM     17  C   UNL     1       6.709   4.920  19.200  0.00  0.00    +0.000 C 
ATOM     18  O   UNL     1       7.065   5.092  20.365  0.00  0.00    +0.000 OA
ATOM     19  N   UNL     1       5.830   3.910  18.878  0.00  0.00    +0.000 N 
ATOM     20  H   UNL     1       5.351   3.944  17.982  0.00  0.00    +0.000 HD
BRANCH  19  21
ATOM     21  C   UNL     1       5.203   3.146  19.942  0.00  0.00    +0.000 C 
BRANCH  21  22
ATOM     22  C   UNL     1       4.231   2.088  19.425  0.00  0.00    +0.000 C 
ATOM     23  N   UNL     1       4.196   2.104  17.909  0.00  0.00    +0.000 NA
ATOM     24  C   UNL     1       2.960   2.380  17.610  0.00  0.00    +0.000 C 
ATOM     25  C   UNL     1       2.076   2.578  18.731  0.00  0.00    +0.000 A 
ATOM     26  C   UNL     1       0.762   2.896  18.880  0.00  0.00    +0.000 A 
ATOM     27  N   UNL     1       0.222   3.041  20.111  0.00  0.00    +0.000 NA
ATOM     28  C   UNL     1       1.053   2.853  21.168  0.00  0.00    +0.000 A 
ATOM     29  N   UNL     1       2.358   2.529  21.108  0.00  0.00    +0.000 NA
ATOM     30  C   UNL     1       2.826   2.405  19.857  0.00  0.00    +0.000 A 
ENDBRANCH  21  22
ENDBRANCH  19  21
ENDBRANCH   1  17
BRANCH   1  31
ATOM     31  C   UNL     1       7.960   7.026  18.429  0.00  0.00    +0.000 C 
BRANCH  31  33
ATOM     32  C   UNL     1       8.296   9.481  17.907  0.00  0.00    +0.000 C 
ATOM     33  C   UNL     1       7.885   8.124  17.358  0.00  0.00    +0.000 C 
ENDBRANCH  31  33
ENDBRANCH   1  31
TORSDOF 10
ENDMDL
MODEL 4
REMARK VINA RESULT:      -7.5      5.245      7.860
REMARK  Name = 
REMARK  11 active torsions:
REMARK  status: ('A' for Active; 'I' for Inactive)
REMARK    1  A    between atoms: C_1  and  C_2
REMARK    2  A    between atoms: C_2  and  C_3
REMARK    3  A    between atoms: C_3  and  C_4
REMARK    4  A    between atoms: C_4  and  C_5
REMARK    5  A    between atoms: C_4  and  N_18
REMARK    6  A    between atoms: N_7  and  C_8
REMARK    7  A    between atoms: C_8  and  C_9
REMARK    8  A    between atoms: C_22  and  C_23
REMARK    9  A    between atoms: C_23  and  O_25
REMARK   10  A    between atoms: O_25  and  C_26
REMARK   11  A    between atoms: C_26  and  C_27
REMARK                            x       y       z     vdW  Elec       q    Type
REMARK                         _______ _______ _______ _____ _____    ______ ____
ROOT
ATOM      1  C   UNL     1       7.426   6.488  17.438  0.00  0.00    +0.000 C 
ENDROOT
BRANCH   1   2
ATOM      2  N   UNL     1       6.477   5.946  18.399  0.00  0.00    +0.000 N 
ATOM      3  C   UNL     1       6.710   5.298  19.561  0.00  0.00    +0.000 C 
ATOM      4  O   UNL     1       7.711   5.181  20.224  0.00  0.00    +0.000 OA
ATOM      5  C   UNL     1       5.270   4.761  19.599  0.00  0.00    +0.000 C 
ATOM      6  C   UNL     1       5.099   5.456  18.220  0.00  0.00    +0.000 C 
BRANCH   6   7
ATOM      7  C   UNL     1       3.998   6.563  18.155  0.00  0.00    +0.000 C 
ATOM      8  O   UNL     1       3.781   7.273  17.179  0.00  0.00    +0.000 OA
BRANCH   7   9
ATOM      9  O   UNL     1       3.298   6.650  19.326  0.00  0.00    +0.000 OA
BRANCH   9  10
ATOM     10  C   UNL     1       1.901   6.336  19.250  0.00  0.00    +0.000 C 
BRANCH  10  11
ATOM     11  C   UNL     1       1.643   4.867  19.486  0.00  0.00    +0.000 A 
ATOM     12  C   UNL     1       1.489   4.014  18.381  0.00  0.00    +0.000 A 
ATOM     13  C   UNL     1       1.284   2.646  18.559  0.00  0.00    +0.000 A 
ATOM     14  C   UNL     1       1.242   2.109  19.844  0.00  0.00    +0.000 A 
ATOM     15  C   UNL     1       1.417   2.939  20.949  0.00  0.00    +0.000 A 
ATOM     16  C   UNL     1       1.624   4.308  20.771  0.00  0.00    +0.000 A 
ENDBRANCH  10  11
ENDBRANCH   9  10
ENDBRANCH   7   9
ENDBRANCH   6   7
ENDBRANCH   1   2
BRANCH   1  17
ATOM     17  C   UNL     1       7.506   8.023  17.580  0.00  0.00    +0.000 C 
ATOM     18  O   UNL     1       6.790   8.793  16.941  0.00  0.00    +0.000 OA
ATOM     19  N   UNL     1       8.540   8.505  18.351  0.00  0.00    +0.000 N 
ATOM     20  H   UNL     1       8.944   7.901  19.062  0.00  0.00    +0.000 HD
BRANCH  19  21
ATOM     21  C   UNL     1       8.686   9.939  18.530  0.00  0.00    +0.000 C 
BRANCH  21  22
ATOM     22  C   UNL     1       9.770  10.308  19.539  0.00  0.00    +0.000 C 
ATOM     23  N   UNL     1       9.142  10.764  20.842  0.00  0.00    +0.000 NA
ATOM     24  C   UNL     1       9.559  11.986  21.001  0.00  0.00    +0.000 C 
ATOM     25  C   UNL     1      10.420  12.492  19.961  0.00  0.00    +0.000 A 
ATOM     26  C   UNL     1      11.042  13.676  19.714  0.00  0.00    +0.000 A 
ATOM     27  N   UNL     1      11.782  13.846  18.596  0.00  0.00    +0.000 NA
ATOM     28  C   UNL     1      11.863  12.786  17.750  0.00  0.00    +0.000 A 
ATOM     29  N   UNL     1      11.287  11.583  17.923  0.00  0.00    +0.000 NA
ATOM     30  C   UNL     1      10.568  11.486  19.052  0.00  0.00    +0.000 A 
ENDBRANCH  21  22
ENDBRANCH  19  21
ENDBRANCH   1  17
BRANCH   1  31
ATOM     31  C   UNL     1       7.105   6.043  15.995  0.00  0.00    +0.000 C 
BRANCH  31  33
ATOM     32  C   UNL     1       6.069   3.960  14.994  0.00  0.00    +0.000 C 
ATOM     33  C   UNL     1       7.259   4.536  15.744  0.00  0.00    +0.000 C 
ENDBRANCH  31  33
ENDBRANCH   1  31
TORSDOF 10
ENDMDL
MODEL 5
REMARK VINA RESULT:      -7.5      1.674      2.806
REMARK  Name = 
REMARK  11 active torsions:
REMARK  status: ('A' for Active; 'I' for Inactive)
REMARK    1  A    between atoms: C_1  and  C_2
REMARK    2  A    between atoms: C_2  and  C_3
REMARK    3  A    between atoms: C_3  and  C_4
REMARK    4  A    between atoms: C_4  and  C_5
REMARK    5  A    between atoms: C_4  and  N_18
REMARK    6  A    between atoms: N_7  and  C_8
REMARK    7  A    between atoms: C_8  and  C_9
REMARK    8  A    between atoms: C_22  and  C_23
REMARK    9  A    between atoms: C_23  and  O_25
REMARK   10  A    between atoms: O_25  and  C_26
REMARK   11  A    between atoms: C_26  and  C_27
REMARK                            x       y       z     vdW  Elec       q    Type
REMARK                         _______ _______ _______ _____ _____    ______ ____
ROOT
ATOM      1  C   UNL     1       3.218   5.174  18.489  0.00  0.00    +0.000 C 
ENDROOT
BRANCH   1   2
ATOM      2  N   UNL     1       4.669   5.135  18.585  0.00  0.00    +0.000 N 
ATOM      3  C   UNL     1       5.460   4.300  19.294  0.00  0.00    +0.000 C 
ATOM      4  O   UNL     1       5.224   3.255  19.847  0.00  0.00    +0.000 OA
ATOM      5  C   UNL     1       6.661   5.249  19.153  0.00  0.00    +0.000 C 
ATOM      6  C   UNL     1       5.674   6.202  18.423  0.00  0.00    +0.000 C 
BRANCH   6   7
ATOM      7  C   UNL     1       6.044   6.556  16.948  0.00  0.00    +0.000 C 
ATOM      8  O   UNL     1       6.858   7.413  16.620  0.00  0.00    +0.000 OA
BRANCH   7   9
ATOM      9  O   UNL     1       5.346   5.793  16.054  0.00  0.00    +0.000 OA
BRANCH   9  10
ATOM     10  C   UNL     1       5.910   4.512  15.743  0.00  0.00    +0.000 C 
BRANCH  10  11
ATOM     11  C   UNL     1       6.327   4.419  14.295  0.00  0.00    +0.000 A 
ATOM     12  C   UNL     1       7.407   5.195  13.844  0.00  0.00    +0.000 A 
ATOM     13  C   UNL     1       7.843   5.110  12.522  0.00  0.00    +0.000 A 
ATOM     14  C   UNL     1       7.214   4.239  11.635  0.00  0.00    +0.000 A 
ATOM     15  C   UNL     1       6.156   3.446  12.074  0.00  0.00    +0.000 A 
ATOM     16  C   UNL     1       5.721   3.529  13.398  0.00  0.00    +0.000 A 
ENDBRANCH  10  11
ENDBRANCH   9  10
ENDBRANCH   7   9
ENDBRANCH   6   7
ENDBRANCH   1   2
BRANCH   1  17
ATOM     17  C   UNL     1       2.609   5.572  19.852  0.00  0.00    +0.000 C 
ATOM     18  O   UNL     1       2.437   4.769  20.767  0.00  0.00    +0.000 OA
ATOM     19  N   UNL     1       2.114   6.854  19.940  0.00  0.00    +0.000 N 
ATOM     20  H   UNL     1       2.480   7.566  19.314  0.00  0.00    +0.000 HD
BRANCH  19  21
ATOM     21  C   UNL     1       1.520   7.302  21.188  0.00  0.00    +0.000 C 
BRANCH  21  22
ATOM     22  C   UNL     1       1.512   8.822  21.334  0.00  0.00    +0.000 C 
ATOM     23  N   UNL     1       0.707   9.229  22.553  0.00  0.00    +0.000 NA
ATOM     24  C   UNL     1      -0.254   9.969  22.082  0.00  0.00    +0.000 C 
ATOM     25  C   UNL     1      -0.258  10.152  20.652  0.00  0.00    +0.000 A 
ATOM     26  C   UNL     1      -1.058  10.801  19.764  0.00  0.00    +0.000 A 
ATOM     27  N   UNL     1      -0.797  10.755  18.438  0.00  0.00    +0.000 NA
ATOM     28  C   UNL     1       0.290  10.037  18.055  0.00  0.00    +0.000 A 
ATOM     29  N   UNL     1       1.135   9.375  18.866  0.00  0.00    +0.000 NA
ATOM     30  C   UNL     1       0.813   9.462  20.166  0.00  0.00    +0.000 A 
ENDBRANCH  21  22
ENDBRANCH  19  21
ENDBRANCH   1  17
BRANCH   1  31
ATOM     31  C   UNL     1       2.638   3.852  17.946  0.00  0.00    +0.000 C 
BRANCH  31  33
ATOM     32  C   UNL     1       0.712   2.421  18.755  0.00  0.00    +0.000 C 
ATOM     33  C   UNL     1       1.114   3.722  18.080  0.00  0.00    +0.000 C 
ENDBRANCH  31  33
ENDBRANCH   1  31
TORSDOF 10
ENDMDL
MODEL 6
REMARK VINA RESULT:      -7.4      1.586      2.103
REMARK  Name = 
REMARK  11 active torsions:
REMARK  status: ('A' for Active; 'I' for Inactive)
REMARK    1  A    between atoms: C_1  and  C_2
REMARK    2  A    between atoms: C_2  and  C_3
REMARK    3  A    between atoms: C_3  and  C_4
REMARK    4  A    between atoms: C_4  and  C_5
REMARK    5  A    between atoms: C_4  and  N_18
REMARK    6  A    between atoms: N_7  and  C_8
REMARK    7  A    between atoms: C_8  and  C_9
REMARK    8  A    between atoms: C_22  and  C_23
REMARK    9  A    between atoms: C_23  and  O_25
REMARK   10  A    between atoms: O_25  and  C_26
REMARK   11  A    between atoms: C_26  and  C_27
REMARK                            x       y       z     vdW  Elec       q    Type
REMARK                         _______ _______ _______ _____ _____    ______ ____
ROOT
ATOM      1  C   UNL     1       3.252   5.263  18.254  0.00  0.00    +0.000 C 
ENDROOT
BRANCH   1   2
ATOM      2  N   UNL     1       4.706   5.298  18.298  0.00  0.00    +0.000 N 
ATOM      3  C   UNL     1       5.556   4.604  19.085  0.00  0.00    +0.000 C 
ATOM      4  O   UNL     1       5.387   3.637  19.786  0.00  0.00    +0.000 OA
ATOM      5  C   UNL     1       6.707   5.573  18.768  0.00  0.00    +0.000 C 
ATOM      6  C   UNL     1       5.654   6.373  17.953  0.00  0.00    +0.000 C 
BRANCH   6   7
ATOM      7  C   UNL     1       5.959   6.533  16.430  0.00  0.00    +0.000 C 
ATOM      8  O   UNL     1       5.214   7.081  15.624  0.00  0.00    +0.000 OA
BRANCH   7   9
ATOM      9  O   UNL     1       7.165   5.984  16.095  0.00  0.00    +0.000 OA
BRANCH   9  10
ATOM     10  C   UNL     1       7.145   4.599  15.723  0.00  0.00    +0.000 C 
BRANCH  10  11
ATOM     11  C   UNL     1       7.023   4.421  14.229  0.00  0.00    +0.000 A 
ATOM     12  C   UNL     1       6.077   3.516  13.723  0.00  0.00    +0.000 A 
ATOM     13  C   UNL     1       5.912   3.350  12.348  0.00  0.00    +0.000 A 
ATOM     14  C   UNL     1       6.682   4.096  11.458  0.00  0.00    +0.000 A 
ATOM     15  C   UNL     1       7.609   5.015  11.945  0.00  0.00    +0.000 A 
ATOM     16  C   UNL     1       7.773   5.182  13.321  0.00  0.00    +0.000 A 
ENDBRANCH  10  11
ENDBRANCH   9  10
ENDBRANCH   7   9
ENDBRANCH   6   7
ENDBRANCH   1   2
BRANCH   1  17
ATOM     17  C   UNL     1       2.668   5.987  19.486  0.00  0.00    +0.000 C 
ATOM     18  O   UNL     1       2.409   5.410  20.541  0.00  0.00    +0.000 OA
ATOM     19  N   UNL     1       2.296   7.299  19.295  0.00  0.00    +0.000 N 
ATOM     20  H   UNL     1       2.736   7.830  18.548  0.00  0.00    +0.000 HD
BRANCH  19  21
ATOM     21  C   UNL     1       1.733   8.048  20.406  0.00  0.00    +0.000 C 
BRANCH  21  22
ATOM     22  C   UNL     1       0.577   8.954  19.990  0.00  0.00    +0.000 C 
ATOM     23  N   UNL     1       1.058   9.999  19.001  0.00  0.00    +0.000 NA
ATOM     24  C   UNL     1       0.823  11.139  19.583  0.00  0.00    +0.000 C 
ATOM     25  C   UNL     1       0.227  11.059  20.894  0.00  0.00    +0.000 A 
ATOM     26  C   UNL     1      -0.152  11.961  21.839  0.00  0.00    +0.000 A 
ATOM     27  N   UNL     1      -0.670  11.550  23.017  0.00  0.00    +0.000 NA
ATOM     28  C   UNL     1      -0.787  10.208  23.198  0.00  0.00    +0.000 A 
ATOM     29  N   UNL     1      -0.445   9.253  22.315  0.00  0.00    +0.000 NA
ATOM     30  C   UNL     1       0.064   9.733  21.170  0.00  0.00    +0.000 A 
ENDBRANCH  21  22
ENDBRANCH  19  21
ENDBRANCH   1  17
BRANCH   1  31
ATOM     31  C   UNL     1       2.713   3.825  18.102  0.00  0.00    +0.000 C 
BRANCH  31  33
ATOM     32  C   UNL     1       0.756   2.380  18.808  0.00  0.00    +0.000 C 
ATOM     33  C   UNL     1       1.184   3.705  18.198  0.00  0.00    +0.000 C 
ENDBRANCH  31  33
ENDBRANCH   1  31
TORSDOF 10
ENDMDL
MODEL 7
REMARK VINA RESULT:      -7.4      4.004      7.188
REMARK  Name = 
REMARK  11 active torsions:
REMARK  status: ('A' for Active; 'I' for Inactive)
REMARK    1  A    between atoms: C_1  and  C_2
REMARK    2  A    between atoms: C_2  and  C_3
REMARK    3  A    between atoms: C_3  and  C_4
REMARK    4  A    between atoms: C_4  and  C_5
REMARK    5  A    between atoms: C_4  and  N_18
REMARK    6  A    between atoms: N_7  and  C_8
REMARK    7  A    between atoms: C_8  and  C_9
REMARK    8  A    between atoms: C_22  and  C_23
REMARK    9  A    between atoms: C_23  and  O_25
REMARK   10  A    between atoms: O_25  and  C_26
REMARK   11  A    between atoms: C_26  and  C_27
REMARK                            x       y       z     vdW  Elec       q    Type
REMARK                         _______ _______ _______ _____ _____    ______ ____
ROOT
ATOM      1  C   UNL     1       4.856   5.644  16.769  0.00  0.00    +0.000 C 
ENDROOT
BRANCH   1   2
ATOM      2  N   UNL     1       5.961   5.765  17.707  0.00  0.00    +0.000 N 
ATOM      3  C   UNL     1       6.376   4.901  18.659  0.00  0.00    +0.000 C 
ATOM      4  O   UNL     1       6.114   3.740  18.853  0.00  0.00    +0.000 OA
ATOM      5  C   UNL     1       7.193   5.999  19.360  0.00  0.00    +0.000 C 
ATOM      6  C   UNL     1       6.606   6.957  18.287  0.00  0.00    +0.000 C 
BRANCH   6   7
ATOM      7  C   UNL     1       7.653   7.665  17.369  0.00  0.00    +0.000 C 
ATOM      8  O   UNL     1       8.173   7.154  16.383  0.00  0.00    +0.000 OA
BRANCH   7   9
ATOM      9  O   UNL     1       7.929   8.932  17.799  0.00  0.00    +0.000 OA
BRANCH   9  10
ATOM     10  C   UNL     1       8.814   9.039  18.922  0.00  0.00    +0.000 C 
BRANCH  10  11
ATOM     11  C   UNL     1       9.343  10.443  19.088  0.00  0.00    +0.000 A 
ATOM     12  C   UNL     1       9.443  11.274  17.961  0.00  0.00    +0.000 A 
ATOM     13  C   UNL     1       9.895  12.588  18.081  0.00  0.00    +0.000 A 
ATOM     14  C   UNL     1      10.241  13.095  19.331  0.00  0.00    +0.000 A 
ATOM     15  C   UNL     1      10.124  12.290  20.463  0.00  0.00    +0.000 A 
ATOM     16  C   UNL     1       9.671  10.975  20.343  0.00  0.00    +0.000 A 
ENDBRANCH  10  11
ENDBRANCH   9  10
ENDBRANCH   7   9
ENDBRANCH   6   7
ENDBRANCH   1   2
BRANCH   1  17
ATOM     17  C   UNL     1       3.512   5.828  17.507  0.00  0.00    +0.000 C 
ATOM     18  O   UNL     1       3.240   6.834  18.161  0.00  0.00    +0.000 OA
ATOM     19  N   UNL     1       2.682   4.729  17.533  0.00  0.00    +0.000 N 
ATOM     20  H   UNL     1       2.775   4.027  16.805  0.00  0.00    +0.000 HD
BRANCH  19  21
ATOM     21  C   UNL     1       1.402   4.821  18.214  0.00  0.00    +0.000 C 
BRANCH  21  22
ATOM     22  C   UNL     1       1.239   3.784  19.322  0.00  0.00    +0.000 C 
ATOM     23  N   UNL     1       1.346   4.448  20.682  0.00  0.00    +0.000 NA
ATOM     24  C   UNL     1       2.364   3.872  21.252  0.00  0.00    +0.000 C 
ATOM     25  C   UNL     1       3.030   2.862  20.468  0.00  0.00    +0.000 A 
ATOM     26  C   UNL     1       4.109   2.055  20.650  0.00  0.00    +0.000 A 
ATOM     27  N   UNL     1       4.508   1.206  19.676  0.00  0.00    +0.000 NA
ATOM     28  C   UNL     1       3.781   1.208  18.529  0.00  0.00    +0.000 A 
ATOM     29  N   UNL     1       2.699   1.967  18.272  0.00  0.00    +0.000 NA
ATOM     30  C   UNL     1       2.363   2.785  19.281  0.00  0.00    +0.000 A 
ENDBRANCH  21  22
ENDBRANCH  19  21
ENDBRANCH   1  17
BRANCH   1  31
ATOM     31  C   UNL     1       4.916   4.324  15.971  0.00  0.00    +0.000 C 
BRANCH  31  33
ATOM     32  C   UNL     1       5.975   3.902  13.710  0.00  0.00    +0.000 C 
ATOM     33  C   UNL     1       6.225   4.109  15.195  0.00  0.00    +0.000 C 
ENDBRANCH  31  33
ENDBRANCH   1  31
TORSDOF 10
ENDMDL
MODEL 8
REMARK VINA RESULT:      -7.4      1.738      5.149
REMARK  Name = 
REMARK  11 active torsions:
REMARK  status: ('A' for Active; 'I' for Inactive)
REMARK    1  A    between atoms: C_1  and  C_2
REMARK    2  A    between atoms: C_2  and  C_3
REMARK    3  A    between atoms: C_3  and  C_4
REMARK    4  A    between atoms: C_4  and  C_5
REMARK    5  A    between atoms: C_4  and  N_18
REMARK    6  A    between atoms: N_7  and  C_8
REMARK    7  A    between atoms: C_8  and  C_9
REMARK    8  A    between atoms: C_22  and  C_23
REMARK    9  A    between atoms: C_23  and  O_25
REMARK   10  A    between atoms: O_25  and  C_26
REMARK   11  A    between atoms: C_26  and  C_27
REMARK                            x       y       z     vdW  Elec       q    Type
REMARK                         _______ _______ _______ _____ _____    ______ ____
ROOT
ATOM      1  C   UNL     1       4.999   6.386  16.434  0.00  0.00    +0.000 C 
ENDROOT
BRANCH   1   2
ATOM      2  N   UNL     1       6.128   6.371  17.352  0.00  0.00    +0.000 N 
ATOM      3  C   UNL     1       7.081   7.306  17.554  0.00  0.00    +0.000 C 
ATOM      4  O   UNL     1       7.149   8.463  17.218  0.00  0.00    +0.000 OA
ATOM      5  C   UNL     1       7.989   6.291  18.267  0.00  0.00    +0.000 C 
ATOM      6  C   UNL     1       6.891   5.246  17.922  0.00  0.00    +0.000 C 
BRANCH   6   7
ATOM      7  C   UNL     1       6.227   4.537  19.145  0.00  0.00    +0.000 C 
ATOM      8  O   UNL     1       6.418   4.845  20.317  0.00  0.00    +0.000 OA
BRANCH   7   9
ATOM      9  O   UNL     1       5.400   3.522  18.754  0.00  0.00    +0.000 OA
BRANCH   9  10
ATOM     10  C   UNL     1       4.748   2.799  19.807  0.00  0.00    +0.000 C 
BRANCH  10  11
ATOM     11  C   UNL     1       3.247   2.954  19.748  0.00  0.00    +0.000 A 
ATOM     12  C   UNL     1       2.522   2.228  18.790  0.00  0.00    +0.000 A 
ATOM     13  C   UNL     1       1.132   2.319  18.727  0.00  0.00    +0.000 A 
ATOM     14  C   UNL     1       0.445   3.128  19.630  0.00  0.00    +0.000 A 
ATOM     15  C   UNL     1       1.149   3.836  20.602  0.00  0.00    +0.000 A 
ATOM     16  C   UNL     1       2.541   3.744  20.665  0.00  0.00    +0.000 A 
ENDBRANCH  10  11
ENDBRANCH   9  10
ENDBRANCH   7   9
ENDBRANCH   6   7
ENDBRANCH   1   2
BRANCH   1  17
ATOM     17  C   UNL     1       3.678   6.513  17.223  0.00  0.00    +0.000 C 
ATOM     18  O   UNL     1       3.049   5.541  17.638  0.00  0.00    +0.000 OA
ATOM     19  N   UNL     1       3.145   7.780  17.307  0.00  0.00    +0.000 N 
ATOM     20  H   UNL     1       3.763   8.580  17.208  0.00  0.00    +0.000 HD
BRANCH  19  21
ATOM     21  C   UNL     1       1.900   7.982  18.028  0.00  0.00    +0.000 C 
BRANCH  21  22
ATOM     22  C   UNL     1       2.092   8.704  19.360  0.00  0.00    +0.000 C 
ATOM     23  N   UNL     1       1.747   7.780  20.512  0.00  0.00    +0.000 NA
ATOM     24  C   UNL     1       0.768   8.375  21.130  0.00  0.00    +0.000 C 
ATOM     25  C   UNL     1       0.343   9.631  20.564  0.00  0.00    +0.000 A 
ATOM     26  C   UNL     1      -0.621  10.544  20.855  0.00  0.00    +0.000 A 
ATOM     27  N   UNL     1      -0.787  11.643  20.085  0.00  0.00    +0.000 NA
ATOM     28  C   UNL     1       0.050  11.776  19.024  0.00  0.00    +0.000 A 
ATOM     29  N   UNL     1       1.032  10.926  18.672  0.00  0.00    +0.000 NA
ATOM     30  C   UNL     1       1.136   9.859  19.478  0.00  0.00    +0.000 A 
ENDBRANCH  21  22
ENDBRANCH  19  21
ENDBRANCH   1  17
BRANCH   1  31
ATOM     31  C   UNL     1       5.007   5.167  15.488  0.00  0.00    +0.000 C 
BRANCH  31  33
ATOM     32  C   UNL     1       6.165   3.889  13.633  0.00  0.00    +0.000 C 
ATOM     33  C   UNL     1       6.250   5.067  14.591  0.00  0.00    +0.000 C 
ENDBRANCH  31  33
ENDBRANCH   1  31
TORSDOF 10
ENDMDL
MODEL 9
REMARK VINA RESULT:      -7.4      1.594      2.983
REMARK  Name = 
REMARK  11 active torsions:
REMARK  status: ('A' for Active; 'I' for Inactive)
REMARK    1  A    between atoms: C_1  and  C_2
REMARK    2  A    between atoms: C_2  and  C_3
REMARK    3  A    between atoms: C_3  and  C_4
REMARK    4  A    between atoms: C_4  and  C_5
REMARK    5  A    between atoms: C_4  and  N_18
REMARK    6  A    between atoms: N_7  and  C_8
REMARK    7  A    between atoms: C_8  and  C_9
REMARK    8  A    between atoms: C_22  and  C_23
REMARK    9  A    between atoms: C_23  and  O_25
REMARK   10  A    between atoms: O_25  and  C_26
REMARK   11  A    between atoms: C_26  and  C_27
REMARK                            x       y       z     vdW  Elec       q    Type
REMARK                         _______ _______ _______ _____ _____    ______ ____
ROOT
ATOM      1  C   UNL     1       3.829   5.785  19.647  0.00  0.00    +0.000 C 
ENDROOT
BRANCH   1   2
ATOM      2  N   UNL     1       3.370   4.409  19.531  0.00  0.00    +0.000 N 
ATOM      3  C   UNL     1       2.647   3.670  20.400  0.00  0.00    +0.000 C 
ATOM      4  O   UNL     1       2.007   3.982  21.374  0.00  0.00    +0.000 OA
ATOM      5  C   UNL     1       3.047   2.366  19.690  0.00  0.00    +0.000 C 
ATOM      6  C   UNL     1       3.929   3.269  18.783  0.00  0.00    +0.000 C 
BRANCH   6   7
ATOM      7  C   UNL     1       3.586   3.234  17.260  0.00  0.00    +0.000 C 
ATOM      8  O   UNL     1       2.456   3.092  16.803  0.00  0.00    +0.000 OA
BRANCH   7   9
ATOM      9  O   UNL     1       4.703   3.378  16.486  0.00  0.00    +0.000 OA
BRANCH   9  10
ATOM     10  C   UNL     1       4.772   4.572  15.695  0.00  0.00    +0.000 C 
BRANCH  10  11
ATOM     11  C   UNL     1       5.642   4.388  14.475  0.00  0.00    +0.000 A 
ATOM     12  C   UNL     1       5.160   3.624  13.400  0.00  0.00    +0.000 A 
ATOM     13  C   UNL     1       5.921   3.460  12.243  0.00  0.00    +0.000 A 
ATOM     14  C   UNL     1       7.171   4.067  12.139  0.00  0.00    +0.000 A 
ATOM     15  C   UNL     1       7.653   4.847  13.188  0.00  0.00    +0.000 A 
ATOM     16  C   UNL     1       6.890   5.013  14.345  0.00  0.00    +0.000 A 
ENDBRANCH  10  11
ENDBRANCH   9  10
ENDBRANCH   7   9
ENDBRANCH   6   7
ENDBRANCH   1   2
BRANCH   1  17
ATOM     17  C   UNL     1       2.626   6.751  19.572  0.00  0.00    +0.000 C 
ATOM     18  O   UNL     1       2.219   7.231  18.515  0.00  0.00    +0.000 OA
ATOM     19  N   UNL     1       2.121   7.183  20.778  0.00  0.00    +0.000 N 
ATOM     20  H   UNL     1       2.269   6.610  21.604  0.00  0.00    +0.000 HD
BRANCH  19  21
ATOM     21  C   UNL     1       0.993   8.098  20.790  0.00  0.00    +0.000 C 
BRANCH  21  22
ATOM     22  C   UNL     1       1.199   9.287  21.725  0.00  0.00    +0.000 C 
ATOM     23  N   UNL     1       0.343   9.134  22.967  0.00  0.00    +0.000 NA
ATOM     24  C   UNL     1      -0.442  10.171  22.958  0.00  0.00    +0.000 C 
ATOM     25  C   UNL     1      -0.271  11.074  21.846  0.00  0.00    +0.000 A 
ATOM     26  C   UNL     1      -0.869  12.225  21.437  0.00  0.00    +0.000 A 
ATOM     27  N   UNL     1      -0.483  12.834  20.293  0.00  0.00    +0.000 NA
ATOM     28  C   UNL     1       0.517  12.239  19.593  0.00  0.00    +0.000 A 
ATOM     29  N   UNL     1       1.165  11.109  19.931  0.00  0.00    +0.000 NA
ATOM     30  C   UNL     1       0.728  10.559  21.074  0.00  0.00    +0.000 A 
ENDBRANCH  21  22
ENDBRANCH  19  21
ENDBRANCH   1  17
BRANCH   1  31
ATOM     31  C   UNL     1       4.922   6.120  18.612  0.00  0.00    +0.000 C 
BRANCH  31  33
ATOM     32  C   UNL     1       7.405   6.261  18.133  0.00  0.00    +0.000 C 
ATOM     33  C   UNL     1       6.324   5.608  18.978  0.00  0.00    +0.000 C 
ENDBRANCH  31  33
ENDBRANCH   1  31
TORSDOF 10
ENDMDL
