MODEL 1
REMARK VINA RESULT:      -6.8      0.000      0.000
REMARK  Name = 
REMARK  9 active torsions:
REMARK  status: ('A' for Active; 'I' for Inactive)
REMARK    1  A    between atoms: C_1  and  C_2
REMARK    2  A    between atoms: C_2  and  N_3
REMARK    3  A    between atoms: N_3  and  C_4
REMARK    4  A    between atoms: N_3  and  C_6
REMARK    5  A    between atoms: C_4  and  C_5
REMARK    6  A    between atoms: C_6  and  C_7
REMARK    7  A    between atoms: C_13  and  C_14
REMARK    8  A    between atoms: C_15  and  C_16
REMARK    9  A    between atoms: C_16  and  O_17
REMARK                            x       y       z     vdW  Elec       q    Type
REMARK                         _______ _______ _______ _____ _____    ______ ____
ROOT
ATOM      1  C   UNL     1       4.893   4.683  17.890  0.00  0.00    +0.000 C 
ATOM      2  C   UNL     1       5.543   4.367  19.210  0.00  0.00    +0.000 C 
ATOM      3  O   UNL     1       6.385   5.060  19.760  0.00  0.00    +0.000 OA
ATOM      4  O   UNL     1       5.070   3.184  19.710  0.00  0.00    +0.000 OA
ATOM      5  C   UNL     1       4.048   2.689  18.845  0.00  0.00    +0.000 C 
ATOM      6  C   UNL     1       2.832   2.218  19.626  0.00  0.00    +0.000 C 
ATOM      7  C   UNL     1       1.759   3.311  19.501  0.00  0.00    +0.000 C 
ATOM      8  C   UNL     1       0.517   2.800  18.773  0.00  0.00    +0.000 C 
ATOM      9  C   UNL     1       2.411   4.499  18.754  0.00  0.00    +0.000 C 
ATOM     10  C   UNL     1       3.615   3.866  17.994  0.00  0.00    +0.000 C 
ENDROOT
BRANCH   1  11
ATOM     11  C   UNL     1       5.910   4.233  16.820  0.00  0.00    +0.000 C 
BRANCH  11  12
ATOM     12  N   UNL     1       6.757   5.275  16.178  0.00  0.00    +0.000 NA
BRANCH  12  14
ATOM     13  C   UNL     1       6.162   3.872  14.139  0.00  0.00    +0.000 C 
ATOM     14  C   UNL     1       6.575   5.230  14.706  0.00  0.00    +0.000 C 
ENDBRANCH  12  14
BRANCH  12  15
ATOM     15  C   UNL     1       6.363   6.614  16.695  0.00  0.00    +0.000 C 
ATOM     16  C   UNL     1       7.453   7.389  17.436  0.00  0.00    +0.000 C 
ENDBRANCH  12  15
ENDBRANCH  11  12
ENDBRANCH   1  11
BRANCH   9  17
ATOM     17  C   UNL     1       2.671   5.672  19.718  0.00  0.00    +0.000 C 
BRANCH  17  18
ATOM     18  O   UNL     1       2.462   5.303  21.068  0.00  0.00    +0.000 OA
ATOM     19  H   UNL     1       3.292   5.431  21.564  0.00  0.00    +0.000 HD
ENDBRANCH  17  18
ENDBRANCH   9  17
TORSDOF 6
ENDMDL
MODEL 2
REMARK VINA RESULT:      -6.8      2.118      5.633
REMARK  Name = 
REMARK  9 active torsions:
REMARK  status: ('A' for Active; 'I' for Inactive)
REMARK    1  A    between atoms: C_1  and  C_2
REMARK    2  A    between atoms: C_2  and  N_3
REMARK    3  A    between atoms: N_3  and  C_4
REMARK    4  A    between atoms: N_3  and  C_6
REMARK    5  A    between atoms: C_4  and  C_5
REMARK    6  A    between atoms: C_6  and  C_7
REMARK    7  A    between atoms: C_13  and  C_14
REMARK    8  A    between atoms: C_15  and  C_16
REMARK    9  A    between atoms: C_16  and  O_17
REMARK                            x       y       z     vdW  Elec       q    Type
REMARK                         _______ _______ _______ _____ _____    ______ ____
ROOT
ATOM      1  C   UNL     1       3.830   5.061  17.573  0.00  0.00    +0.000 C 
ATOM      2  C   UNL     1       4.454   3.756  17.985  0.00  0.00    +0.000 C 
ATOM      3  O   UNL     1       4.103   2.655  17.592  0.00  0.00    +0.000 OA
ATOM      4  O   UNL     1       5.471   3.968  18.878  0.00  0.00    +0.000 OA
ATOM      5  C   UNL     1       5.653   5.373  19.051  0.00  0.00    +0.000 C 
ATOM      6  C   UNL     1       7.122   5.760  18.993  0.00  0.00    +0.000 C 
ATOM      7  C   UNL     1       7.378   6.369  17.606  0.00  0.00    +0.000 C 
ATOM      8  C   UNL     1       7.801   7.834  17.704  0.00  0.00    +0.000 C 
ATOM      9  C   UNL     1       6.071   6.205  16.793  0.00  0.00    +0.000 C 
ATOM     10  C   UNL     1       4.962   6.031  17.873  0.00  0.00    +0.000 C 
ENDROOT
BRANCH   1  11
ATOM     11  C   UNL     1       2.561   5.196  18.441  0.00  0.00    +0.000 C 
BRANCH  11  12
ATOM     12  N   UNL     1       2.691   5.844  19.774  0.00  0.00    +0.000 NA
BRANCH  12  14
ATOM     13  C   UNL     1       1.451   7.748  20.921  0.00  0.00    +0.000 C 
ATOM     14  C   UNL     1       2.214   7.247  19.696  0.00  0.00    +0.000 C 
ENDBRANCH  12  14
BRANCH  12  15
ATOM     15  C   UNL     1       1.880   5.090  20.768  0.00  0.00    +0.000 C 
ATOM     16  C   UNL     1       1.313   3.753  20.287  0.00  0.00    +0.000 C 
ENDBRANCH  12  15
ENDBRANCH  11  12
ENDBRANCH   1  11
BRANCH   9  17
ATOM     17  C   UNL     1       6.236   5.121  15.711  0.00  0.00    +0.000 C 
BRANCH  17  18
ATOM     18  O   UNL     1       7.531   4.551  15.726  0.00  0.00    +0.000 OA
ATOM     19  H   UNL     1       8.111   5.066  15.135  0.00  0.00    +0.000 HD
ENDBRANCH  17  18
ENDBRANCH   9  17
TORSDOF 6
ENDMDL
MODEL 3
REMARK VINA RESULT:      -6.8      2.071      5.736
REMARK  Name = 
REMARK  9 active torsions:
REMARK  status: ('A' for Active; 'I' for Inactive)
REMARK    1  A    between atoms: C_1  and  C_2
REMARK    2  A    between atoms: C_2  and  N_3
REMARK    3  A    between atoms: N_3  and  C_4
REMARK    4  A    between atoms: N_3  and  C_6
REMARK    5  A    between atoms: C_4  and  C_5
REMARK    6  A    between atoms: C_6  and  C_7
REMARK    7  A    between atoms: C_13  and  C_14
REMARK    8  A    between atoms: C_15  and  C_16
REMARK    9  A    between atoms: C_16  and  O_17
REMARK                            x       y       z     vdW  Elec       q    Type
REMARK                         _______ _______ _______ _____ _____    ______ ____
ROOT
ATOM      1  C   UNL     1       3.992   5.222  17.586  0.00  0.00    +0.000 C 
ATOM      2  C   UNL     1       4.623   3.895  17.909  0.00  0.00    +0.000 C 
ATOM      3  O   UNL     1       4.270   2.820  17.450  0.00  0.00    +0.000 OA
ATOM      4  O   UNL     1       5.647   4.053  18.803  0.00  0.00    +0.000 OA
ATOM      5  C   UNL     1       5.828   5.445  19.063  0.00  0.00    +0.000 C 
ATOM      6  C   UNL     1       7.296   5.839  19.016  0.00  0.00    +0.000 C 
ATOM      7  C   UNL     1       7.537   6.536  17.667  0.00  0.00    +0.000 C 
ATOM      8  C   UNL     1       7.958   7.993  17.854  0.00  0.00    +0.000 C 
ATOM      9  C   UNL     1       6.223   6.419  16.858  0.00  0.00    +0.000 C 
ATOM     10  C   UNL     1       5.124   6.174  17.935  0.00  0.00    +0.000 C 
ENDROOT
BRANCH   1  11
ATOM     11  C   UNL     1       2.732   5.298  18.473  0.00  0.00    +0.000 C 
BRANCH  11  12
ATOM     12  N   UNL     1       2.413   4.130  19.337  0.00  0.00    +0.000 NA
BRANCH  12  14
ATOM     13  C   UNL     1       2.201   3.421  21.773  0.00  0.00    +0.000 C 
ATOM     14  C   UNL     1       2.430   4.544  20.763  0.00  0.00    +0.000 C 
ENDBRANCH  12  14
BRANCH  12  15
ATOM     15  C   UNL     1       1.066   3.608  18.980  0.00  0.00    +0.000 C 
ATOM     16  C   UNL     1       0.996   2.118  18.645  0.00  0.00    +0.000 C 
ENDBRANCH  12  15
ENDBRANCH  11  12
ENDBRANCH   1  11
BRANCH   9  17
ATOM     17  C   UNL     1       6.380   5.407  15.708  0.00  0.00    +0.000 C 
BRANCH  17  18
ATOM     18  O   UNL     1       7.439   4.499  15.944  0.00  0.00    +0.000 OA
ATOM     19  H   UNL     1       7.099   3.588  15.867  0.00  0.00    +0.000 HD
ENDBRANCH  17  18
ENDBRANCH   9  17
TORSDOF 6
ENDMDL
MODEL 4
REMARK VINA RESULT:      -6.8      1.887      2.603
REMARK  Name = 
REMARK  9 active torsions:
REMARK  status: ('A' for Active; 'I' for Inactive)
REMARK    1  A    between atoms: C_1  and  C_2
REMARK    2  A    between atoms: C_2  and  N_3
REMARK    3  A    between atoms: N_3  and  C_4
REMARK    4  A    between atoms: N_3  and  C_6
REMARK    5  A    between atoms: C_4  and  C_5
REMARK    6  A    between atoms: C_6  and  C_7
REMARK    7  A    between atoms: C_13  and  C_14
REMARK    8  A    between atoms: C_15  and  C_16
REMARK    9  A    between atoms: C_16  and  O_17
REMARK                            x       y       z     vdW  Elec       q    Type
REMARK                         _______ _______ _______ _____ _____    ______ ____
ROOT
ATOM      1  C   UNL     1       4.750   4.951  18.469  0.00  0.00    +0.000 C 
ATOM      2  C   UNL     1       3.915   6.096  17.963  0.00  0.00    +0.000 C 
ATOM      3  O   UNL     1       4.036   6.622  16.868  0.00  0.00    +0.000 OA
ATOM      4  O   UNL     1       3.002   6.480  18.907  0.00  0.00    +0.000 OA
ATOM      5  C   UNL     1       3.093   5.601  20.029  0.00  0.00    +0.000 C 
ATOM      6  C   UNL     1       1.720   5.147  20.498  0.00  0.00    +0.000 C 
ATOM      7  C   UNL     1       1.513   3.714  19.983  0.00  0.00    +0.000 C 
ATOM      8  C   UNL     1       1.375   2.717  21.133  0.00  0.00    +0.000 C 
ATOM      9  C   UNL     1       2.725   3.381  19.080  0.00  0.00    +0.000 C 
ATOM     10  C   UNL     1       3.835   4.374  19.537  0.00  0.00    +0.000 C 
ENDROOT
BRANCH   1  11
ATOM     11  C   UNL     1       6.063   5.594  18.964  0.00  0.00    +0.000 C 
BRANCH  11  12
ATOM     12  N   UNL     1       7.241   5.567  18.056  0.00  0.00    +0.000 NA
BRANCH  12  14
ATOM     13  C   UNL     1       6.989   4.862  15.622  0.00  0.00    +0.000 C 
ATOM     14  C   UNL     1       7.101   4.449  17.089  0.00  0.00    +0.000 C 
ENDBRANCH  12  14
BRANCH  12  15
ATOM     15  C   UNL     1       7.326   6.859  17.323  0.00  0.00    +0.000 C 
ATOM     16  C   UNL     1       8.077   7.983  18.039  0.00  0.00    +0.000 C 
ENDBRANCH  12  15
ENDBRANCH  11  12
ENDBRANCH   1  11
BRANCH   9  17
ATOM     17  C   UNL     1       2.309   3.357  17.597  0.00  0.00    +0.000 C 
BRANCH  17  18
ATOM     18  O   UNL     1       1.182   4.178  17.352  0.00  0.00    +0.000 OA
ATOM     19  H   UNL     1       0.747   3.882  16.531  0.00  0.00    +0.000 HD
ENDBRANCH  17  18
ENDBRANCH   9  17
TORSDOF 6
ENDMDL
MODEL 5
REMARK VINA RESULT:      -6.8      0.367      1.880
REMARK  Name = 
REMARK  9 active torsions:
REMARK  status: ('A' for Active; 'I' for Inactive)
REMARK    1  A    between atoms: C_1  and  C_2
REMARK    2  A    between atoms: C_2  and  N_3
REMARK    3  A    between atoms: N_3  and  C_4
REMARK    4  A    between atoms: N_3  and  C_6
REMARK    5  A    between atoms: C_4  and  C_5
REMARK    6  A    between atoms: C_6  and  C_7
REMARK    7  A    between atoms: C_13  and  C_14
REMARK    8  A    between atoms: C_15  and  C_16
REMARK    9  A    between atoms: C_16  and  O_17
REMARK                            x       y       z     vdW  Elec       q    Type
REMARK                         _______ _______ _______ _____ _____    ______ ____
ROOT
ATOM      1  C   UNL     1       4.704   4.763  17.899  0.00  0.00    +0.000 C 
ATOM      2  C   UNL     1       5.385   4.440  19.201  0.00  0.00    +0.000 C 
ATOM      3  O   UNL     1       6.199   5.155  19.763  0.00  0.00    +0.000 OA
ATOM      4  O   UNL     1       4.975   3.220  19.668  0.00  0.00    +0.000 OA
ATOM      5  C   UNL     1       3.968   2.702  18.799  0.00  0.00    +0.000 C 
ATOM      6  C   UNL     1       2.786   2.149  19.578  0.00  0.00    +0.000 C 
ATOM      7  C   UNL     1       1.660   3.192  19.499  0.00  0.00    +0.000 C 
ATOM      8  C   UNL     1       0.435   2.643  18.768  0.00  0.00    +0.000 C 
ATOM      9  C   UNL     1       2.245   4.433  18.783  0.00  0.00    +0.000 C 
ATOM     10  C   UNL     1       3.469   3.883  17.991  0.00  0.00    +0.000 C 
ENDROOT
BRANCH   1  11
ATOM     11  C   UNL     1       5.729   4.398  16.804  0.00  0.00    +0.000 C 
BRANCH  11  12
ATOM     12  N   UNL     1       6.357   5.506  16.035  0.00  0.00    +0.000 NA
BRANCH  12  14
ATOM     13  C   UNL     1       7.166   7.525  17.357  0.00  0.00    +0.000 C 
ATOM     14  C   UNL     1       7.446   6.116  16.838  0.00  0.00    +0.000 C 
ENDBRANCH  12  14
BRANCH  12  15
ATOM     15  C   UNL     1       6.909   4.969  14.762  0.00  0.00    +0.000 C 
ATOM     16  C   UNL     1       6.053   3.915  14.057  0.00  0.00    +0.000 C 
ENDBRANCH  12  15
ENDBRANCH  11  12
ENDBRANCH   1  11
BRANCH   9  17
ATOM     17  C   UNL     1       2.459   5.587  19.780  0.00  0.00    +0.000 C 
BRANCH  17  18
ATOM     18  O   UNL     1       2.617   5.117  21.106  0.00  0.00    +0.000 OA
ATOM     19  H   UNL     1       2.598   4.142  21.101  0.00  0.00    +0.000 HD
ENDBRANCH  17  18
ENDBRANCH   9  17
TORSDOF 6
ENDMDL
MODEL 6
REMARK VINA RESULT:      -6.7      2.192      5.494
REMARK  Name = 
REMARK  9 active torsions:
REMARK  status: ('A' for Active; 'I' for Inactive)
REMARK    1  A    between atoms: C_1  and  C_2
REMARK    2  A    between atoms: C_2  and  N_3
REMARK    3  A    between atoms: N_3  and  C_4
REMARK    4  A    between atoms: N_3  and  C_6
REMARK    5  A    between atoms: C_4  and  C_5
REMARK    6  A    between atoms: C_6  and  C_7
REMARK    7  A    between atoms: C_13  and  C_14
REMARK    8  A    between atoms: C_15  and  C_16
REMARK    9  A    between atoms: C_16  and  O_17
REMARK                            x       y       z     vdW  Elec       q    Type
REMARK                         _______ _______ _______ _____ _____    ______ ____
ROOT
ATOM      1  C   UNL     1       4.025   5.003  18.524  0.00  0.00    +0.000 C 
ATOM      2  C   UNL     1       4.821   3.731  18.621  0.00  0.00    +0.000 C 
ATOM      3  O   UNL     1       4.416   2.624  18.303  0.00  0.00    +0.000 OA
ATOM      4  O   UNL     1       6.068   3.979  19.128  0.00  0.00    +0.000 OA
ATOM      5  C   UNL     1       6.223   5.386  19.315  0.00  0.00    +0.000 C 
ATOM      6  C   UNL     1       7.562   5.878  18.787  0.00  0.00    +0.000 C 
ATOM      7  C   UNL     1       7.296   6.558  17.435  0.00  0.00    +0.000 C 
ATOM      8  C   UNL     1       7.649   8.044  17.473  0.00  0.00    +0.000 C 
ATOM      9  C   UNL     1       5.801   6.333  17.104  0.00  0.00    +0.000 C 
ATOM     10  C   UNL     1       5.138   6.039  18.482  0.00  0.00    +0.000 C 
ENDROOT
BRANCH   1  11
ATOM     11  C   UNL     1       3.124   5.014  19.777  0.00  0.00    +0.000 C 
BRANCH  11  12
ATOM     12  N   UNL     1       1.669   4.763  19.595  0.00  0.00    +0.000 NA
BRANCH  12  14
ATOM     13  C   UNL     1       0.957   2.602  18.453  0.00  0.00    +0.000 C 
ATOM     14  C   UNL     1       1.443   4.045  18.316  0.00  0.00    +0.000 C 
ENDBRANCH  12  14
BRANCH  12  15
ATOM     15  C   UNL     1       1.166   3.943  20.730  0.00  0.00    +0.000 C 
ATOM     16  C   UNL     1       2.228   3.439  21.709  0.00  0.00    +0.000 C 
ENDBRANCH  12  15
ENDBRANCH  11  12
ENDBRANCH   1  11
BRANCH   9  17
ATOM     17  C   UNL     1       5.643   5.308  15.965  0.00  0.00    +0.000 C 
BRANCH  17  18
ATOM     18  O   UNL     1       6.889   4.769  15.564  0.00  0.00    +0.000 OA
ATOM     19  H   UNL     1       7.547   5.487  15.523  0.00  0.00    +0.000 HD
ENDBRANCH  17  18
ENDBRANCH   9  17
TORSDOF 6
ENDMDL
MODEL 7
REMARK VINA RESULT:      -6.7      2.287      5.539
REMARK  Name = 
REMARK  9 active torsions:
REMARK  status: ('A' for Active; 'I' for Inactive)
REMARK    1  A    between atoms: C_1  and  C_2
REMARK    2  A    between atoms: C_2  and  N_3
REMARK    3  A    between atoms: N_3  and  C_4
REMARK    4  A    between atoms: N_3  and  C_6
REMARK    5  A    between atoms: C_4  and  C_5
REMARK    6  A    between atoms: C_6  and  C_7
REMARK    7  A    between atoms: C_13  and  C_14
REMARK    8  A    between atoms: C_15  and  C_16
REMARK    9  A    between atoms: C_16  and  O_17
REMARK                            x       y       z     vdW  Elec       q    Type
REMARK                         _______ _______ _______ _____ _____    ______ ____
ROOT
ATOM      1  C   UNL     1       4.033   5.245  18.489  0.00  0.00    +0.000 C 
ATOM      2  C   UNL     1       4.708   3.937  18.179  0.00  0.00    +0.000 C 
ATOM      3  O   UNL     1       4.160   2.965  17.683  0.00  0.00    +0.000 OA
ATOM      4  O   UNL     1       6.027   3.979  18.540  0.00  0.00    +0.000 OA
ATOM      5  C   UNL     1       6.340   5.288  19.014  0.00  0.00    +0.000 C 
ATOM      6  C   UNL     1       7.641   5.804  18.420  0.00  0.00    +0.000 C 
ATOM      7  C   UNL     1       7.272   6.800  17.309  0.00  0.00    +0.000 C 
ATOM      8  C   UNL     1       7.768   8.209  17.629  0.00  0.00    +0.000 C 
ATOM      9  C   UNL     1       5.732   6.756  17.159  0.00  0.00    +0.000 C 
ATOM     10  C   UNL     1       5.225   6.187  18.518  0.00  0.00    +0.000 C 
ENDROOT
BRANCH   1  11
ATOM     11  C   UNL     1       3.304   5.017  19.830  0.00  0.00    +0.000 C 
BRANCH  11  12
ATOM     12  N   UNL     1       1.824   5.166  19.857  0.00  0.00    +0.000 NA
BRANCH  12  14
ATOM     13  C   UNL     1       0.910   2.850  19.326  0.00  0.00    +0.000 C 
ATOM     14  C   UNL     1       1.206   3.920  20.376  0.00  0.00    +0.000 C 
ENDBRANCH  12  14
BRANCH  12  15
ATOM     15  C   UNL     1       1.461   6.312  20.734  0.00  0.00    +0.000 C 
ATOM     16  C   UNL     1       1.845   7.697  20.211  0.00  0.00    +0.000 C 
ENDBRANCH  12  15
ENDBRANCH  11  12
ENDBRANCH   1  11
BRANCH   9  17
ATOM     17  C   UNL     1       5.332   6.041  15.855  0.00  0.00    +0.000 C 
BRANCH  17  18
ATOM     18  O   UNL     1       6.461   5.562  15.148  0.00  0.00    +0.000 OA
ATOM     19  H   UNL     1       7.266   5.766  15.659  0.00  0.00    +0.000 HD
ENDBRANCH  17  18
ENDBRANCH   9  17
TORSDOF 6
ENDMDL
MODEL 8
REMARK VINA RESULT:      -6.7      1.882      3.068
REMARK  Name = 
REMARK  9 active torsions:
REMARK  status: ('A' for Active; 'I' for Inactive)
REMARK    1  A    between atoms: C_1  and  C_2
REMARK    2  A    between atoms: C_2  and  N_3
REMARK    3  A    between atoms: N_3  and  C_4
REMARK    4  A    between atoms: N_3  and  C_6
REMARK    5  A    between atoms: C_4  and  C_5
REMARK    6  A    between atoms: C_6  and  C_7
REMARK    7  A    between atoms: C_13  and  C_14
REMARK    8  A    between atoms: C_15  and  C_16
REMARK    9  A    between atoms: C_16  and  O_17
REMARK                            x       y       z     vdW  Elec       q    Type
REMARK                         _______ _______ _______ _____ _____    ______ ____
ROOT
ATOM      1  C   UNL     1       4.659   4.257  18.531  0.00  0.00    +0.000 C 
ATOM      2  C   UNL     1       3.877   5.394  17.934  0.00  0.00    +0.000 C 
ATOM      3  O   UNL     1       3.977   5.786  16.782  0.00  0.00    +0.000 OA
ATOM      4  O   UNL     1       3.038   5.944  18.866  0.00  0.00    +0.000 OA
ATOM      5  C   UNL     1       3.128   5.190  20.075  0.00  0.00    +0.000 C 
ATOM      6  C   UNL     1       1.754   4.889  20.651  0.00  0.00    +0.000 C 
ATOM      7  C   UNL     1       1.428   3.426  20.312  0.00  0.00    +0.000 C 
ATOM      8  C   UNL     1       1.283   2.575  21.572  0.00  0.00    +0.000 C 
ATOM      9  C   UNL     1       2.569   2.910  19.402  0.00  0.00    +0.000 C 
ATOM     10  C   UNL     1       3.763   3.868  19.696  0.00  0.00    +0.000 C 
ENDROOT
BRANCH   1  11
ATOM     11  C   UNL     1       6.034   4.856  18.893  0.00  0.00    +0.000 C 
BRANCH  11  12
ATOM     12  N   UNL     1       6.773   5.600  17.838  0.00  0.00    +0.000 NA
BRANCH  12  14
ATOM     13  C   UNL     1       7.886   7.888  17.761  0.00  0.00    +0.000 C 
ATOM     14  C   UNL     1       7.731   6.543  18.468  0.00  0.00    +0.000 C 
ENDBRANCH  12  14
BRANCH  12  15
ATOM     15  C   UNL     1       7.509   4.632  16.980  0.00  0.00    +0.000 C 
ATOM     16  C   UNL     1       7.079   4.581  15.513  0.00  0.00    +0.000 C 
ENDBRANCH  12  15
ENDBRANCH  11  12
ENDBRANCH   1  11
BRANCH   9  17
ATOM     17  C   UNL     1       2.078   2.752  17.950  0.00  0.00    +0.000 C 
BRANCH  17  18
ATOM     18  O   UNL     1       1.025   3.647  17.648  0.00  0.00    +0.000 OA
ATOM     19  H   UNL     1       0.202   3.319  18.057  0.00  0.00    +0.000 HD
ENDBRANCH  17  18
ENDBRANCH   9  17
TORSDOF 6
ENDMDL
MODEL 9
REMARK VINA RESULT:      -6.5      2.299      5.820
REMARK  Name = 
REMARK  9 active torsions:
REMARK  status: ('A' for Active; 'I' for Inactive)
REMARK    1  A    between atoms: C_1  and  C_2
REMARK    2  A    between atoms: C_2  and  N_3
REMARK    3  A    between atoms: N_3  and  C_4
REMARK    4  A    between atoms: N_3  and  C_6
REMARK    5  A    between atoms: C_4  and  C_5
REMARK    6  A    between atoms: C_6  and  C_7
REMARK    7  A    between atoms: C_13  and  C_14
REMARK    8  A    between atoms: C_15  and  C_16
REMARK    9  A    between atoms: C_16  and  O_17
REMARK                            x       y       z     vdW  Elec       q    Type
REMARK                         _______ _______ _______ _____ _____    ______ ____
ROOT
ATOM      1  C   UNL     1       4.160   5.280  18.566  0.00  0.00    +0.000 C 
ATOM      2  C   UNL     1       4.887   3.969  18.446  0.00  0.00    +0.000 C 
ATOM      3  O   UNL     1       4.402   2.935  18.014  0.00  0.00    +0.000 OA
ATOM      4  O   UNL     1       6.172   4.087  18.901  0.00  0.00    +0.000 OA
ATOM      5  C   UNL     1       6.417   5.448  19.259  0.00  0.00    +0.000 C 
ATOM      6  C   UNL     1       7.749   5.939  18.716  0.00  0.00    +0.000 C 
ATOM      7  C   UNL     1       7.446   6.805  17.482  0.00  0.00    +0.000 C 
ATOM      8  C   UNL     1       7.884   8.254  17.690  0.00  0.00    +0.000 C 
ATOM      9  C   UNL     1       5.925   6.699  17.220  0.00  0.00    +0.000 C 
ATOM     10  C   UNL     1       5.325   6.257  18.588  0.00  0.00    +0.000 C 
ENDROOT
BRANCH   1  11
ATOM     11  C   UNL     1       3.333   5.168  19.864  0.00  0.00    +0.000 C 
BRANCH  11  12
ATOM     12  N   UNL     1       2.528   3.935  20.077  0.00  0.00    +0.000 NA
BRANCH  12  14
ATOM     13  C   UNL     1       1.640   2.467  21.958  0.00  0.00    +0.000 C 
ATOM     14  C   UNL     1       2.122   3.844  21.502  0.00  0.00    +0.000 C 
ENDBRANCH  12  14
BRANCH  12  15
ATOM     15  C   UNL     1       1.320   3.981  19.210  0.00  0.00    +0.000 C 
ATOM     16  C   UNL     1       0.954   2.673  18.508  0.00  0.00    +0.000 C 
ENDBRANCH  12  15
ENDBRANCH  11  12
ENDBRANCH   1  11
BRANCH   9  17
ATOM     17  C   UNL     1       5.646   5.842  15.971  0.00  0.00    +0.000 C 
BRANCH  17  18
ATOM     18  O   UNL     1       5.254   6.633  14.864  0.00  0.00    +0.000 OA
ATOM     19  H   UNL     1       5.700   7.499  14.919  0.00  0.00    +0.000 HD
ENDBRANCH  17  18
ENDBRANCH   9  17
TORSDOF 6
ENDMDL
