MODEL 1
REMARK VINA RESULT:      -6.6      0.000      0.000
REMARK  Name = 
REMARK  11 active torsions:
REMARK  status: ('A' for Active; 'I' for Inactive)
REMARK    1  A    between atoms: C_1  and  C_2
REMARK    2  A    between atoms: C_2  and  O_3
REMARK    3  A    between atoms: O_3  and  C_4
REMARK    4  A    between atoms: C_7  and  O_8
REMARK    5  A    between atoms: O_8  and  C_9
REMARK    6  A    between atoms: C_11  and  C_12
REMARK    7  A    between atoms: C_15  and  C_16
REMARK    8  A    between atoms: N_17  and  O_18
REMARK    9  A    between atoms: N_22  and  C_23
REMARK   10  A    between atoms: C_23  and  C_24
REMARK   11  A    between atoms: C_23  and  C_25
REMARK                            x       y       z     vdW  Elec       q    Type
REMARK                         _______ _______ _______ _____ _____    ______ ____
ROOT
ATOM      1  C   UNL     1      -0.537  11.009  18.626  0.00  0.00    +0.000 A 
ATOM      2  N   UNL     1      -1.070  10.428  17.512  0.00  0.00    +0.000 NA
ATOM      3  C   UNL     1      -2.399  10.541  17.291  0.00  0.00    +0.000 A 
ATOM      4  C   UNL     1      -2.951   9.821  16.099  0.00  0.00    +0.000 C 
ATOM      5  C   UNL     1      -3.225  11.253  18.140  0.00  0.00    +0.000 A 
ATOM      6  C   UNL     1      -2.661  11.887  19.245  0.00  0.00    +0.000 A 
ATOM      7  C   UNL     1      -1.291  11.771  19.514  0.00  0.00    +0.000 A 
ENDROOT
BRANCH   7   8
ATOM      8  C   UNL     1      -0.722  12.483  20.716  0.00  0.00    +0.000 C 
ATOM      9  N   UNL     1      -0.948  11.964  21.889  0.00  0.00    +0.000 NA
ATOM     10  N   UNL     1       0.058  13.604  20.457  0.00  0.00    +0.000 N 
ATOM     11  C   UNL     1       1.449  13.694  20.899  0.00  0.00    +0.000 C 
ATOM     12  C   UNL     1       2.271  14.371  19.775  0.00  0.00    +0.000 C 
ATOM     13  N   UNL     1       1.785  15.724  19.376  0.00  0.00    +0.000 NA
ATOM     14  C   UNL     1       0.340  15.589  19.032  0.00  0.00    +0.000 C 
ATOM     15  C   UNL     1      -0.538  14.895  20.104  0.00  0.00    +0.000 C 
BRANCH  13  16
ATOM     16  C   UNL     1       2.050  16.759  20.407  0.00  0.00    +0.000 C 
ATOM     17  C   UNL     1       3.556  17.044  20.554  0.00  0.00    +0.000 C 
ATOM     18  C   UNL     1       1.370  18.098  20.069  0.00  0.00    +0.000 C 
ENDBRANCH  13  16
BRANCH   9  19
ATOM     19  O   UNL     1      -0.380  12.719  22.923  0.00  0.00    +0.000 OA
ATOM     20  H   UNL     1       0.293  13.235  22.443  0.00  0.00    +0.000 HD
ENDBRANCH   9  19
ENDBRANCH   7   8
BRANCH   1  21
ATOM     21  O   UNL     1       0.809  10.785  18.864  0.00  0.00    +0.000 OA
BRANCH  21  25
ATOM     22  C   UNL     1       2.207   6.954  19.777  0.00  0.00    +0.000 A 
ATOM     23  C   UNL     1       2.391   7.511  18.509  0.00  0.00    +0.000 A 
ATOM     24  C   UNL     1       1.904   8.789  18.222  0.00  0.00    +0.000 A 
ATOM     25  C   UNL     1       1.207   9.505  19.193  0.00  0.00    +0.000 A 
ATOM     26  C   UNL     1       1.008   8.937  20.457  0.00  0.00    +0.000 A 
ATOM     27  C   UNL     1       1.480   7.655  20.738  0.00  0.00    +0.000 A 
BRANCH  22  28
ATOM     28  O   UNL     1       2.776   5.725  19.975  0.00  0.00    +0.000 OA
BRANCH  28  30
ATOM     29  C   UNL     1       1.202   3.937  20.163  0.00  0.00    +0.000 C 
ATOM     30  C   UNL     1       2.103   4.889  20.924  0.00  0.00    +0.000 C 
ENDBRANCH  28  30
ENDBRANCH  22  28
ENDBRANCH  21  25
ENDBRANCH   1  21
TORSDOF 7
ENDMDL
MODEL 2
REMARK VINA RESULT:      -6.4      2.384      4.644
REMARK  Name = 
REMARK  11 active torsions:
REMARK  status: ('A' for Active; 'I' for Inactive)
REMARK    1  A    between atoms: C_1  and  C_2
REMARK    2  A    between atoms: C_2  and  O_3
REMARK    3  A    between atoms: O_3  and  C_4
REMARK    4  A    between atoms: C_7  and  O_8
REMARK    5  A    between atoms: O_8  and  C_9
REMARK    6  A    between atoms: C_11  and  C_12
REMARK    7  A    between atoms: C_15  and  C_16
REMARK    8  A    between atoms: N_17  and  O_18
REMARK    9  A    between atoms: N_22  and  C_23
REMARK   10  A    between atoms: C_23  and  C_24
REMARK   11  A    between atoms: C_23  and  C_25
REMARK                            x       y       z     vdW  Elec       q    Type
REMARK                         _______ _______ _______ _____ _____    ______ ____
ROOT
ATOM      1  C   UNL     1       0.936  12.047  19.690  0.00  0.00    +0.000 A 
ATOM      2  N   UNL     1       1.860  12.583  18.840  0.00  0.00    +0.000 NA
ATOM      3  C   UNL     1       2.431  13.766  19.162  0.00  0.00    +0.000 A 
ATOM      4  C   UNL     1       3.379  14.354  18.162  0.00  0.00    +0.000 C 
ATOM      5  C   UNL     1       2.131  14.429  20.337  0.00  0.00    +0.000 A 
ATOM      6  C   UNL     1       1.226  13.846  21.221  0.00  0.00    +0.000 A 
ATOM      7  C   UNL     1       0.602  12.631  20.907  0.00  0.00    +0.000 A 
ENDROOT
BRANCH   7   8
ATOM      8  C   UNL     1      -0.363  12.031  21.900  0.00  0.00    +0.000 C 
ATOM      9  N   UNL     1       0.054  11.027  22.617  0.00  0.00    +0.000 NA
ATOM     10  N   UNL     1      -1.601  12.653  22.010  0.00  0.00    +0.000 N 
ATOM     11  C   UNL     1      -2.077  13.205  23.279  0.00  0.00    +0.000 C 
ATOM     12  C   UNL     1      -2.797  14.544  22.983  0.00  0.00    +0.000 C 
ATOM     13  N   UNL     1      -3.936  14.441  22.024  0.00  0.00    +0.000 NA
ATOM     14  C   UNL     1      -3.415  13.784  20.791  0.00  0.00    +0.000 C 
ATOM     15  C   UNL     1      -2.659  12.449  21.016  0.00  0.00    +0.000 C 
BRANCH  13  16
ATOM     16  C   UNL     1      -5.117  13.754  22.604  0.00  0.00    +0.000 C 
ATOM     17  C   UNL     1      -5.868  14.656  23.600  0.00  0.00    +0.000 C 
ATOM     18  C   UNL     1      -6.130  13.338  21.522  0.00  0.00    +0.000 C 
ENDBRANCH  13  16
BRANCH   9  19
ATOM     19  O   UNL     1      -0.932  10.552  23.492  0.00  0.00    +0.000 OA
ATOM     20  H   UNL     1      -1.730  10.995  23.148  0.00  0.00    +0.000 HD
ENDBRANCH   9  19
ENDBRANCH   7   8
BRANCH   1  21
ATOM     21  O   UNL     1       0.307  10.885  19.274  0.00  0.00    +0.000 OA
BRANCH  21  25
ATOM     22  C   UNL     1       2.471   7.326  18.937  0.00  0.00    +0.000 A 
ATOM     23  C   UNL     1       1.899   7.715  20.150  0.00  0.00    +0.000 A 
ATOM     24  C   UNL     1       1.189   8.916  20.243  0.00  0.00    +0.000 A 
ATOM     25  C   UNL     1       1.073   9.746  19.130  0.00  0.00    +0.000 A 
ATOM     26  C   UNL     1       1.663   9.362  17.920  0.00  0.00    +0.000 A 
ATOM     27  C   UNL     1       2.385   8.171  17.832  0.00  0.00    +0.000 A 
BRANCH  22  28
ATOM     28  O   UNL     1       3.090   6.105  18.935  0.00  0.00    +0.000 OA
BRANCH  28  30
ATOM     29  C   UNL     1       1.631   4.225  18.721  0.00  0.00    +0.000 C 
ATOM     30  C   UNL     1       2.573   5.162  17.990  0.00  0.00    +0.000 C 
ENDBRANCH  28  30
ENDBRANCH  22  28
ENDBRANCH  21  25
ENDBRANCH   1  21
TORSDOF 7
ENDMDL
MODEL 3
REMARK VINA RESULT:      -6.4      0.863      1.026
REMARK  Name = 
REMARK  11 active torsions:
REMARK  status: ('A' for Active; 'I' for Inactive)
REMARK    1  A    between atoms: C_1  and  C_2
REMARK    2  A    between atoms: C_2  and  O_3
REMARK    3  A    between atoms: O_3  and  C_4
REMARK    4  A    between atoms: C_7  and  O_8
REMARK    5  A    between atoms: O_8  and  C_9
REMARK    6  A    between atoms: C_11  and  C_12
REMARK    7  A    between atoms: C_15  and  C_16
REMARK    8  A    between atoms: N_17  and  O_18
REMARK    9  A    between atoms: N_22  and  C_23
REMARK   10  A    between atoms: C_23  and  C_24
REMARK   11  A    between atoms: C_23  and  C_25
REMARK                            x       y       z     vdW  Elec       q    Type
REMARK                         _______ _______ _______ _____ _____    ______ ____
ROOT
ATOM      1  C   UNL     1      -0.553  11.102  18.574  0.00  0.00    +0.000 A 
ATOM      2  N   UNL     1      -1.151  10.465  17.526  0.00  0.00    +0.000 NA
ATOM      3  C   UNL     1      -2.493  10.559  17.387  0.00  0.00    +0.000 A 
ATOM      4  C   UNL     1      -3.114   9.778  16.269  0.00  0.00    +0.000 C 
ATOM      5  C   UNL     1      -3.269  11.304  18.255  0.00  0.00    +0.000 A 
ATOM      6  C   UNL     1      -2.641  11.993  19.289  0.00  0.00    +0.000 A 
ATOM      7  C   UNL     1      -1.255  11.900  19.473  0.00  0.00    +0.000 A 
ENDROOT
BRANCH   7   8
ATOM      8  C   UNL     1      -0.616  12.672  20.600  0.00  0.00    +0.000 C 
ATOM      9  N   UNL     1      -0.661  12.149  21.792  0.00  0.00    +0.000 NA
ATOM     10  N   UNL     1       0.029  13.853  20.252  0.00  0.00    +0.000 N 
ATOM     11  C   UNL     1       1.449  14.067  20.531  0.00  0.00    +0.000 C 
ATOM     12  C   UNL     1       2.074  14.799  19.318  0.00  0.00    +0.000 C 
ATOM     13  N   UNL     1       1.430  16.101  18.976  0.00  0.00    +0.000 NA
ATOM     14  C   UNL     1      -0.027  15.838  18.800  0.00  0.00    +0.000 C 
ATOM     15  C   UNL     1      -0.714  15.084  19.967  0.00  0.00    +0.000 C 
BRANCH  13  16
ATOM     16  C   UNL     1       1.721  17.166  19.968  0.00  0.00    +0.000 C 
ATOM     17  C   UNL     1       3.235  17.375  20.152  0.00  0.00    +0.000 C 
ATOM     18  C   UNL     1       1.129  18.523  19.548  0.00  0.00    +0.000 C 
ENDBRANCH  13  16
BRANCH   9  19
ATOM     19  O   UNL     1      -0.046  12.962  22.753  0.00  0.00    +0.000 OA
ATOM     20  H   UNL     1      -0.082  13.837  22.324  0.00  0.00    +0.000 HD
ENDBRANCH   9  19
ENDBRANCH   7   8
BRANCH   1  21
ATOM     21  O   UNL     1       0.808  10.899  18.733  0.00  0.00    +0.000 OA
BRANCH  21  25
ATOM     22  C   UNL     1       2.319   7.097  19.587  0.00  0.00    +0.000 A 
ATOM     23  C   UNL     1       2.477   7.675  18.325  0.00  0.00    +0.000 A 
ATOM     24  C   UNL     1       1.954   8.943  18.057  0.00  0.00    +0.000 A 
ATOM     25  C   UNL     1       1.244   9.627  19.043  0.00  0.00    +0.000 A 
ATOM     26  C   UNL     1       1.071   9.038  20.301  0.00  0.00    +0.000 A 
ATOM     27  C   UNL     1       1.580   7.765  20.562  0.00  0.00    +0.000 A 
BRANCH  22  28
ATOM     28  O   UNL     1       2.923   5.882  19.765  0.00  0.00    +0.000 OA
BRANCH  28  30
ATOM     29  C   UNL     1       5.171   5.300  19.203  0.00  0.00    +0.000 C 
ATOM     30  C   UNL     1       3.756   5.453  18.682  0.00  0.00    +0.000 C 
ENDBRANCH  28  30
ENDBRANCH  22  28
ENDBRANCH  21  25
ENDBRANCH   1  21
TORSDOF 7
ENDMDL
MODEL 4
REMARK VINA RESULT:      -6.1      2.132      2.902
REMARK  Name = 
REMARK  11 active torsions:
REMARK  status: ('A' for Active; 'I' for Inactive)
REMARK    1  A    between atoms: C_1  and  C_2
REMARK    2  A    between atoms: C_2  and  O_3
REMARK    3  A    between atoms: O_3  and  C_4
REMARK    4  A    between atoms: C_7  and  O_8
REMARK    5  A    between atoms: O_8  and  C_9
REMARK    6  A    between atoms: C_11  and  C_12
REMARK    7  A    between atoms: C_15  and  C_16
REMARK    8  A    between atoms: N_17  and  O_18
REMARK    9  A    between atoms: N_22  and  C_23
REMARK   10  A    between atoms: C_23  and  C_24
REMARK   11  A    between atoms: C_23  and  C_25
REMARK                            x       y       z     vdW  Elec       q    Type
REMARK                         _______ _______ _______ _____ _____    ______ ____
ROOT
ATOM      1  C   UNL     1      -0.017  10.792  18.703  0.00  0.00    +0.000 A 
ATOM      2  N   UNL     1      -0.821  10.158  17.801  0.00  0.00    +0.000 NA
ATOM      3  C   UNL     1      -2.132  10.487  17.753  0.00  0.00    +0.000 A 
ATOM      4  C   UNL     1      -2.991   9.710  16.803  0.00  0.00    +0.000 C 
ATOM      5  C   UNL     1      -2.672  11.466  18.566  0.00  0.00    +0.000 A 
ATOM      6  C   UNL     1      -1.831  12.143  19.446  0.00  0.00    +0.000 A 
ATOM      7  C   UNL     1      -0.472  11.811  19.534  0.00  0.00    +0.000 A 
ENDROOT
BRANCH   7   8
ATOM      8  C   UNL     1       0.404  12.578  20.493  0.00  0.00    +0.000 C 
ATOM      9  N   UNL     1       1.691  12.541  20.300  0.00  0.00    +0.000 NA
ATOM     10  N   UNL     1      -0.252  13.320  21.469  0.00  0.00    +0.000 N 
ATOM     11  C   UNL     1      -0.070  14.766  21.592  0.00  0.00    +0.000 C 
ATOM     12  C   UNL     1      -1.444  15.401  21.918  0.00  0.00    +0.000 C 
ATOM     13  N   UNL     1      -2.096  14.874  23.153  0.00  0.00    +0.000 NA
ATOM     14  C   UNL     1      -2.166  13.391  23.015  0.00  0.00    +0.000 C 
ATOM     15  C   UNL     1      -0.828  12.691  22.661  0.00  0.00    +0.000 C 
BRANCH  13  16
ATOM     16  C   UNL     1      -1.419  15.318  24.397  0.00  0.00    +0.000 C 
ATOM     17  C   UNL     1      -1.052  16.812  24.343  0.00  0.00    +0.000 C 
ATOM     18  C   UNL     1      -2.306  15.118  25.639  0.00  0.00    +0.000 C 
ENDBRANCH  13  16
BRANCH   9  19
ATOM     19  O   UNL     1       2.395  13.281  21.258  0.00  0.00    +0.000 OA
ATOM     20  H   UNL     1       1.926  14.135  21.230  0.00  0.00    +0.000 HD
ENDBRANCH   9  19
ENDBRANCH   7   8
BRANCH   1  21
ATOM     21  O   UNL     1       1.295  10.356  18.784  0.00  0.00    +0.000 OA
BRANCH  21  25
ATOM     22  C   UNL     1       2.191   6.453  19.980  0.00  0.00    +0.000 A 
ATOM     23  C   UNL     1       2.523   6.915  18.705  0.00  0.00    +0.000 A 
ATOM     24  C   UNL     1       2.203   8.221  18.321  0.00  0.00    +0.000 A 
ATOM     25  C   UNL     1       1.524   9.060  19.203  0.00  0.00    +0.000 A 
ATOM     26  C   UNL     1       1.176   8.588  20.474  0.00  0.00    +0.000 A 
ATOM     27  C   UNL     1       1.482   7.279  20.850  0.00  0.00    +0.000 A 
BRANCH  22  28
ATOM     28  O   UNL     1       2.605   5.183  20.278  0.00  0.00    +0.000 OA
BRANCH  28  30
ATOM     29  C   UNL     1       2.223   3.178  21.522  0.00  0.00    +0.000 C 
ATOM     30  C   UNL     1       1.574   4.298  20.733  0.00  0.00    +0.000 C 
ENDBRANCH  28  30
ENDBRANCH  22  28
ENDBRANCH  21  25
ENDBRANCH   1  21
TORSDOF 7
ENDMDL
MODEL 5
REMARK VINA RESULT:      -6.1      2.326      3.134
REMARK  Name = 
REMARK  11 active torsions:
REMARK  status: ('A' for Active; 'I' for Inactive)
REMARK    1  A    between atoms: C_1  and  C_2
REMARK    2  A    between atoms: C_2  and  O_3
REMARK    3  A    between atoms: O_3  and  C_4
REMARK    4  A    between atoms: C_7  and  O_8
REMARK    5  A    between atoms: O_8  and  C_9
REMARK    6  A    between atoms: C_11  and  C_12
REMARK    7  A    between atoms: C_15  and  C_16
REMARK    8  A    between atoms: N_17  and  O_18
REMARK    9  A    between atoms: N_22  and  C_23
REMARK   10  A    between atoms: C_23  and  C_24
REMARK   11  A    between atoms: C_23  and  C_25
REMARK                            x       y       z     vdW  Elec       q    Type
REMARK                         _______ _______ _______ _____ _____    ______ ____
ROOT
ATOM      1  C   UNL     1      -0.388  10.631  19.578  0.00  0.00    +0.000 A 
ATOM      2  N   UNL     1      -1.136   9.961  18.654  0.00  0.00    +0.000 NA
ATOM      3  C   UNL     1      -1.846  10.674  17.750  0.00  0.00    +0.000 A 
ATOM      4  C   UNL     1      -2.714   9.898  16.806  0.00  0.00    +0.000 C 
ATOM      5  C   UNL     1      -1.811  12.056  17.716  0.00  0.00    +0.000 A 
ATOM      6  C   UNL     1      -1.003  12.726  18.630  0.00  0.00    +0.000 A 
ATOM      7  C   UNL     1      -0.271  12.018  19.593  0.00  0.00    +0.000 A 
ENDROOT
BRANCH   7   8
ATOM      8  C   UNL     1       0.600  12.785  20.556  0.00  0.00    +0.000 C 
ATOM      9  N   UNL     1       1.889  12.732  20.380  0.00  0.00    +0.000 NA
ATOM     10  N   UNL     1      -0.061  13.544  21.515  0.00  0.00    +0.000 N 
ATOM     11  C   UNL     1       0.135  14.990  21.625  0.00  0.00    +0.000 C 
ATOM     12  C   UNL     1      -1.236  15.642  21.926  0.00  0.00    +0.000 C 
ATOM     13  N   UNL     1      -1.911  15.135  23.156  0.00  0.00    +0.000 NA
ATOM     14  C   UNL     1      -1.995  13.651  23.032  0.00  0.00    +0.000 C 
ATOM     15  C   UNL     1      -0.661  12.934  22.705  0.00  0.00    +0.000 C 
BRANCH  13  16
ATOM     16  C   UNL     1      -1.247  15.585  24.405  0.00  0.00    +0.000 C 
ATOM     17  C   UNL     1      -0.981  17.101  24.394  0.00  0.00    +0.000 C 
ATOM     18  C   UNL     1      -2.099  15.287  25.651  0.00  0.00    +0.000 C 
ENDBRANCH  13  16
BRANCH   9  19
ATOM     19  O   UNL     1       2.588  13.474  21.341  0.00  0.00    +0.000 OA
ATOM     20  H   UNL     1       3.425  13.659  20.876  0.00  0.00    +0.000 HD
ENDBRANCH   9  19
ENDBRANCH   7   8
BRANCH   1  21
ATOM     21  O   UNL     1       0.245   9.865  20.543  0.00  0.00    +0.000 OA
BRANCH  21  25
ATOM     22  C   UNL     1       2.570   6.612  19.326  0.00  0.00    +0.000 A 
ATOM     23  C   UNL     1       1.931   6.623  20.568  0.00  0.00    +0.000 A 
ATOM     24  C   UNL     1       1.168   7.727  20.960  0.00  0.00    +0.000 A 
ATOM     25  C   UNL     1       1.064   8.836  20.122  0.00  0.00    +0.000 A 
ATOM     26  C   UNL     1       1.720   8.829  18.885  0.00  0.00    +0.000 A 
ATOM     27  C   UNL     1       2.494   7.734  18.502  0.00  0.00    +0.000 A 
BRANCH  22  28
ATOM     28  O   UNL     1       3.238   5.460  19.011  0.00  0.00    +0.000 OA
BRANCH  28  30
ATOM     29  C   UNL     1       1.703   3.964  17.956  0.00  0.00    +0.000 C 
ATOM     30  C   UNL     1       2.892   4.881  17.748  0.00  0.00    +0.000 C 
ENDBRANCH  28  30
ENDBRANCH  22  28
ENDBRANCH  21  25
ENDBRANCH   1  21
TORSDOF 7
ENDMDL
MODEL 6
REMARK VINA RESULT:      -6.1      4.594      6.305
REMARK  Name = 
REMARK  11 active torsions:
REMARK  status: ('A' for Active; 'I' for Inactive)
REMARK    1  A    between atoms: C_1  and  C_2
REMARK    2  A    between atoms: C_2  and  O_3
REMARK    3  A    between atoms: O_3  and  C_4
REMARK    4  A    between atoms: C_7  and  O_8
REMARK    5  A    between atoms: O_8  and  C_9
REMARK    6  A    between atoms: C_11  and  C_12
REMARK    7  A    between atoms: C_15  and  C_16
REMARK    8  A    between atoms: N_17  and  O_18
REMARK    9  A    between atoms: N_22  and  C_23
REMARK   10  A    between atoms: C_23  and  C_24
REMARK   11  A    between atoms: C_23  and  C_25
REMARK                            x       y       z     vdW  Elec       q    Type
REMARK                         _______ _______ _______ _____ _____    ______ ____
ROOT
ATOM      1  C   UNL     1      -5.993  11.590  19.119  0.00  0.00    +0.000 A 
ATOM      2  N   UNL     1      -6.396  10.286  19.097  0.00  0.00    +0.000 NA
ATOM      3  C   UNL     1      -7.236   9.848  20.062  0.00  0.00    +0.000 A 
ATOM      4  C   UNL     1      -7.588   8.392  20.045  0.00  0.00    +0.000 C 
ATOM      5  C   UNL     1      -7.721  10.687  21.048  0.00  0.00    +0.000 A 
ATOM      6  C   UNL     1      -7.344  12.028  21.028  0.00  0.00    +0.000 A 
ATOM      7  C   UNL     1      -6.459  12.508  20.054  0.00  0.00    +0.000 A 
ENDROOT
BRANCH   7   8
ATOM      8  C   UNL     1      -6.088  13.970  20.065  0.00  0.00    +0.000 C 
ATOM      9  N   UNL     1      -6.237  14.641  18.958  0.00  0.00    +0.000 NA
ATOM     10  N   UNL     1      -5.679  14.494  21.286  0.00  0.00    +0.000 N 
ATOM     11  C   UNL     1      -6.376  15.615  21.917  0.00  0.00    +0.000 C 
ATOM     12  C   UNL     1      -6.445  15.345  23.440  0.00  0.00    +0.000 C 
ATOM     13  N   UNL     1      -5.121  15.146  24.098  0.00  0.00    +0.000 NA
ATOM     14  C   UNL     1      -4.417  14.062  23.354  0.00  0.00    +0.000 C 
ATOM     15  C   UNL     1      -4.334  14.255  21.817  0.00  0.00    +0.000 C 
BRANCH  13  16
ATOM     16  C   UNL     1      -4.332  16.400  24.197  0.00  0.00    +0.000 C 
ATOM     17  C   UNL     1      -5.098  17.496  24.960  0.00  0.00    +0.000 C 
ATOM     18  C   UNL     1      -3.000  16.186  24.937  0.00  0.00    +0.000 C 
ENDBRANCH  13  16
BRANCH   9  19
ATOM     19  O   UNL     1      -5.850  15.980  19.091  0.00  0.00    +0.000 OA
ATOM     20  H   UNL     1      -6.647  16.447  18.778  0.00  0.00    +0.000 HD
ENDBRANCH   9  19
ENDBRANCH   7   8
BRANCH   1  21
ATOM     21  O   UNL     1      -5.058  11.969  18.170  0.00  0.00    +0.000 OA
BRANCH  21  25
ATOM     22  C   UNL     1      -1.138  10.532  18.342  0.00  0.00    +0.000 A 
ATOM     23  C   UNL     1      -2.056  10.025  17.421  0.00  0.00    +0.000 A 
ATOM     24  C   UNL     1      -3.366  10.512  17.388  0.00  0.00    +0.000 A 
ATOM     25  C   UNL     1      -3.771  11.488  18.297  0.00  0.00    +0.000 A 
ATOM     26  C   UNL     1      -2.852  11.982  19.232  0.00  0.00    +0.000 A 
ATOM     27  C   UNL     1      -1.550  11.484  19.273  0.00  0.00    +0.000 A 
BRANCH  22  28
ATOM     28  O   UNL     1       0.134  10.035  18.250  0.00  0.00    +0.000 OA
BRANCH  28  30
ATOM     29  C   UNL     1       1.037   9.065  20.238  0.00  0.00    +0.000 C 
ATOM     30  C   UNL     1       0.978  10.309  19.373  0.00  0.00    +0.000 C 
ENDBRANCH  28  30
ENDBRANCH  22  28
ENDBRANCH  21  25
ENDBRANCH   1  21
TORSDOF 7
ENDMDL
MODEL 7
REMARK VINA RESULT:      -6.0      4.844      6.591
REMARK  Name = 
REMARK  11 active torsions:
REMARK  status: ('A' for Active; 'I' for Inactive)
REMARK    1  A    between atoms: C_1  and  C_2
REMARK    2  A    between atoms: C_2  and  O_3
REMARK    3  A    between atoms: O_3  and  C_4
REMARK    4  A    between atoms: C_7  and  O_8
REMARK    5  A    between atoms: O_8  and  C_9
REMARK    6  A    between atoms: C_11  and  C_12
REMARK    7  A    between atoms: C_15  and  C_16
REMARK    8  A    between atoms: N_17  and  O_18
REMARK    9  A    between atoms: N_22  and  C_23
REMARK   10  A    between atoms: C_23  and  C_24
REMARK   11  A    between atoms: C_23  and  C_25
REMARK                            x       y       z     vdW  Elec       q    Type
REMARK                         _______ _______ _______ _____ _____    ______ ____
ROOT
ATOM      1  C   UNL     1      -6.059  11.548  19.022  0.00  0.00    +0.000 A 
ATOM      2  N   UNL     1      -6.381  10.224  19.096  0.00  0.00    +0.000 NA
ATOM      3  C   UNL     1      -7.233   9.815  20.063  0.00  0.00    +0.000 A 
ATOM      4  C   UNL     1      -7.496   8.342  20.156  0.00  0.00    +0.000 C 
ATOM      5  C   UNL     1      -7.810  10.700  20.955  0.00  0.00    +0.000 A 
ATOM      6  C   UNL     1      -7.514  12.056  20.835  0.00  0.00    +0.000 A 
ATOM      7  C   UNL     1      -6.619  12.509  19.857  0.00  0.00    +0.000 A 
ENDROOT
BRANCH   7   8
ATOM      8  C   UNL     1      -6.337  13.988  19.758  0.00  0.00    +0.000 C 
ATOM      9  N   UNL     1      -6.392  14.536  18.578  0.00  0.00    +0.000 NA
ATOM     10  N   UNL     1      -6.108  14.654  20.956  0.00  0.00    +0.000 N 
ATOM     11  C   UNL     1      -6.939  15.779  21.385  0.00  0.00    +0.000 C 
ATOM     12  C   UNL     1      -7.172  15.653  22.910  0.00  0.00    +0.000 C 
ATOM     13  N   UNL     1      -5.927  15.612  23.731  0.00  0.00    +0.000 NA
ATOM     14  C   UNL     1      -5.078  14.513  23.187  0.00  0.00    +0.000 C 
ATOM     15  C   UNL     1      -4.824  14.561  21.658  0.00  0.00    +0.000 C 
BRANCH  13  16
ATOM     16  C   UNL     1      -5.229  16.921  23.787  0.00  0.00    +0.000 C 
ATOM     17  C   UNL     1      -6.208  18.075  24.073  0.00  0.00    +0.000 C 
ATOM     18  C   UNL     1      -4.158  16.957  24.891  0.00  0.00    +0.000 C 
ENDBRANCH  13  16
BRANCH   9  19
ATOM     19  O   UNL     1      -6.102  15.906  18.614  0.00  0.00    +0.000 OA
ATOM     20  H   UNL     1      -5.264  15.943  18.118  0.00  0.00    +0.000 HD
ENDBRANCH   9  19
ENDBRANCH   7   8
BRANCH   1  21
ATOM     21  O   UNL     1      -5.108  11.906  18.080  0.00  0.00    +0.000 OA
BRANCH  21  25
ATOM     22  C   UNL     1      -1.211  10.628  18.882  0.00  0.00    +0.000 A 
ATOM     23  C   UNL     1      -1.780  11.700  19.573  0.00  0.00    +0.000 A 
ATOM     24  C   UNL     1      -3.081  12.119  19.281  0.00  0.00    +0.000 A 
ATOM     25  C   UNL     1      -3.809  11.484  18.275  0.00  0.00    +0.000 A 
ATOM     26  C   UNL     1      -3.229  10.422  17.571  0.00  0.00    +0.000 A 
ATOM     27  C   UNL     1      -1.924  10.016  17.853  0.00  0.00    +0.000 A 
BRANCH  22  28
ATOM     28  O   UNL     1       0.042  10.257  19.287  0.00  0.00    +0.000 OA
BRANCH  28  30
ATOM     29  C   UNL     1       0.077   8.949  21.286  0.00  0.00    +0.000 C 
ATOM     30  C   UNL     1       0.272  10.332  20.698  0.00  0.00    +0.000 C 
ENDBRANCH  28  30
ENDBRANCH  22  28
ENDBRANCH  21  25
ENDBRANCH   1  21
TORSDOF 7
ENDMDL
MODEL 8
REMARK VINA RESULT:      -6.0      1.834      2.551
REMARK  Name = 
REMARK  11 active torsions:
REMARK  status: ('A' for Active; 'I' for Inactive)
REMARK    1  A    between atoms: C_1  and  C_2
REMARK    2  A    between atoms: C_2  and  O_3
REMARK    3  A    between atoms: O_3  and  C_4
REMARK    4  A    between atoms: C_7  and  O_8
REMARK    5  A    between atoms: O_8  and  C_9
REMARK    6  A    between atoms: C_11  and  C_12
REMARK    7  A    between atoms: C_15  and  C_16
REMARK    8  A    between atoms: N_17  and  O_18
REMARK    9  A    between atoms: N_22  and  C_23
REMARK   10  A    between atoms: C_23  and  C_24
REMARK   11  A    between atoms: C_23  and  C_25
REMARK                            x       y       z     vdW  Elec       q    Type
REMARK                         _______ _______ _______ _____ _____    ______ ____
ROOT
ATOM      1  C   UNL     1      -0.169  10.750  19.138  0.00  0.00    +0.000 A 
ATOM      2  N   UNL     1      -1.211   9.949  18.771  0.00  0.00    +0.000 NA
ATOM      3  C   UNL     1      -2.221  10.484  18.050  0.00  0.00    +0.000 A 
ATOM      4  C   UNL     1      -3.380   9.587  17.737  0.00  0.00    +0.000 C 
ATOM      5  C   UNL     1      -2.215  11.807  17.648  0.00  0.00    +0.000 A 
ATOM      6  C   UNL     1      -1.121  12.601  17.984  0.00  0.00    +0.000 A 
ATOM      7  C   UNL     1      -0.068  12.082  18.748  0.00  0.00    +0.000 A 
ENDROOT
BRANCH   7   8
ATOM      8  C   UNL     1       1.101  12.976  19.079  0.00  0.00    +0.000 C 
ATOM      9  N   UNL     1       2.227  12.751  18.465  0.00  0.00    +0.000 NA
ATOM     10  N   UNL     1       0.852  14.014  19.969  0.00  0.00    +0.000 N 
ATOM     11  C   UNL     1       1.071  15.414  19.603  0.00  0.00    +0.000 C 
ATOM     12  C   UNL     1      -0.085  16.255  20.196  0.00  0.00    +0.000 C 
ATOM     13  N   UNL     1      -0.241  16.145  21.676  0.00  0.00    +0.000 NA
ATOM     14  C   UNL     1      -0.361  14.694  21.999  0.00  0.00    +0.000 C 
ATOM     15  C   UNL     1       0.751  13.786  21.413  0.00  0.00    +0.000 C 
BRANCH  13  16
ATOM     16  C   UNL     1       0.847  16.825  22.423  0.00  0.00    +0.000 C 
ATOM     17  C   UNL     1       1.040  18.278  21.949  0.00  0.00    +0.000 C 
ATOM     18  C   UNL     1       0.562  16.881  23.934  0.00  0.00    +0.000 C 
ENDBRANCH  13  16
BRANCH   9  19
ATOM     19  O   UNL     1       3.237  13.637  18.862  0.00  0.00    +0.000 OA
ATOM     20  H   UNL     1       3.913  13.025  19.206  0.00  0.00    +0.000 HD
ENDBRANCH   9  19
ENDBRANCH   7   8
BRANCH   1  21
ATOM     21  O   UNL     1       0.794  10.185  19.957  0.00  0.00    +0.000 OA
BRANCH  21  25
ATOM     22  C   UNL     1       2.833   6.821  18.547  0.00  0.00    +0.000 A 
ATOM     23  C   UNL     1       2.324   6.869  19.846  0.00  0.00    +0.000 A 
ATOM     24  C   UNL     1       1.656   8.009  20.301  0.00  0.00    +0.000 A 
ATOM     25  C   UNL     1       1.519   9.117  19.467  0.00  0.00    +0.000 A 
ATOM     26  C   UNL     1       2.047   9.073  18.171  0.00  0.00    +0.000 A 
ATOM     27  C   UNL     1       2.727   7.940  17.724  0.00  0.00    +0.000 A 
BRANCH  22  28
ATOM     28  O   UNL     1       3.414   5.637  18.179  0.00  0.00    +0.000 OA
BRANCH  28  30
ATOM     29  C   UNL     1       1.786   3.965  17.664  0.00  0.00    +0.000 C 
ATOM     30  C   UNL     1       2.779   4.462  18.696  0.00  0.00    +0.000 C 
ENDBRANCH  28  30
ENDBRANCH  22  28
ENDBRANCH  21  25
ENDBRANCH   1  21
TORSDOF 7
ENDMDL
MODEL 9
REMARK VINA RESULT:      -6.0      3.572      8.493
REMARK  Name = 
REMARK  11 active torsions:
REMARK  status: ('A' for Active; 'I' for Inactive)
REMARK    1  A    between atoms: C_1  and  C_2
REMARK    2  A    between atoms: C_2  and  O_3
REMARK    3  A    between atoms: O_3  and  C_4
REMARK    4  A    between atoms: C_7  and  O_8
REMARK    5  A    between atoms: O_8  and  C_9
REMARK    6  A    between atoms: C_11  and  C_12
REMARK    7  A    between atoms: C_15  and  C_16
REMARK    8  A    between atoms: N_17  and  O_18
REMARK    9  A    between atoms: N_22  and  C_23
REMARK   10  A    between atoms: C_23  and  C_24
REMARK   11  A    between atoms: C_23  and  C_25
REMARK                            x       y       z     vdW  Elec       q    Type
REMARK                         _______ _______ _______ _____ _____    ______ ____
ROOT
ATOM      1  C   UNL     1       0.529   9.758  19.674  0.00  0.00    +0.000 A 
ATOM      2  N   UNL     1      -0.109  10.265  20.768  0.00  0.00    +0.000 NA
ATOM      3  C   UNL     1       0.047   9.643  21.959  0.00  0.00    +0.000 A 
ATOM      4  C   UNL     1      -0.734  10.188  23.115  0.00  0.00    +0.000 C 
ATOM      5  C   UNL     1       0.854   8.530  22.105  0.00  0.00    +0.000 A 
ATOM      6  C   UNL     1       1.541   8.053  20.991  0.00  0.00    +0.000 A 
ATOM      7  C   UNL     1       1.385   8.663  19.739  0.00  0.00    +0.000 A 
ENDROOT
BRANCH   7   8
ATOM      8  C   UNL     1       2.158   8.119  18.563  0.00  0.00    +0.000 C 
ATOM      9  N   UNL     1       2.510   8.957  17.630  0.00  0.00    +0.000 NA
ATOM     10  N   UNL     1       2.488   6.770  18.613  0.00  0.00    +0.000 N 
ATOM     11  C   UNL     1       3.876   6.312  18.557  0.00  0.00    +0.000 C 
ATOM     12  C   UNL     1       4.038   5.136  19.550  0.00  0.00    +0.000 C 
ATOM     13  N   UNL     1       3.122   3.983  19.305  0.00  0.00    +0.000 NA
ATOM     14  C   UNL     1       1.733   4.523  19.275  0.00  0.00    +0.000 C 
ATOM     15  C   UNL     1       1.505   5.723  18.319  0.00  0.00    +0.000 C 
BRANCH  13  16
ATOM     16  C   UNL     1       3.480   3.211  18.089  0.00  0.00    +0.000 C 
ATOM     17  C   UNL     1       4.902   3.545  17.601  0.00  0.00    +0.000 C 
ATOM     18  C   UNL     1       3.436   1.692  18.336  0.00  0.00    +0.000 C 
ENDBRANCH  13  16
BRANCH   9  19
ATOM     19  O   UNL     1       3.210   8.333  16.590  0.00  0.00    +0.000 OA
ATOM     20  H   UNL     1       2.669   7.536  16.439  0.00  0.00    +0.000 HD
ENDBRANCH   9  19
ENDBRANCH   7   8
BRANCH   1  21
ATOM     21  O   UNL     1       0.264  10.368  18.459  0.00  0.00    +0.000 OA
BRANCH  21  25
ATOM     22  C   UNL     1      -3.692  10.957  17.249  0.00  0.00    +0.000 A 
ATOM     23  C   UNL     1      -3.103  11.767  18.222  0.00  0.00    +0.000 A 
ATOM     24  C   UNL     1      -1.782  11.545  18.620  0.00  0.00    +0.000 A 
ATOM     25  C   UNL     1      -1.054  10.493  18.067  0.00  0.00    +0.000 A 
ATOM     26  C   UNL     1      -1.653   9.671  17.106  0.00  0.00    +0.000 A 
ATOM     27  C   UNL     1      -2.977   9.884  16.721  0.00  0.00    +0.000 A 
BRANCH  22  28
ATOM     28  O   UNL     1      -4.967  11.297  16.884  0.00  0.00    +0.000 OA
BRANCH  28  30
ATOM     29  C   UNL     1      -6.788  10.977  18.398  0.00  0.00    +0.000 C 
ATOM     30  C   UNL     1      -5.737  11.950  17.900  0.00  0.00    +0.000 C 
ENDBRANCH  28  30
ENDBRANCH  22  28
ENDBRANCH  21  25
ENDBRANCH   1  21
TORSDOF 7
ENDMDL
