MODEL 1
REMARK VINA RESULT:      -6.4      0.000      0.000
REMARK  Name = 
REMARK  3 active torsions:
REMARK  status: ('A' for Active; 'I' for Inactive)
REMARK    1  A    between atoms: C_1  and  N_2
REMARK    2  A    between atoms: N_2  and  C_3
REMARK    3  A    between atoms: C_10  and  N_11
REMARK                            x       y       z     vdW  Elec       q    Type
REMARK                         _______ _______ _______ _____ _____    ______ ____
ROOT
ATOM      1  C   UNL     1       0.699   2.563  19.157  0.00  0.00    +0.000 C 
ATOM      2  N   UNL     1       1.590   3.669  19.466  0.00  0.00    +0.000 N 
ATOM      3  C   UNL     1       1.573   4.210  20.817  0.00  0.00    +0.000 C 
ATOM      4  C   UNL     1       2.781   3.818  18.758  0.00  0.00    +0.000 A 
ATOM      5  C   UNL     1       2.876   3.438  17.421  0.00  0.00    +0.000 A 
ATOM      6  C   UNL     1       4.038   3.702  16.697  0.00  0.00    +0.000 A 
ATOM      7  C   UNL     1       5.109   4.332  17.327  0.00  0.00    +0.000 A 
ATOM      8  C   UNL     1       6.275   4.675  16.623  0.00  0.00    +0.000 A 
ATOM      9  C   UNL     1       7.328   5.303  17.280  0.00  0.00    +0.000 A 
ATOM     10  C   UNL     1       7.258   5.539  18.653  0.00  0.00    +0.000 A 
ATOM     11  C   UNL     1       6.062   5.246  19.322  0.00  0.00    +0.000 A 
ATOM     12  C   UNL     1       4.977   4.646  18.689  0.00  0.00    +0.000 A 
ATOM     13  N   UNL     1       3.840   4.400  19.373  0.00  0.00    +0.000 NA
ENDROOT
BRANCH  10  14
ATOM     14  N   UNL     1       8.275   6.262  19.293  0.00  0.00    +0.000 N 
ATOM     15  H   UNL     1       9.198   6.112  18.898  0.00  0.00    +0.000 HD
ATOM     16  H   UNL     1       8.267   6.169  20.304  0.00  0.00    +0.000 HD
ENDBRANCH  10  14
TORSDOF 1
ENDMDL
MODEL 2
REMARK VINA RESULT:      -6.3      1.310      4.995
REMARK  Name = 
REMARK  3 active torsions:
REMARK  status: ('A' for Active; 'I' for Inactive)
REMARK    1  A    between atoms: C_1  and  N_2
REMARK    2  A    between atoms: N_2  and  C_3
REMARK    3  A    between atoms: C_10  and  N_11
REMARK                            x       y       z     vdW  Elec       q    Type
REMARK                         _______ _______ _______ _____ _____    ______ ____
ROOT
ATOM      1  C   UNL     1       7.091   6.138  16.907  0.00  0.00    +0.000 C 
ATOM      2  N   UNL     1       6.697   5.315  18.038  0.00  0.00    +0.000 N 
ATOM      3  C   UNL     1       7.323   5.569  19.327  0.00  0.00    +0.000 C 
ATOM      4  C   UNL     1       5.423   4.749  18.073  0.00  0.00    +0.000 A 
ATOM      5  C   UNL     1       4.776   4.361  16.902  0.00  0.00    +0.000 A 
ATOM      6  C   UNL     1       3.555   3.692  16.964  0.00  0.00    +0.000 A 
ATOM      7  C   UNL     1       2.978   3.431  18.206  0.00  0.00    +0.000 A 
ATOM      8  C   UNL     1       1.782   2.705  18.321  0.00  0.00    +0.000 A 
ATOM      9  C   UNL     1       1.231   2.462  19.575  0.00  0.00    +0.000 A 
ATOM     10  C   UNL     1       1.829   2.990  20.719  0.00  0.00    +0.000 A 
ATOM     11  C   UNL     1       3.054   3.657  20.586  0.00  0.00    +0.000 A 
ATOM     12  C   UNL     1       3.650   3.891  19.350  0.00  0.00    +0.000 A 
ATOM     13  N   UNL     1       4.840   4.522  19.275  0.00  0.00    +0.000 NA
ENDROOT
BRANCH  10  14
ATOM     14  N   UNL     1       1.331   2.659  21.987  0.00  0.00    +0.000 N 
ATOM     15  H   UNL     1       1.177   3.461  22.591  0.00  0.00    +0.000 HD
ATOM     16  H   UNL     1       1.852   1.920  22.450  0.00  0.00    +0.000 HD
ENDBRANCH  10  14
TORSDOF 1
ENDMDL
MODEL 3
REMARK VINA RESULT:      -6.2      1.304      1.391
REMARK  Name = 
REMARK  3 active torsions:
REMARK  status: ('A' for Active; 'I' for Inactive)
REMARK    1  A    between atoms: C_1  and  N_2
REMARK    2  A    between atoms: N_2  and  C_3
REMARK    3  A    between atoms: C_10  and  N_11
REMARK                            x       y       z     vdW  Elec       q    Type
REMARK                         _______ _______ _______ _____ _____    ______ ____
ROOT
ATOM      1  C   UNL     1       1.090   3.235  20.393  0.00  0.00    +0.000 C 
ATOM      2  N   UNL     1       1.758   4.399  19.836  0.00  0.00    +0.000 N 
ATOM      3  C   UNL     1       1.821   5.609  20.641  0.00  0.00    +0.000 C 
ATOM      4  C   UNL     1       2.774   4.231  18.896  0.00  0.00    +0.000 A 
ATOM      5  C   UNL     1       2.754   3.168  17.996  0.00  0.00    +0.000 A 
ATOM      6  C   UNL     1       3.714   3.082  16.990  0.00  0.00    +0.000 A 
ATOM      7  C   UNL     1       4.706   4.057  16.903  0.00  0.00    +0.000 A 
ATOM      8  C   UNL     1       5.656   4.047  15.870  0.00  0.00    +0.000 A 
ATOM      9  C   UNL     1       6.634   5.035  15.810  0.00  0.00    +0.000 A 
ATOM     10  C   UNL     1       6.714   6.004  16.811  0.00  0.00    +0.000 A 
ATOM     11  C   UNL     1       5.719   6.031  17.797  0.00  0.00    +0.000 A 
ATOM     12  C   UNL     1       4.708   5.077  17.868  0.00  0.00    +0.000 A 
ATOM     13  N   UNL     1       3.761   5.158  18.826  0.00  0.00    +0.000 NA
ENDROOT
BRANCH  10  14
ATOM     14  N   UNL     1       7.634   7.056  16.696  0.00  0.00    +0.000 N 
ATOM     15  H   UNL     1       7.306   7.934  17.087  0.00  0.00    +0.000 HD
ATOM     16  H   UNL     1       8.012   7.166  15.760  0.00  0.00    +0.000 HD
ENDBRANCH  10  14
TORSDOF 1
ENDMDL
MODEL 4
REMARK VINA RESULT:      -6.1      1.830      5.271
REMARK  Name = 
REMARK  3 active torsions:
REMARK  status: ('A' for Active; 'I' for Inactive)
REMARK    1  A    between atoms: C_1  and  N_2
REMARK    2  A    between atoms: N_2  and  C_3
REMARK    3  A    between atoms: C_10  and  N_11
REMARK                            x       y       z     vdW  Elec       q    Type
REMARK                         _______ _______ _______ _____ _____    ______ ____
ROOT
ATOM      1  C   UNL     1       7.655   7.181  17.807  0.00  0.00    +0.000 C 
ATOM      2  N   UNL     1       7.055   5.881  17.557  0.00  0.00    +0.000 N 
ATOM      3  C   UNL     1       7.880   4.695  17.732  0.00  0.00    +0.000 C 
ATOM      4  C   UNL     1       5.682   5.707  17.729  0.00  0.00    +0.000 A 
ATOM      5  C   UNL     1       4.788   6.746  17.478  0.00  0.00    +0.000 A 
ATOM      6  C   UNL     1       3.414   6.520  17.543  0.00  0.00    +0.000 A 
ATOM      7  C   UNL     1       2.943   5.253  17.879  0.00  0.00    +0.000 A 
ATOM      8  C   UNL     1       1.570   4.962  17.895  0.00  0.00    +0.000 A 
ATOM      9  C   UNL     1       1.130   3.686  18.235  0.00  0.00    +0.000 A 
ATOM     10  C   UNL     1       2.046   2.709  18.623  0.00  0.00    +0.000 A 
ATOM     11  C   UNL     1       3.413   3.002  18.539  0.00  0.00    +0.000 A 
ATOM     12  C   UNL     1       3.889   4.258  18.172  0.00  0.00    +0.000 A 
ATOM     13  N   UNL     1       5.216   4.486  18.089  0.00  0.00    +0.000 NA
ENDROOT
BRANCH  10  14
ATOM     14  N   UNL     1       1.612   1.398  18.866  0.00  0.00    +0.000 N 
ATOM     15  H   UNL     1       0.788   1.132  18.336  0.00  0.00    +0.000 HD
ATOM     16  H   UNL     1       1.526   1.173  19.853  0.00  0.00    +0.000 HD
ENDBRANCH  10  14
TORSDOF 1
ENDMDL
MODEL 5
REMARK VINA RESULT:      -6.1      1.921      2.830
REMARK  Name = 
REMARK  3 active torsions:
REMARK  status: ('A' for Active; 'I' for Inactive)
REMARK    1  A    between atoms: C_1  and  N_2
REMARK    2  A    between atoms: N_2  and  C_3
REMARK    3  A    between atoms: C_10  and  N_11
REMARK                            x       y       z     vdW  Elec       q    Type
REMARK                         _______ _______ _______ _____ _____    ______ ____
ROOT
ATOM      1  C   UNL     1       1.331   4.275  20.513  0.00  0.00    +0.000 C 
ATOM      2  N   UNL     1       2.000   3.523  19.464  0.00  0.00    +0.000 N 
ATOM      3  C   UNL     1       1.192   2.669  18.606  0.00  0.00    +0.000 C 
ATOM      4  C   UNL     1       3.183   4.009  18.910  0.00  0.00    +0.000 A 
ATOM      5  C   UNL     1       4.087   4.744  19.676  0.00  0.00    +0.000 A 
ATOM      6  C   UNL     1       5.317   5.120  19.139  0.00  0.00    +0.000 A 
ATOM      7  C   UNL     1       5.628   4.772  17.825  0.00  0.00    +0.000 A 
ATOM      8  C   UNL     1       6.877   5.075  17.263  0.00  0.00    +0.000 A 
ATOM      9  C   UNL     1       7.157   4.714  15.948  0.00  0.00    +0.000 A 
ATOM     10  C   UNL     1       6.176   4.108  15.163  0.00  0.00    +0.000 A 
ATOM     11  C   UNL     1       4.960   3.760  15.763  0.00  0.00    +0.000 A 
ATOM     12  C   UNL     1       4.658   4.077  17.085  0.00  0.00    +0.000 A 
ATOM     13  N   UNL     1       3.479   3.704  17.623  0.00  0.00    +0.000 NA
ENDROOT
BRANCH  10  14
ATOM     14  N   UNL     1       6.492   3.654  13.874  0.00  0.00    +0.000 N 
ATOM     15  H   UNL     1       5.788   3.046  13.468  0.00  0.00    +0.000 HD
ATOM     16  H   UNL     1       7.428   3.269  13.796  0.00  0.00    +0.000 HD
ENDBRANCH  10  14
TORSDOF 1
ENDMDL
MODEL 6
REMARK VINA RESULT:      -6.0      2.327      2.902
REMARK  Name = 
REMARK  3 active torsions:
REMARK  status: ('A' for Active; 'I' for Inactive)
REMARK    1  A    between atoms: C_1  and  N_2
REMARK    2  A    between atoms: N_2  and  C_3
REMARK    3  A    between atoms: C_10  and  N_11
REMARK                            x       y       z     vdW  Elec       q    Type
REMARK                         _______ _______ _______ _____ _____    ______ ____
ROOT
ATOM      1  C   UNL     1       0.979   4.260  20.582  0.00  0.00    +0.000 C 
ATOM      2  N   UNL     1       2.158   3.704  19.940  0.00  0.00    +0.000 N 
ATOM      3  C   UNL     1       2.290   2.256  19.872  0.00  0.00    +0.000 C 
ATOM      4  C   UNL     1       2.810   4.429  18.943  0.00  0.00    +0.000 A 
ATOM      5  C   UNL     1       2.845   5.822  18.972  0.00  0.00    +0.000 A 
ATOM      6  C   UNL     1       3.599   6.524  18.033  0.00  0.00    +0.000 A 
ATOM      7  C   UNL     1       4.302   5.823  17.054  0.00  0.00    +0.000 A 
ATOM      8  C   UNL     1       5.123   6.483  16.127  0.00  0.00    +0.000 A 
ATOM      9  C   UNL     1       5.812   5.756  15.162  0.00  0.00    +0.000 A 
ATOM     10  C   UNL     1       5.639   4.374  15.070  0.00  0.00    +0.000 A 
ATOM     11  C   UNL     1       4.865   3.730  16.042  0.00  0.00    +0.000 A 
ATOM     12  C   UNL     1       4.187   4.424  17.041  0.00  0.00    +0.000 A 
ATOM     13  N   UNL     1       3.468   3.756  17.967  0.00  0.00    +0.000 NA
ENDROOT
BRANCH  10  14
ATOM     14  N   UNL     1       6.410   3.631  14.164  0.00  0.00    +0.000 N 
ATOM     15  H   UNL     1       6.752   2.752  14.539  0.00  0.00    +0.000 HD
ATOM     16  H   UNL     1       7.143   4.171  13.714  0.00  0.00    +0.000 HD
ENDBRANCH  10  14
TORSDOF 1
ENDMDL
MODEL 7
REMARK VINA RESULT:      -5.9      3.229      3.947
REMARK  Name = 
REMARK  3 active torsions:
REMARK  status: ('A' for Active; 'I' for Inactive)
REMARK    1  A    between atoms: C_1  and  N_2
REMARK    2  A    between atoms: N_2  and  C_3
REMARK    3  A    between atoms: C_10  and  N_11
REMARK                            x       y       z     vdW  Elec       q    Type
REMARK                         _______ _______ _______ _____ _____    ______ ____
ROOT
ATOM      1  C   UNL     1       0.603   9.703  19.243  0.00  0.00    +0.000 C 
ATOM      2  N   UNL     1       1.456   8.743  19.923  0.00  0.00    +0.000 N 
ATOM      3  C   UNL     1       1.086   8.320  21.265  0.00  0.00    +0.000 C 
ATOM      4  C   UNL     1       2.210   7.836  19.178  0.00  0.00    +0.000 A 
ATOM      5  C   UNL     1       2.714   8.179  17.924  0.00  0.00    +0.000 A 
ATOM      6  C   UNL     1       3.561   7.304  17.247  0.00  0.00    +0.000 A 
ATOM      7  C   UNL     1       3.885   6.078  17.824  0.00  0.00    +0.000 A 
ATOM      8  C   UNL     1       4.783   5.192  17.207  0.00  0.00    +0.000 A 
ATOM      9  C   UNL     1       5.086   3.975  17.809  0.00  0.00    +0.000 A 
ATOM     10  C   UNL     1       4.452   3.600  18.993  0.00  0.00    +0.000 A 
ATOM     11  C   UNL     1       3.608   4.524  19.622  0.00  0.00    +0.000 A 
ATOM     12  C   UNL     1       3.307   5.764  19.064  0.00  0.00    +0.000 A 
ATOM     13  N   UNL     1       2.502   6.628  19.717  0.00  0.00    +0.000 NA
ENDROOT
BRANCH  10  14
ATOM     14  N   UNL     1       4.833   2.421  19.650  0.00  0.00    +0.000 N 
ATOM     15  H   UNL     1       4.128   2.056  20.283  0.00  0.00    +0.000 HD
ATOM     16  H   UNL     1       5.751   2.473  20.081  0.00  0.00    +0.000 HD
ENDBRANCH  10  14
TORSDOF 1
ENDMDL
MODEL 8
REMARK VINA RESULT:      -5.9      2.028      2.488
REMARK  Name = 
REMARK  3 active torsions:
REMARK  status: ('A' for Active; 'I' for Inactive)
REMARK    1  A    between atoms: C_1  and  N_2
REMARK    2  A    between atoms: N_2  and  C_3
REMARK    3  A    between atoms: C_10  and  N_11
REMARK                            x       y       z     vdW  Elec       q    Type
REMARK                         _______ _______ _______ _____ _____    ______ ____
ROOT
ATOM      1  C   UNL     1       1.415   2.953  21.150  0.00  0.00    +0.000 C 
ATOM      2  N   UNL     1       2.792   3.200  20.760  0.00  0.00    +0.000 N 
ATOM      3  C   UNL     1       3.771   2.146  20.979  0.00  0.00    +0.000 C 
ATOM      4  C   UNL     1       3.070   4.091  19.724  0.00  0.00    +0.000 A 
ATOM      5  C   UNL     1       2.261   5.203  19.496  0.00  0.00    +0.000 A 
ATOM      6  C   UNL     1       2.619   6.145  18.533  0.00  0.00    +0.000 A 
ATOM      7  C   UNL     1       3.782   5.957  17.788  0.00  0.00    +0.000 A 
ATOM      8  C   UNL     1       4.215   6.909  16.852  0.00  0.00    +0.000 A 
ATOM      9  C   UNL     1       5.381   6.691  16.124  0.00  0.00    +0.000 A 
ATOM     10  C   UNL     1       6.089   5.499  16.273  0.00  0.00    +0.000 A 
ATOM     11  C   UNL     1       5.674   4.592  17.256  0.00  0.00    +0.000 A 
ATOM     12  C   UNL     1       4.530   4.792  18.025  0.00  0.00    +0.000 A 
ATOM     13  N   UNL     1       4.181   3.898  18.972  0.00  0.00    +0.000 NA
ENDROOT
BRANCH  10  14
ATOM     14  N   UNL     1       7.315   5.325  15.615  0.00  0.00    +0.000 N 
ATOM     15  H   UNL     1       7.856   6.179  15.518  0.00  0.00    +0.000 HD
ATOM     16  H   UNL     1       7.240   4.814  14.740  0.00  0.00    +0.000 HD
ENDBRANCH  10  14
TORSDOF 1
ENDMDL
MODEL 9
REMARK VINA RESULT:      -5.8      1.569      5.092
REMARK  Name = 
REMARK  3 active torsions:
REMARK  status: ('A' for Active; 'I' for Inactive)
REMARK    1  A    between atoms: C_1  and  N_2
REMARK    2  A    between atoms: N_2  and  C_3
REMARK    3  A    between atoms: C_10  and  N_11
REMARK                            x       y       z     vdW  Elec       q    Type
REMARK                         _______ _______ _______ _____ _____    ______ ____
ROOT
ATOM      1  C   UNL     1       7.828   7.324  17.990  0.00  0.00    +0.000 C 
ATOM      2  N   UNL     1       7.276   6.091  18.524  0.00  0.00    +0.000 N 
ATOM      3  C   UNL     1       7.927   5.485  19.676  0.00  0.00    +0.000 C 
ATOM      4  C   UNL     1       5.917   5.816  18.371  0.00  0.00    +0.000 A 
ATOM      5  C   UNL     1       5.218   6.251  17.246  0.00  0.00    +0.000 A 
ATOM      6  C   UNL     1       3.892   5.868  17.054  0.00  0.00    +0.000 A 
ATOM      7  C   UNL     1       3.266   5.063  18.004  0.00  0.00    +0.000 A 
ATOM      8  C   UNL     1       1.952   4.601  17.823  0.00  0.00    +0.000 A 
ATOM      9  C   UNL     1       1.355   3.799  18.790  0.00  0.00    +0.000 A 
ATOM     10  C   UNL     1       2.033   3.502  19.972  0.00  0.00    +0.000 A 
ATOM     11  C   UNL     1       3.363   3.921  20.104  0.00  0.00    +0.000 A 
ATOM     12  C   UNL     1       4.002   4.699  19.142  0.00  0.00    +0.000 A 
ATOM     13  N   UNL     1       5.291   5.062  19.307  0.00  0.00    +0.000 NA
ENDROOT
BRANCH  10  14
ATOM     14  N   UNL     1       1.470   2.613  20.898  0.00  0.00    +0.000 N 
ATOM     15  H   UNL     1       0.889   1.894  20.478  0.00  0.00    +0.000 HD
ATOM     16  H   UNL     1       1.011   3.073  21.679  0.00  0.00    +0.000 HD
ENDBRANCH  10  14
TORSDOF 1
ENDMDL
