MODEL 1
REMARK VINA RESULT:      -7.2      0.000      0.000
REMARK  Name = 
REMARK  8 active torsions:
REMARK  status: ('A' for Active; 'I' for Inactive)
REMARK    1  A    between atoms: C_1  and  O_2
REMARK    2  A    between atoms: O_2  and  C_3
REMARK    3  A    between atoms: C_6  and  C_7
REMARK    4  A    between atoms: C_7  and  C_8
REMARK    5  A    between atoms: N_9  and  N_10
REMARK    6  A    between atoms: C_11  and  C_13
REMARK    7  A    between atoms: C_20  and  O_21
REMARK    8  A    between atoms: O_21  and  C_22
REMARK                            x       y       z     vdW  Elec       q    Type
REMARK                         _______ _______ _______ _____ _____    ______ ____
ROOT
ATOM      1  C   UNL     1       2.619   6.163  19.399  0.00  0.00    +0.000 C 
ATOM      2  C   UNL     1       1.921   5.287  20.421  0.00  0.00    +0.000 C 
ATOM      3  N   UNL     1       2.494   7.458  19.368  0.00  0.00    +0.000 NA
ENDROOT
BRANCH   1   7
ATOM      4  C   UNL     1       5.179   4.392  16.403  0.00  0.00    +0.000 A 
ATOM      5  C   UNL     1       4.143   3.644  16.982  0.00  0.00    +0.000 A 
ATOM      6  C   UNL     1       3.296   4.204  17.944  0.00  0.00    +0.000 A 
ATOM      7  C   UNL     1       3.508   5.511  18.384  0.00  0.00    +0.000 A 
ATOM      8  C   UNL     1       4.578   6.239  17.847  0.00  0.00    +0.000 A 
ATOM      9  C   UNL     1       5.426   5.692  16.869  0.00  0.00    +0.000 A 
BRANCH   4  11
ATOM     10  C   UNL     1       5.611   4.183  14.080  0.00  0.00    +0.000 C 
ATOM     11  O   UNL     1       5.970   3.855  15.422  0.00  0.00    +0.000 OA
ENDBRANCH   4  11
BRANCH   9  12
ATOM     12  O   UNL     1       6.407   6.570  16.490  0.00  0.00    +0.000 OA
ATOM     13  C   UNL     1       7.331   7.041  17.456  0.00  0.00    +0.000 C 
ENDBRANCH   9  12
ENDBRANCH   1   7
BRANCH   3  14
ATOM     14  N   UNL     1       1.695   8.080  20.281  0.00  0.00    +0.000 N 
ATOM     15  C   UNL     1       1.005   9.228  19.919  0.00  0.00    +0.000 C 
ATOM     16  O   UNL     1       1.002   9.736  18.802  0.00  0.00    +0.000 OA
ATOM     17  H   UNL     1       1.538   7.646  21.179  0.00  0.00    +0.000 HD
BRANCH  15  18
ATOM     18  C   UNL     1       0.185   9.858  20.992  0.00  0.00    +0.000 A 
ATOM     19  C   UNL     1       0.064   9.303  22.267  0.00  0.00    +0.000 A 
ATOM     20  C   UNL     1      -0.701   9.979  23.202  0.00  0.00    +0.000 A 
ATOM     21  N   UNL     1      -1.336  11.144  22.949  0.00  0.00    +0.000 NA
ATOM     22  C   UNL     1      -1.185  11.674  21.715  0.00  0.00    +0.000 A 
ATOM     23  C   UNL     1      -0.443  11.077  20.714  0.00  0.00    +0.000 A 
ENDBRANCH  15  18
ENDBRANCH   3  14
TORSDOF 5
ENDMDL
MODEL 2
REMARK VINA RESULT:      -7.1      0.125      1.012
REMARK  Name = 
REMARK  8 active torsions:
REMARK  status: ('A' for Active; 'I' for Inactive)
REMARK    1  A    between atoms: C_1  and  O_2
REMARK    2  A    between atoms: O_2  and  C_3
REMARK    3  A    between atoms: C_6  and  C_7
REMARK    4  A    between atoms: C_7  and  C_8
REMARK    5  A    between atoms: N_9  and  N_10
REMARK    6  A    between atoms: C_11  and  C_13
REMARK    7  A    between atoms: C_20  and  O_21
REMARK    8  A    between atoms: O_21  and  C_22
REMARK                            x       y       z     vdW  Elec       q    Type
REMARK                         _______ _______ _______ _____ _____    ______ ____
ROOT
ATOM      1  C   UNL     1       2.680   6.124  19.387  0.00  0.00    +0.000 C 
ATOM      2  C   UNL     1       1.999   5.256  20.428  0.00  0.00    +0.000 C 
ATOM      3  N   UNL     1       2.549   7.419  19.344  0.00  0.00    +0.000 NA
ENDROOT
BRANCH   1   7
ATOM      4  C   UNL     1       5.206   4.332  16.375  0.00  0.00    +0.000 A 
ATOM      5  C   UNL     1       4.175   3.589  16.969  0.00  0.00    +0.000 A 
ATOM      6  C   UNL     1       3.340   4.156  17.936  0.00  0.00    +0.000 A 
ATOM      7  C   UNL     1       3.558   5.465  18.366  0.00  0.00    +0.000 A 
ATOM      8  C   UNL     1       4.623   6.189  17.814  0.00  0.00    +0.000 A 
ATOM      9  C   UNL     1       5.459   5.635  16.830  0.00  0.00    +0.000 A 
BRANCH   4  11
ATOM     10  C   UNL     1       5.612   4.108  14.048  0.00  0.00    +0.000 C 
ATOM     11  O   UNL     1       5.986   3.789  15.389  0.00  0.00    +0.000 OA
ENDBRANCH   4  11
BRANCH   9  12
ATOM     12  O   UNL     1       6.437   6.510  16.435  0.00  0.00    +0.000 OA
ATOM     13  C   UNL     1       7.356   7.007  17.394  0.00  0.00    +0.000 C 
ENDBRANCH   9  12
ENDBRANCH   1   7
BRANCH   3  14
ATOM     14  N   UNL     1       1.760   8.047  20.262  0.00  0.00    +0.000 N 
ATOM     15  C   UNL     1       1.108   9.222  19.916  0.00  0.00    +0.000 C 
ATOM     16  O   UNL     1       1.132   9.751  18.809  0.00  0.00    +0.000 OA
ATOM     17  H   UNL     1       1.582   7.601  21.150  0.00  0.00    +0.000 HD
BRANCH  15  18
ATOM     18  C   UNL     1       0.297   9.855  20.993  0.00  0.00    +0.000 A 
ATOM     19  C   UNL     1      -0.444  11.019  20.787  0.00  0.00    +0.000 A 
ATOM     20  C   UNL     1      -1.186  11.515  21.847  0.00  0.00    +0.000 A 
ATOM     21  N   UNL     1      -1.232  10.935  23.065  0.00  0.00    +0.000 NA
ATOM     22  C   UNL     1      -0.525   9.796  23.234  0.00  0.00    +0.000 A 
ATOM     23  C   UNL     1       0.245   9.222  22.240  0.00  0.00    +0.000 A 
ENDBRANCH  15  18
ENDBRANCH   3  14
TORSDOF 5
ENDMDL
MODEL 3
REMARK VINA RESULT:      -7.0      0.949      2.299
REMARK  Name = 
REMARK  8 active torsions:
REMARK  status: ('A' for Active; 'I' for Inactive)
REMARK    1  A    between atoms: C_1  and  O_2
REMARK    2  A    between atoms: O_2  and  C_3
REMARK    3  A    between atoms: C_6  and  C_7
REMARK    4  A    between atoms: C_7  and  C_8
REMARK    5  A    between atoms: N_9  and  N_10
REMARK    6  A    between atoms: C_11  and  C_13
REMARK    7  A    between atoms: C_20  and  O_21
REMARK    8  A    between atoms: O_21  and  C_22
REMARK                            x       y       z     vdW  Elec       q    Type
REMARK                         _______ _______ _______ _____ _____    ______ ____
ROOT
ATOM      1  C   UNL     1       2.443   6.432  19.404  0.00  0.00    +0.000 C 
ATOM      2  C   UNL     1       1.854   5.590  20.519  0.00  0.00    +0.000 C 
ATOM      3  N   UNL     1       2.245   7.715  19.300  0.00  0.00    +0.000 NA
ENDROOT
BRANCH   1   7
ATOM      4  C   UNL     1       4.970   4.416  16.537  0.00  0.00    +0.000 A 
ATOM      5  C   UNL     1       4.910   5.818  16.568  0.00  0.00    +0.000 A 
ATOM      6  C   UNL     1       4.108   6.487  17.497  0.00  0.00    +0.000 A 
ATOM      7  C   UNL     1       3.307   5.762  18.379  0.00  0.00    +0.000 A 
ATOM      8  C   UNL     1       3.323   4.362  18.311  0.00  0.00    +0.000 A 
ATOM      9  C   UNL     1       4.137   3.678  17.392  0.00  0.00    +0.000 A 
BRANCH   4  11
ATOM     10  C   UNL     1       5.779   4.239  14.314  0.00  0.00    +0.000 C 
ATOM     11  O   UNL     1       5.800   3.768  15.662  0.00  0.00    +0.000 OA
ENDBRANCH   4  11
BRANCH   9  12
ATOM     12  O   UNL     1       3.994   2.320  17.491  0.00  0.00    +0.000 OA
ATOM     13  C   UNL     1       3.401   1.764  18.652  0.00  0.00    +0.000 C 
ENDBRANCH   9  12
ENDBRANCH   1   7
BRANCH   3  14
ATOM     14  N   UNL     1       1.466   8.352  20.219  0.00  0.00    +0.000 N 
ATOM     15  C   UNL     1       0.868   9.560  19.891  0.00  0.00    +0.000 C 
ATOM     16  O   UNL     1       0.930  10.113  18.798  0.00  0.00    +0.000 OA
ATOM     17  H   UNL     1       1.256   7.894  21.094  0.00  0.00    +0.000 HD
BRANCH  15  18
ATOM     18  C   UNL     1       0.065  10.201  20.971  0.00  0.00    +0.000 A 
ATOM     19  C   UNL     1      -0.697  11.350  20.756  0.00  0.00    +0.000 A 
ATOM     20  C   UNL     1      -1.429  11.854  21.819  0.00  0.00    +0.000 A 
ATOM     21  N   UNL     1      -1.446  11.296  23.048  0.00  0.00    +0.000 NA
ATOM     22  C   UNL     1      -0.720  10.170  23.225  0.00  0.00    +0.000 A 
ATOM     23  C   UNL     1       0.043   9.590  22.229  0.00  0.00    +0.000 A 
ENDBRANCH  15  18
ENDBRANCH   3  14
TORSDOF 5
ENDMDL
MODEL 4
REMARK VINA RESULT:      -7.0      0.951      2.093
REMARK  Name = 
REMARK  8 active torsions:
REMARK  status: ('A' for Active; 'I' for Inactive)
REMARK    1  A    between atoms: C_1  and  O_2
REMARK    2  A    between atoms: O_2  and  C_3
REMARK    3  A    between atoms: C_6  and  C_7
REMARK    4  A    between atoms: C_7  and  C_8
REMARK    5  A    between atoms: N_9  and  N_10
REMARK    6  A    between atoms: C_11  and  C_13
REMARK    7  A    between atoms: C_20  and  O_21
REMARK    8  A    between atoms: O_21  and  C_22
REMARK                            x       y       z     vdW  Elec       q    Type
REMARK                         _______ _______ _______ _____ _____    ______ ____
ROOT
ATOM      1  C   UNL     1       2.463   6.395  19.442  0.00  0.00    +0.000 C 
ATOM      2  C   UNL     1       1.854   5.542  20.538  0.00  0.00    +0.000 C 
ATOM      3  N   UNL     1       2.281   7.682  19.358  0.00  0.00    +0.000 NA
ENDROOT
BRANCH   1   7
ATOM      4  C   UNL     1       4.994   4.401  16.565  0.00  0.00    +0.000 A 
ATOM      5  C   UNL     1       4.919   5.802  16.593  0.00  0.00    +0.000 A 
ATOM      6  C   UNL     1       4.115   6.465  17.525  0.00  0.00    +0.000 A 
ATOM      7  C   UNL     1       3.328   5.732  18.413  0.00  0.00    +0.000 A 
ATOM      8  C   UNL     1       3.359   4.333  18.348  0.00  0.00    +0.000 A 
ATOM      9  C   UNL     1       4.175   3.656  17.427  0.00  0.00    +0.000 A 
BRANCH   4  11
ATOM     10  C   UNL     1       6.124   4.463  14.480  0.00  0.00    +0.000 C 
ATOM     11  O   UNL     1       5.826   3.760  15.686  0.00  0.00    +0.000 OA
ENDBRANCH   4  11
BRANCH   9  12
ATOM     12  O   UNL     1       4.048   2.296  17.529  0.00  0.00    +0.000 OA
ATOM     13  C   UNL     1       3.098   1.751  18.430  0.00  0.00    +0.000 C 
ENDBRANCH   9  12
ENDBRANCH   1   7
BRANCH   3  14
ATOM     14  N   UNL     1       1.502   8.314  20.281  0.00  0.00    +0.000 N 
ATOM     15  C   UNL     1       0.812   9.463  19.925  0.00  0.00    +0.000 C 
ATOM     16  O   UNL     1       0.792   9.964  18.805  0.00  0.00    +0.000 OA
ATOM     17  H   UNL     1       1.359   7.887  21.185  0.00  0.00    +0.000 HD
BRANCH  15  18
ATOM     18  C   UNL     1       0.015  10.104  21.009  0.00  0.00    +0.000 A 
ATOM     19  C   UNL     1      -0.072   9.567  22.294  0.00  0.00    +0.000 A 
ATOM     20  C   UNL     1      -0.818  10.253  23.238  0.00  0.00    +0.000 A 
ATOM     21  N   UNL     1      -1.465  11.411  22.984  0.00  0.00    +0.000 NA
ATOM     22  C   UNL     1      -1.346  11.924  21.740  0.00  0.00    +0.000 A 
ATOM     23  C   UNL     1      -0.626  11.316  20.730  0.00  0.00    +0.000 A 
ENDBRANCH  15  18
ENDBRANCH   3  14
TORSDOF 5
ENDMDL
MODEL 5
REMARK VINA RESULT:      -6.9      2.140      2.539
REMARK  Name = 
REMARK  8 active torsions:
REMARK  status: ('A' for Active; 'I' for Inactive)
REMARK    1  A    between atoms: C_1  and  O_2
REMARK    2  A    between atoms: O_2  and  C_3
REMARK    3  A    between atoms: C_6  and  C_7
REMARK    4  A    between atoms: C_7  and  C_8
REMARK    5  A    between atoms: N_9  and  N_10
REMARK    6  A    between atoms: C_11  and  C_13
REMARK    7  A    between atoms: C_20  and  O_21
REMARK    8  A    between atoms: O_21  and  C_22
REMARK                            x       y       z     vdW  Elec       q    Type
REMARK                         _______ _______ _______ _____ _____    ______ ____
ROOT
ATOM      1  C   UNL     1       2.156   7.548  19.218  0.00  0.00    +0.000 C 
ATOM      2  C   UNL     1       2.236   8.665  18.197  0.00  0.00    +0.000 C 
ATOM      3  N   UNL     1       1.697   7.718  20.425  0.00  0.00    +0.000 NA
ENDROOT
BRANCH   1   7
ATOM      4  C   UNL     1       3.586   3.646  18.034  0.00  0.00    +0.000 A 
ATOM      5  C   UNL     1       2.276   4.046  17.726  0.00  0.00    +0.000 A 
ATOM      6  C   UNL     1       1.800   5.309  18.090  0.00  0.00    +0.000 A 
ATOM      7  C   UNL     1       2.613   6.177  18.819  0.00  0.00    +0.000 A 
ATOM      8  C   UNL     1       3.901   5.757  19.176  0.00  0.00    +0.000 A 
ATOM      9  C   UNL     1       4.396   4.496  18.803  0.00  0.00    +0.000 A 
BRANCH   4  11
ATOM     10  C   UNL     1       3.715   1.314  18.448  0.00  0.00    +0.000 C 
ATOM     11  O   UNL     1       4.063   2.429  17.627  0.00  0.00    +0.000 OA
ENDBRANCH   4  11
BRANCH   9  12
ATOM     12  O   UNL     1       5.670   4.288  19.260  0.00  0.00    +0.000 OA
ATOM     13  C   UNL     1       6.642   5.308  19.104  0.00  0.00    +0.000 C 
ENDBRANCH   9  12
ENDBRANCH   1   7
BRANCH   3  14
ATOM     14  N   UNL     1       1.272   8.952  20.816  0.00  0.00    +0.000 N 
ATOM     15  C   UNL     1       0.069   9.080  21.496  0.00  0.00    +0.000 C 
ATOM     16  O   UNL     1      -0.658   8.152  21.838  0.00  0.00    +0.000 OA
ATOM     17  H   UNL     1       1.880   9.749  20.691  0.00  0.00    +0.000 HD
BRANCH  15  18
ATOM     18  C   UNL     1      -0.332  10.470  21.851  0.00  0.00    +0.000 A 
ATOM     19  C   UNL     1      -1.128  10.760  22.959  0.00  0.00    +0.000 A 
ATOM     20  C   UNL     1      -1.424  12.088  23.218  0.00  0.00    +0.000 A 
ATOM     21  N   UNL     1      -0.986  13.115  22.459  0.00  0.00    +0.000 NA
ATOM     22  C   UNL     1      -0.197  12.811  21.405  0.00  0.00    +0.000 A 
ATOM     23  C   UNL     1       0.155  11.520  21.064  0.00  0.00    +0.000 A 
ENDBRANCH  15  18
ENDBRANCH   3  14
TORSDOF 5
ENDMDL
MODEL 6
REMARK VINA RESULT:      -6.8      2.084      2.643
REMARK  Name = 
REMARK  8 active torsions:
REMARK  status: ('A' for Active; 'I' for Inactive)
REMARK    1  A    between atoms: C_1  and  O_2
REMARK    2  A    between atoms: O_2  and  C_3
REMARK    3  A    between atoms: C_6  and  C_7
REMARK    4  A    between atoms: C_7  and  C_8
REMARK    5  A    between atoms: N_9  and  N_10
REMARK    6  A    between atoms: C_11  and  C_13
REMARK    7  A    between atoms: C_20  and  O_21
REMARK    8  A    between atoms: O_21  and  C_22
REMARK                            x       y       z     vdW  Elec       q    Type
REMARK                         _______ _______ _______ _____ _____    ______ ____
ROOT
ATOM      1  C   UNL     1       2.117   7.559  19.162  0.00  0.00    +0.000 C 
ATOM      2  C   UNL     1       2.119   8.640  18.099  0.00  0.00    +0.000 C 
ATOM      3  N   UNL     1       1.704   7.760  20.381  0.00  0.00    +0.000 NA
ENDROOT
BRANCH   1   7
ATOM      4  C   UNL     1       3.615   3.659  18.060  0.00  0.00    +0.000 A 
ATOM      5  C   UNL     1       2.285   4.012  17.785  0.00  0.00    +0.000 A 
ATOM      6  C   UNL     1       1.786   5.274  18.123  0.00  0.00    +0.000 A 
ATOM      7  C   UNL     1       2.598   6.188  18.794  0.00  0.00    +0.000 A 
ATOM      8  C   UNL     1       3.909   5.816  19.119  0.00  0.00    +0.000 A 
ATOM      9  C   UNL     1       4.426   4.557  18.770  0.00  0.00    +0.000 A 
BRANCH   4  11
ATOM     10  C   UNL     1       3.665   1.317  18.434  0.00  0.00    +0.000 C 
ATOM     11  O   UNL     1       4.113   2.442  17.677  0.00  0.00    +0.000 OA
ENDBRANCH   4  11
BRANCH   9  12
ATOM     12  O   UNL     1       5.721   4.399  19.189  0.00  0.00    +0.000 OA
ATOM     13  C   UNL     1       6.759   5.101  18.525  0.00  0.00    +0.000 C 
ENDBRANCH   9  12
ENDBRANCH   1   7
BRANCH   3  14
ATOM     14  N   UNL     1       1.257   8.996  20.745  0.00  0.00    +0.000 N 
ATOM     15  C   UNL     1       0.051   9.117  21.421  0.00  0.00    +0.000 C 
ATOM     16  O   UNL     1      -0.660   8.185  21.782  0.00  0.00    +0.000 OA
ATOM     17  H   UNL     1       1.852   9.800  20.603  0.00  0.00    +0.000 HD
BRANCH  15  18
ATOM     18  C   UNL     1      -0.373  10.508  21.746  0.00  0.00    +0.000 A 
ATOM     19  C   UNL     1      -0.147  11.582  20.884  0.00  0.00    +0.000 A 
ATOM     20  C   UNL     1      -0.604  12.832  21.267  0.00  0.00    +0.000 A 
ATOM     21  N   UNL     1      -1.254  13.069  22.426  0.00  0.00    +0.000 NA
ATOM     22  C   UNL     1      -1.483  12.009  23.233  0.00  0.00    +0.000 A 
ATOM     23  C   UNL     1      -1.068  10.724  22.940  0.00  0.00    +0.000 A 
ENDBRANCH  15  18
ENDBRANCH   3  14
TORSDOF 5
ENDMDL
MODEL 7
REMARK VINA RESULT:      -6.8      1.136      1.294
REMARK  Name = 
REMARK  8 active torsions:
REMARK  status: ('A' for Active; 'I' for Inactive)
REMARK    1  A    between atoms: C_1  and  O_2
REMARK    2  A    between atoms: O_2  and  C_3
REMARK    3  A    between atoms: C_6  and  C_7
REMARK    4  A    between atoms: C_7  and  C_8
REMARK    5  A    between atoms: N_9  and  N_10
REMARK    6  A    between atoms: C_11  and  C_13
REMARK    7  A    between atoms: C_20  and  O_21
REMARK    8  A    between atoms: O_21  and  C_22
REMARK                            x       y       z     vdW  Elec       q    Type
REMARK                         _______ _______ _______ _____ _____    ______ ____
ROOT
ATOM      1  C   UNL     1       3.087   6.551  18.566  0.00  0.00    +0.000 C 
ATOM      2  C   UNL     1       2.541   5.829  19.783  0.00  0.00    +0.000 C 
ATOM      3  N   UNL     1       2.737   7.762  18.240  0.00  0.00    +0.000 NA
ENDROOT
BRANCH   1   7
ATOM      4  C   UNL     1       6.000   4.628  16.020  0.00  0.00    +0.000 A 
ATOM      5  C   UNL     1       4.785   3.991  16.315  0.00  0.00    +0.000 A 
ATOM      6  C   UNL     1       3.826   4.603  17.126  0.00  0.00    +0.000 A 
ATOM      7  C   UNL     1       4.090   5.846  17.703  0.00  0.00    +0.000 A 
ATOM      8  C   UNL     1       5.325   6.457  17.455  0.00  0.00    +0.000 A 
ATOM      9  C   UNL     1       6.291   5.859  16.628  0.00  0.00    +0.000 A 
BRANCH   4  11
ATOM     10  C   UNL     1       6.597   4.089  13.788  0.00  0.00    +0.000 C 
ATOM     11  O   UNL     1       6.913   4.047  15.179  0.00  0.00    +0.000 OA
ENDBRANCH   4  11
BRANCH   9  12
ATOM     12  O   UNL     1       7.425   6.621  16.527  0.00  0.00    +0.000 OA
ATOM     13  C   UNL     1       7.669   7.638  17.485  0.00  0.00    +0.000 C 
ENDBRANCH   9  12
ENDBRANCH   1   7
BRANCH   3  14
ATOM     14  N   UNL     1       1.830   8.430  19.008  0.00  0.00    +0.000 N 
ATOM     15  C   UNL     1       1.427   9.706  18.639  0.00  0.00    +0.000 C 
ATOM     16  O   UNL     1       1.782  10.300  17.626  0.00  0.00    +0.000 OA
ATOM     17  H   UNL     1       1.390   7.955  19.782  0.00  0.00    +0.000 HD
BRANCH  15  18
ATOM     18  C   UNL     1       0.461  10.372  19.557  0.00  0.00    +0.000 A 
ATOM     19  C   UNL     1       0.495  10.192  20.940  0.00  0.00    +0.000 A 
ATOM     20  C   UNL     1      -0.432  10.876  21.709  0.00  0.00    +0.000 A 
ATOM     21  N   UNL     1      -1.364  11.707  21.195  0.00  0.00    +0.000 NA
ATOM     22  C   UNL     1      -1.362  11.884  19.855  0.00  0.00    +0.000 A 
ATOM     23  C   UNL     1      -0.480  11.247  19.004  0.00  0.00    +0.000 A 
ENDBRANCH  15  18
ENDBRANCH   3  14
TORSDOF 5
ENDMDL
MODEL 8
REMARK VINA RESULT:      -6.7      2.421      3.695
REMARK  Name = 
REMARK  8 active torsions:
REMARK  status: ('A' for Active; 'I' for Inactive)
REMARK    1  A    between atoms: C_1  and  O_2
REMARK    2  A    between atoms: O_2  and  C_3
REMARK    3  A    between atoms: C_6  and  C_7
REMARK    4  A    between atoms: C_7  and  C_8
REMARK    5  A    between atoms: N_9  and  N_10
REMARK    6  A    between atoms: C_11  and  C_13
REMARK    7  A    between atoms: C_20  and  O_21
REMARK    8  A    between atoms: O_21  and  C_22
REMARK                            x       y       z     vdW  Elec       q    Type
REMARK                         _______ _______ _______ _____ _____    ______ ____
ROOT
ATOM      1  C   UNL     1       1.956   7.863  19.410  0.00  0.00    +0.000 C 
ATOM      2  C   UNL     1       1.921   8.790  18.211  0.00  0.00    +0.000 C 
ATOM      3  N   UNL     1       1.501   8.198  20.584  0.00  0.00    +0.000 NA
ENDROOT
BRANCH   1   7
ATOM      4  C   UNL     1       3.647   3.905  19.034  0.00  0.00    +0.000 A 
ATOM      5  C   UNL     1       3.786   4.837  17.995  0.00  0.00    +0.000 A 
ATOM      6  C   UNL     1       3.257   6.126  18.104  0.00  0.00    +0.000 A 
ATOM      7  C   UNL     1       2.529   6.488  19.238  0.00  0.00    +0.000 A 
ATOM      8  C   UNL     1       2.341   5.539  20.251  0.00  0.00    +0.000 A 
ATOM      9  C   UNL     1       2.881   4.246  20.160  0.00  0.00    +0.000 A 
BRANCH   4  11
ATOM     10  C   UNL     1       3.431   1.662  18.291  0.00  0.00    +0.000 C 
ATOM     11  O   UNL     1       4.215   2.662  18.944  0.00  0.00    +0.000 OA
ENDBRANCH   4  11
BRANCH   9  12
ATOM     12  O   UNL     1       2.572   3.481  21.253  0.00  0.00    +0.000 OA
ATOM     13  C   UNL     1       1.332   2.794  21.295  0.00  0.00    +0.000 C 
ENDBRANCH   9  12
ENDBRANCH   1   7
BRANCH   3  14
ATOM     14  N   UNL     1       0.971   9.440  20.770  0.00  0.00    +0.000 N 
ATOM     15  C   UNL     1      -0.093   9.608  21.644  0.00  0.00    +0.000 C 
ATOM     16  O   UNL     1      -0.597   8.724  22.331  0.00  0.00    +0.000 OA
ATOM     17  H   UNL     1       1.419  10.239  20.345  0.00  0.00    +0.000 HD
BRANCH  15  18
ATOM     18  C   UNL     1      -0.629  10.994  21.757  0.00  0.00    +0.000 A 
ATOM     19  C   UNL     1      -0.596  11.899  20.696  0.00  0.00    +0.000 A 
ATOM     20  C   UNL     1      -1.143  13.155  20.894  0.00  0.00    +0.000 A 
ATOM     21  N   UNL     1      -1.705  13.552  22.056  0.00  0.00    +0.000 NA
ATOM     22  C   UNL     1      -1.747  12.650  23.061  0.00  0.00    +0.000 A 
ATOM     23  C   UNL     1      -1.229  11.373  22.962  0.00  0.00    +0.000 A 
ENDBRANCH  15  18
ENDBRANCH   3  14
TORSDOF 5
ENDMDL
MODEL 9
REMARK VINA RESULT:      -6.6      1.295      1.735
REMARK  Name = 
REMARK  8 active torsions:
REMARK  status: ('A' for Active; 'I' for Inactive)
REMARK    1  A    between atoms: C_1  and  O_2
REMARK    2  A    between atoms: O_2  and  C_3
REMARK    3  A    between atoms: C_6  and  C_7
REMARK    4  A    between atoms: C_7  and  C_8
REMARK    5  A    between atoms: N_9  and  N_10
REMARK    6  A    between atoms: C_11  and  C_13
REMARK    7  A    between atoms: C_20  and  O_21
REMARK    8  A    between atoms: O_21  and  C_22
REMARK                            x       y       z     vdW  Elec       q    Type
REMARK                         _______ _______ _______ _____ _____    ______ ____
ROOT
ATOM      1  C   UNL     1       2.668   6.880  18.550  0.00  0.00    +0.000 C 
ATOM      2  C   UNL     1       2.209   6.403  19.914  0.00  0.00    +0.000 C 
ATOM      3  N   UNL     1       2.249   7.987  18.005  0.00  0.00    +0.000 NA
ENDROOT
BRANCH   1   7
ATOM      4  C   UNL     1       5.552   4.584  16.298  0.00  0.00    +0.000 A 
ATOM      5  C   UNL     1       4.356   3.992  16.731  0.00  0.00    +0.000 A 
ATOM      6  C   UNL     1       3.406   4.722  17.450  0.00  0.00    +0.000 A 
ATOM      7  C   UNL     1       3.661   6.050  17.796  0.00  0.00    +0.000 A 
ATOM      8  C   UNL     1       4.880   6.625  17.412  0.00  0.00    +0.000 A 
ATOM      9  C   UNL     1       5.836   5.905  16.676  0.00  0.00    +0.000 A 
BRANCH   4  11
ATOM     10  C   UNL     1       6.327   4.008  14.131  0.00  0.00    +0.000 C 
ATOM     11  O   UNL     1       6.454   3.878  15.547  0.00  0.00    +0.000 OA
ENDBRANCH   4  11
BRANCH   9  12
ATOM     12  O   UNL     1       6.953   6.653  16.414  0.00  0.00    +0.000 OA
ATOM     13  C   UNL     1       7.527   7.434  17.449  0.00  0.00    +0.000 C 
ENDBRANCH   9  12
ENDBRANCH   1   7
BRANCH   3  14
ATOM     14  N   UNL     1       1.348   8.765  18.668  0.00  0.00    +0.000 N 
ATOM     15  C   UNL     1       1.416  10.146  18.550  0.00  0.00    +0.000 C 
ATOM     16  O   UNL     1       2.206  10.762  17.842  0.00  0.00    +0.000 OA
ATOM     17  H   UNL     1       0.583   8.328  19.162  0.00  0.00    +0.000 HD
BRANCH  15  18
ATOM     18  C   UNL     1       0.413  10.915  19.339  0.00  0.00    +0.000 A 
ATOM     19  C   UNL     1      -0.671  11.563  18.745  0.00  0.00    +0.000 A 
ATOM     20  C   UNL     1      -1.562  12.231  19.568  0.00  0.00    +0.000 A 
ATOM     21  N   UNL     1      -1.440  12.289  20.912  0.00  0.00    +0.000 NA
ATOM     22  C   UNL     1      -0.396  11.634  21.466  0.00  0.00    +0.000 A 
ATOM     23  C   UNL     1       0.545  10.940  20.731  0.00  0.00    +0.000 A 
ENDBRANCH  15  18
ENDBRANCH   3  14
TORSDOF 5
ENDMDL
