MODEL 1
REMARK VINA RESULT:      -8.1      0.000      0.000
REMARK  Name = 
REMARK  10 active torsions:
REMARK  status: ('A' for Active; 'I' for Inactive)
REMARK    1  A    between atoms: C_1  and  C_2
REMARK    2  A    between atoms: C_2  and  C_3
REMARK    3  A    between atoms: C_3  and  C_4
REMARK    4  A    between atoms: C_4  and  C_5
REMARK    5  A    between atoms: C_5  and  N_6
REMARK    6  A    between atoms: C_7  and  S_8
REMARK    7  A    between atoms: S_8  and  C_9
REMARK    8  A    between atoms: C_12  and  C_13
REMARK    9  A    between atoms: C_15  and  N_16
REMARK   10  A    between atoms: C_22  and  C_23
REMARK                            x       y       z     vdW  Elec       q    Type
REMARK                         _______ _______ _______ _____ _____    ______ ____
ROOT
ATOM      1  N   UNL     1       4.735   4.908  16.803  0.00  0.00    +0.000 N 
ATOM      2  C   UNL     1       4.680   5.870  17.786  0.00  0.00    +0.000 A 
ATOM      3  N   UNL     1       5.372   6.918  17.411  0.00  0.00    +0.000 NA
ATOM      4  N   UNL     1       5.909   6.648  16.180  0.00  0.00    +0.000 NA
ATOM      5  C   UNL     1       5.494   5.457  15.775  0.00  0.00    +0.000 A 
ENDROOT
BRANCH   5   6
ATOM      6  C   UNL     1       5.886   4.836  14.495  0.00  0.00    +0.000 A 
ATOM      7  C   UNL     1       7.146   5.135  13.950  0.00  0.00    +0.000 A 
ATOM      8  C   UNL     1       7.587   4.526  12.769  0.00  0.00    +0.000 A 
ATOM      9  C   UNL     1       6.777   3.601  12.116  0.00  0.00    +0.000 A 
ATOM     10  C   UNL     1       5.505   3.334  12.610  0.00  0.00    +0.000 A 
ATOM     11  C   UNL     1       5.053   3.976  13.768  0.00  0.00    +0.000 A 
ENDBRANCH   5   6
BRANCH   1  12
ATOM     12  C   UNL     1       4.215   3.556  16.879  0.00  0.00    +0.000 C 
BRANCH  12  13
ATOM     13  C   UNL     1       2.712   3.486  17.161  0.00  0.00    +0.000 C 
BRANCH  13  14
ATOM     14  C   UNL     1       2.373   2.325  18.093  0.00  0.00    +0.000 C 
BRANCH  14  16
ATOM     15  C   UNL     1       0.941   3.376  19.847  0.00  0.00    +0.000 C 
ATOM     16  C   UNL     1       0.963   2.427  18.659  0.00  0.00    +0.000 C 
ENDBRANCH  14  16
ENDBRANCH  13  14
ENDBRANCH  12  13
ENDBRANCH   1  12
BRANCH   2  17
ATOM     17  S   UNL     1       3.709   5.767  19.219  0.00  0.00    +0.000 S 
BRANCH  17  18
ATOM     18  C   UNL     1       2.634   7.199  19.159  0.00  0.00    +0.000 A 
ATOM     19  C   UNL     1       2.357   7.957  18.015  0.00  0.00    +0.000 A 
ATOM     20  C   UNL     1       1.530   9.094  18.073  0.00  0.00    +0.000 A 
ATOM     21  C   UNL     1       0.933   9.488  19.276  0.00  0.00    +0.000 A 
ATOM     22  C   UNL     1       1.158   8.695  20.400  0.00  0.00    +0.000 A 
ATOM     23  C   UNL     1       2.001   7.568  20.356  0.00  0.00    +0.000 A 
BRANCH  22  24
ATOM     24  N   UNL     1       0.499   9.007  21.655  0.00  0.00    +0.000 N 
ATOM     25  O   UNL     1       1.081   9.783  22.418  0.00  0.00    +0.000 OA
ATOM     26  O   UNL     1      -0.612   8.496  21.841  0.00  0.00    +0.000 OA
ENDBRANCH  22  24
BRANCH  21  27
ATOM     27  C   UNL     1       0.176  10.710  19.317  0.00  0.00    +0.000 C 
ATOM     28  N   UNL     1      -0.418  11.705  19.305  0.00  0.00    +0.000 NA
ENDBRANCH  21  27
ENDBRANCH  17  18
ENDBRANCH   2  17
TORSDOF 9
ENDMDL
MODEL 2
REMARK VINA RESULT:      -7.8      0.595      1.345
REMARK  Name = 
REMARK  10 active torsions:
REMARK  status: ('A' for Active; 'I' for Inactive)
REMARK    1  A    between atoms: C_1  and  C_2
REMARK    2  A    between atoms: C_2  and  C_3
REMARK    3  A    between atoms: C_3  and  C_4
REMARK    4  A    between atoms: C_4  and  C_5
REMARK    5  A    between atoms: C_5  and  N_6
REMARK    6  A    between atoms: C_7  and  S_8
REMARK    7  A    between atoms: S_8  and  C_9
REMARK    8  A    between atoms: C_12  and  C_13
REMARK    9  A    between atoms: C_15  and  N_16
REMARK   10  A    between atoms: C_22  and  C_23
REMARK                            x       y       z     vdW  Elec       q    Type
REMARK                         _______ _______ _______ _____ _____    ______ ____
ROOT
ATOM      1  N   UNL     1       4.808   4.925  16.785  0.00  0.00    +0.000 N 
ATOM      2  C   UNL     1       4.675   5.879  17.769  0.00  0.00    +0.000 A 
ATOM      3  N   UNL     1       5.350   6.950  17.433  0.00  0.00    +0.000 NA
ATOM      4  N   UNL     1       5.954   6.706  16.228  0.00  0.00    +0.000 NA
ATOM      5  C   UNL     1       5.598   5.505  15.797  0.00  0.00    +0.000 A 
ENDROOT
BRANCH   5   6
ATOM      6  C   UNL     1       6.070   4.905  14.535  0.00  0.00    +0.000 A 
ATOM      7  C   UNL     1       5.270   3.942  13.897  0.00  0.00    +0.000 A 
ATOM      8  C   UNL     1       5.646   3.387  12.668  0.00  0.00    +0.000 A 
ATOM      9  C   UNL     1       6.826   3.792  12.051  0.00  0.00    +0.000 A 
ATOM     10  C   UNL     1       7.658   4.703  12.693  0.00  0.00    +0.000 A 
ATOM     11  C   UNL     1       7.298   5.224  13.941  0.00  0.00    +0.000 A 
ENDBRANCH   5   6
BRANCH   1  12
ATOM     12  C   UNL     1       4.329   3.556  16.830  0.00  0.00    +0.000 C 
BRANCH  12  13
ATOM     13  C   UNL     1       2.807   3.438  16.948  0.00  0.00    +0.000 C 
BRANCH  13  14
ATOM     14  C   UNL     1       2.409   2.347  17.940  0.00  0.00    +0.000 C 
BRANCH  14  16
ATOM     15  C   UNL     1       3.823   2.127  19.986  0.00  0.00    +0.000 C 
ATOM     16  C   UNL     1       3.617   1.653  18.556  0.00  0.00    +0.000 C 
ENDBRANCH  14  16
ENDBRANCH  13  14
ENDBRANCH  12  13
ENDBRANCH   1  12
BRANCH   2  17
ATOM     17  S   UNL     1       3.639   5.735  19.153  0.00  0.00    +0.000 S 
BRANCH  17  18
ATOM     18  C   UNL     1       2.595   7.190  19.107  0.00  0.00    +0.000 A 
ATOM     19  C   UNL     1       2.315   7.952  17.966  0.00  0.00    +0.000 A 
ATOM     20  C   UNL     1       1.513   9.106  18.034  0.00  0.00    +0.000 A 
ATOM     21  C   UNL     1       0.944   9.514  19.246  0.00  0.00    +0.000 A 
ATOM     22  C   UNL     1       1.170   8.719  20.368  0.00  0.00    +0.000 A 
ATOM     23  C   UNL     1       1.989   7.574  20.314  0.00  0.00    +0.000 A 
BRANCH  22  24
ATOM     24  N   UNL     1       0.538   9.047  21.633  0.00  0.00    +0.000 N 
ATOM     25  O   UNL     1      -0.580   8.567  21.843  0.00  0.00    +0.000 OA
ATOM     26  O   UNL     1       1.188   9.752  22.414  0.00  0.00    +0.000 OA
ENDBRANCH  22  24
BRANCH  21  27
ATOM     27  C   UNL     1       0.214  10.752  19.297  0.00  0.00    +0.000 C 
ATOM     28  N   UNL     1      -0.337  11.769  19.362  0.00  0.00    +0.000 NA
ENDBRANCH  21  27
ENDBRANCH  17  18
ENDBRANCH   2  17
TORSDOF 9
ENDMDL
MODEL 3
REMARK VINA RESULT:      -7.4      3.292      8.751
REMARK  Name = 
REMARK  10 active torsions:
REMARK  status: ('A' for Active; 'I' for Inactive)
REMARK    1  A    between atoms: C_1  and  C_2
REMARK    2  A    between atoms: C_2  and  C_3
REMARK    3  A    between atoms: C_3  and  C_4
REMARK    4  A    between atoms: C_4  and  C_5
REMARK    5  A    between atoms: C_5  and  N_6
REMARK    6  A    between atoms: C_7  and  S_8
REMARK    7  A    between atoms: S_8  and  C_9
REMARK    8  A    between atoms: C_12  and  C_13
REMARK    9  A    between atoms: C_15  and  N_16
REMARK   10  A    between atoms: C_22  and  C_23
REMARK                            x       y       z     vdW  Elec       q    Type
REMARK                         _______ _______ _______ _____ _____    ______ ____
ROOT
ATOM      1  N   UNL     1       1.034   8.842  20.044  0.00  0.00    +0.000 N 
ATOM      2  C   UNL     1       1.849   7.978  19.348  0.00  0.00    +0.000 A 
ATOM      3  N   UNL     1       2.174   8.515  18.197  0.00  0.00    +0.000 NA
ATOM      4  N   UNL     1       1.557   9.736  18.115  0.00  0.00    +0.000 NA
ATOM      5  C   UNL     1       0.903   9.971  19.243  0.00  0.00    +0.000 A 
ENDROOT
BRANCH   5   6
ATOM      6  C   UNL     1       0.113  11.189  19.502  0.00  0.00    +0.000 A 
ATOM      7  C   UNL     1       0.775  12.354  19.926  0.00  0.00    +0.000 A 
ATOM      8  C   UNL     1       0.078  13.551  20.128  0.00  0.00    +0.000 A 
ATOM      9  C   UNL     1      -1.295  13.606  19.902  0.00  0.00    +0.000 A 
ATOM     10  C   UNL     1      -1.976  12.451  19.534  0.00  0.00    +0.000 A 
ATOM     11  C   UNL     1      -1.281  11.247  19.374  0.00  0.00    +0.000 A 
ENDBRANCH   5   6
BRANCH   1  12
ATOM     12  C   UNL     1       0.350   8.574  21.295  0.00  0.00    +0.000 C 
BRANCH  12  13
ATOM     13  C   UNL     1       0.555   9.659  22.356  0.00  0.00    +0.000 C 
BRANCH  13  14
ATOM     14  C   UNL     1      -0.765  10.039  23.025  0.00  0.00    +0.000 C 
BRANCH  14  16
ATOM     15  C   UNL     1      -2.459  11.865  23.189  0.00  0.00    +0.000 C 
ATOM     16  C   UNL     1      -0.976  11.547  23.075  0.00  0.00    +0.000 C 
ENDBRANCH  14  16
ENDBRANCH  13  14
ENDBRANCH  12  13
ENDBRANCH   1  12
BRANCH   2  17
ATOM     17  S   UNL     1       2.475   6.486  19.974  0.00  0.00    +0.000 S 
BRANCH  17  18
ATOM     18  C   UNL     1       3.370   5.747  18.608  0.00  0.00    +0.000 A 
ATOM     19  C   UNL     1       2.855   4.791  17.724  0.00  0.00    +0.000 A 
ATOM     20  C   UNL     1       3.647   4.235  16.704  0.00  0.00    +0.000 A 
ATOM     21  C   UNL     1       4.974   4.643  16.521  0.00  0.00    +0.000 A 
ATOM     22  C   UNL     1       5.465   5.642  17.361  0.00  0.00    +0.000 A 
ATOM     23  C   UNL     1       4.686   6.188  18.399  0.00  0.00    +0.000 A 
BRANCH  22  24
ATOM     24  N   UNL     1       6.805   6.164  17.165  0.00  0.00    +0.000 N 
ATOM     25  O   UNL     1       7.743   5.464  17.556  0.00  0.00    +0.000 OA
ATOM     26  O   UNL     1       6.898   7.255  16.588  0.00  0.00    +0.000 OA
ENDBRANCH  22  24
BRANCH  21  27
ATOM     27  C   UNL     1       5.782   3.982  15.533  0.00  0.00    +0.000 C 
ATOM     28  N   UNL     1       6.426   3.488  14.706  0.00  0.00    +0.000 NA
ENDBRANCH  21  27
ENDBRANCH  17  18
ENDBRANCH   2  17
TORSDOF 9
ENDMDL
MODEL 4
REMARK VINA RESULT:      -7.4      3.957      9.277
REMARK  Name = 
REMARK  10 active torsions:
REMARK  status: ('A' for Active; 'I' for Inactive)
REMARK    1  A    between atoms: C_1  and  C_2
REMARK    2  A    between atoms: C_2  and  C_3
REMARK    3  A    between atoms: C_3  and  C_4
REMARK    4  A    between atoms: C_4  and  C_5
REMARK    5  A    between atoms: C_5  and  N_6
REMARK    6  A    between atoms: C_7  and  S_8
REMARK    7  A    between atoms: S_8  and  C_9
REMARK    8  A    between atoms: C_12  and  C_13
REMARK    9  A    between atoms: C_15  and  N_16
REMARK   10  A    between atoms: C_22  and  C_23
REMARK                            x       y       z     vdW  Elec       q    Type
REMARK                         _______ _______ _______ _____ _____    ______ ____
ROOT
ATOM      1  N   UNL     1       0.682   9.749  19.726  0.00  0.00    +0.000 N 
ATOM      2  C   UNL     1       1.514   8.658  19.608  0.00  0.00    +0.000 A 
ATOM      3  N   UNL     1       1.895   8.269  20.800  0.00  0.00    +0.000 NA
ATOM      4  N   UNL     1       1.332   9.115  21.719  0.00  0.00    +0.000 NA
ATOM      5  C   UNL     1       0.556   9.986  21.091  0.00  0.00    +0.000 A 
ENDROOT
BRANCH   5   6
ATOM      6  C   UNL     1      -0.201  11.057  21.767  0.00  0.00    +0.000 A 
ATOM      7  C   UNL     1      -1.227  10.706  22.660  0.00  0.00    +0.000 A 
ATOM      8  C   UNL     1      -1.935  11.683  23.370  0.00  0.00    +0.000 A 
ATOM      9  C   UNL     1      -1.622  13.030  23.204  0.00  0.00    +0.000 A 
ATOM     10  C   UNL     1      -0.648  13.400  22.284  0.00  0.00    +0.000 A 
ATOM     11  C   UNL     1       0.028  12.421  21.546  0.00  0.00    +0.000 A 
ENDBRANCH   5   6
BRANCH   1  12
ATOM     12  C   UNL     1       0.152  10.559  18.645  0.00  0.00    +0.000 C 
BRANCH  12  13
ATOM     13  C   UNL     1      -1.346  10.357  18.399  0.00  0.00    +0.000 C 
BRANCH  13  14
ATOM     14  C   UNL     1      -1.891  11.386  17.411  0.00  0.00    +0.000 C 
BRANCH  14  16
ATOM     15  C   UNL     1      -2.875  10.509  15.291  0.00  0.00    +0.000 C 
ATOM     16  C   UNL     1      -3.168  10.914  16.727  0.00  0.00    +0.000 C 
ENDBRANCH  14  16
ENDBRANCH  13  14
ENDBRANCH  12  13
ENDBRANCH   1  12
BRANCH   2  17
ATOM     17  S   UNL     1       1.863   7.835  18.122  0.00  0.00    +0.000 S 
BRANCH  17  18
ATOM     18  C   UNL     1       2.557   6.258  18.614  0.00  0.00    +0.000 A 
ATOM     19  C   UNL     1       1.820   5.136  19.011  0.00  0.00    +0.000 A 
ATOM     20  C   UNL     1       2.456   3.949  19.420  0.00  0.00    +0.000 A 
ATOM     21  C   UNL     1       3.851   3.844  19.417  0.00  0.00    +0.000 A 
ATOM     22  C   UNL     1       4.582   4.940  18.961  0.00  0.00    +0.000 A 
ATOM     23  C   UNL     1       3.955   6.139  18.569  0.00  0.00    +0.000 A 
BRANCH  22  24
ATOM     24  N   UNL     1       6.027   4.859  18.856  0.00  0.00    +0.000 N 
ATOM     25  O   UNL     1       6.682   5.197  19.847  0.00  0.00    +0.000 OA
ATOM     26  O   UNL     1       6.485   4.423  17.793  0.00  0.00    +0.000 OA
ENDBRANCH  22  24
BRANCH  21  27
ATOM     27  C   UNL     1       4.467   2.653  19.936  0.00  0.00    +0.000 C 
ATOM     28  N   UNL     1       4.998   1.697  20.320  0.00  0.00    +0.000 NA
ENDBRANCH  21  27
ENDBRANCH  17  18
ENDBRANCH   2  17
TORSDOF 9
ENDMDL
MODEL 5
REMARK VINA RESULT:      -7.3      3.219      8.667
REMARK  Name = 
REMARK  10 active torsions:
REMARK  status: ('A' for Active; 'I' for Inactive)
REMARK    1  A    between atoms: C_1  and  C_2
REMARK    2  A    between atoms: C_2  and  C_3
REMARK    3  A    between atoms: C_3  and  C_4
REMARK    4  A    between atoms: C_4  and  C_5
REMARK    5  A    between atoms: C_5  and  N_6
REMARK    6  A    between atoms: C_7  and  S_8
REMARK    7  A    between atoms: S_8  and  C_9
REMARK    8  A    between atoms: C_12  and  C_13
REMARK    9  A    between atoms: C_15  and  N_16
REMARK   10  A    between atoms: C_22  and  C_23
REMARK                            x       y       z     vdW  Elec       q    Type
REMARK                         _______ _______ _______ _____ _____    ______ ____
ROOT
ATOM      1  N   UNL     1       1.302   8.945  20.108  0.00  0.00    +0.000 N 
ATOM      2  C   UNL     1       1.706   7.854  19.371  0.00  0.00    +0.000 A 
ATOM      3  N   UNL     1       1.684   8.155  18.096  0.00  0.00    +0.000 NA
ATOM      4  N   UNL     1       1.245   9.447  17.977  0.00  0.00    +0.000 NA
ATOM      5  C   UNL     1       1.056   9.957  19.186  0.00  0.00    +0.000 A 
ENDROOT
BRANCH   5   6
ATOM      6  C   UNL     1       0.572  11.327  19.439  0.00  0.00    +0.000 A 
ATOM      7  C   UNL     1      -0.762  11.646  19.133  0.00  0.00    +0.000 A 
ATOM      8  C   UNL     1      -1.285  12.915  19.410  0.00  0.00    +0.000 A 
ATOM      9  C   UNL     1      -0.483  13.886  20.005  0.00  0.00    +0.000 A 
ATOM     10  C   UNL     1       0.854  13.606  20.265  0.00  0.00    +0.000 A 
ATOM     11  C   UNL     1       1.383  12.350  19.949  0.00  0.00    +0.000 A 
ENDBRANCH   5   6
BRANCH   1  12
ATOM     12  C   UNL     1       1.061   8.988  21.538  0.00  0.00    +0.000 C 
BRANCH  12  13
ATOM     13  C   UNL     1      -0.421   8.939  21.917  0.00  0.00    +0.000 C 
BRANCH  13  14
ATOM     14  C   UNL     1      -0.714   9.817  23.133  0.00  0.00    +0.000 C 
BRANCH  14  16
ATOM     15  C   UNL     1      -2.177  11.839  23.167  0.00  0.00    +0.000 C 
ATOM     16  C   UNL     1      -0.814  11.293  22.772  0.00  0.00    +0.000 C 
ENDBRANCH  14  16
ENDBRANCH  13  14
ENDBRANCH  12  13
ENDBRANCH   1  12
BRANCH   2  17
ATOM     17  S   UNL     1       2.305   6.372  20.045  0.00  0.00    +0.000 S 
BRANCH  17  18
ATOM     18  C   UNL     1       3.210   5.587  18.712  0.00  0.00    +0.000 A 
ATOM     19  C   UNL     1       3.119   4.236  18.357  0.00  0.00    +0.000 A 
ATOM     20  C   UNL     1       3.901   3.698  17.318  0.00  0.00    +0.000 A 
ATOM     21  C   UNL     1       4.778   4.507  16.586  0.00  0.00    +0.000 A 
ATOM     22  C   UNL     1       4.819   5.864  16.898  0.00  0.00    +0.000 A 
ATOM     23  C   UNL     1       4.055   6.407  17.950  0.00  0.00    +0.000 A 
BRANCH  22  24
ATOM     24  N   UNL     1       5.646   6.767  16.118  0.00  0.00    +0.000 N 
ATOM     25  O   UNL     1       5.176   7.181  15.055  0.00  0.00    +0.000 OA
ATOM     26  O   UNL     1       6.741   7.076  16.602  0.00  0.00    +0.000 OA
ENDBRANCH  22  24
BRANCH  21  27
ATOM     27  C   UNL     1       5.633   3.903  15.600  0.00  0.00    +0.000 C 
ATOM     28  N   UNL     1       6.360   3.431  14.832  0.00  0.00    +0.000 NA
ENDBRANCH  21  27
ENDBRANCH  17  18
ENDBRANCH   2  17
TORSDOF 9
ENDMDL
MODEL 6
REMARK VINA RESULT:      -7.3      3.124      4.713
REMARK  Name = 
REMARK  10 active torsions:
REMARK  status: ('A' for Active; 'I' for Inactive)
REMARK    1  A    between atoms: C_1  and  C_2
REMARK    2  A    between atoms: C_2  and  C_3
REMARK    3  A    between atoms: C_3  and  C_4
REMARK    4  A    between atoms: C_4  and  C_5
REMARK    5  A    between atoms: C_5  and  N_6
REMARK    6  A    between atoms: C_7  and  S_8
REMARK    7  A    between atoms: S_8  and  C_9
REMARK    8  A    between atoms: C_12  and  C_13
REMARK    9  A    between atoms: C_15  and  N_16
REMARK   10  A    between atoms: C_22  and  C_23
REMARK                            x       y       z     vdW  Elec       q    Type
REMARK                         _______ _______ _______ _____ _____    ______ ____
ROOT
ATOM      1  N   UNL     1       2.132   7.566  19.413  0.00  0.00    +0.000 N 
ATOM      2  C   UNL     1       1.474   8.771  19.309  0.00  0.00    +0.000 A 
ATOM      3  N   UNL     1       1.683   9.281  18.120  0.00  0.00    +0.000 NA
ATOM      4  N   UNL     1       2.501   8.423  17.433  0.00  0.00    +0.000 NA
ATOM      5  C   UNL     1       2.742   7.357  18.181  0.00  0.00    +0.000 A 
ENDROOT
BRANCH   5   6
ATOM      6  C   UNL     1       3.597   6.230  17.764  0.00  0.00    +0.000 A 
ATOM      7  C   UNL     1       3.013   4.965  17.575  0.00  0.00    +0.000 A 
ATOM      8  C   UNL     1       3.770   3.878  17.123  0.00  0.00    +0.000 A 
ATOM      9  C   UNL     1       5.125   4.039  16.843  0.00  0.00    +0.000 A 
ATOM     10  C   UNL     1       5.732   5.268  17.076  0.00  0.00    +0.000 A 
ATOM     11  C   UNL     1       4.979   6.341  17.567  0.00  0.00    +0.000 A 
ENDBRANCH   5   6
BRANCH   1  12
ATOM     12  C   UNL     1       2.264   6.748  20.604  0.00  0.00    +0.000 C 
BRANCH  12  13
ATOM     13  C   UNL     1       1.425   5.468  20.571  0.00  0.00    +0.000 C 
BRANCH  13  14
ATOM     14  C   UNL     1       2.167   4.299  21.218  0.00  0.00    +0.000 C 
BRANCH  14  16
ATOM     15  C   UNL     1       0.733   2.960  19.674  0.00  0.00    +0.000 C 
ATOM     16  C   UNL     1       1.446   2.972  21.017  0.00  0.00    +0.000 C 
ENDBRANCH  14  16
ENDBRANCH  13  14
ENDBRANCH  12  13
ENDBRANCH   1  12
BRANCH   2  17
ATOM     17  S   UNL     1       0.405   9.423  20.509  0.00  0.00    +0.000 S 
BRANCH  17  18
ATOM     18  C   UNL     1       0.299  11.173  20.138  0.00  0.00    +0.000 A 
ATOM     19  C   UNL     1      -0.707  11.781  19.378  0.00  0.00    +0.000 A 
ATOM     20  C   UNL     1      -0.685  13.161  19.105  0.00  0.00    +0.000 A 
ATOM     21  C   UNL     1       0.333  13.977  19.610  0.00  0.00    +0.000 A 
ATOM     22  C   UNL     1       1.298  13.382  20.421  0.00  0.00    +0.000 A 
ATOM     23  C   UNL     1       1.296  11.998  20.682  0.00  0.00    +0.000 A 
BRANCH  22  24
ATOM     24  N   UNL     1       2.330  14.192  21.041  0.00  0.00    +0.000 N 
ATOM     25  O   UNL     1       3.338  14.429  20.369  0.00  0.00    +0.000 OA
ATOM     26  O   UNL     1       2.098  14.611  22.182  0.00  0.00    +0.000 OA
ENDBRANCH  22  24
BRANCH  21  27
ATOM     27  C   UNL     1       0.378  15.363  19.228  0.00  0.00    +0.000 C 
ATOM     28  N   UNL     1       0.458  16.482  18.940  0.00  0.00    +0.000 NA
ENDBRANCH  21  27
ENDBRANCH  17  18
ENDBRANCH   2  17
TORSDOF 9
ENDMDL
MODEL 7
REMARK VINA RESULT:      -7.2      2.867      4.223
REMARK  Name = 
REMARK  10 active torsions:
REMARK  status: ('A' for Active; 'I' for Inactive)
REMARK    1  A    between atoms: C_1  and  C_2
REMARK    2  A    between atoms: C_2  and  C_3
REMARK    3  A    between atoms: C_3  and  C_4
REMARK    4  A    between atoms: C_4  and  C_5
REMARK    5  A    between atoms: C_5  and  N_6
REMARK    6  A    between atoms: C_7  and  S_8
REMARK    7  A    between atoms: S_8  and  C_9
REMARK    8  A    between atoms: C_12  and  C_13
REMARK    9  A    between atoms: C_15  and  N_16
REMARK   10  A    between atoms: C_22  and  C_23
REMARK                            x       y       z     vdW  Elec       q    Type
REMARK                         _______ _______ _______ _____ _____    ______ ____
ROOT
ATOM      1  N   UNL     1       2.400   7.240  19.236  0.00  0.00    +0.000 N 
ATOM      2  C   UNL     1       1.802   8.476  19.347  0.00  0.00    +0.000 A 
ATOM      3  N   UNL     1       2.009   9.161  18.249  0.00  0.00    +0.000 NA
ATOM      4  N   UNL     1       2.766   8.388  17.408  0.00  0.00    +0.000 NA
ATOM      5  C   UNL     1       2.970   7.205  17.968  0.00  0.00    +0.000 A 
ENDROOT
BRANCH   5   6
ATOM      6  C   UNL     1       3.756   6.121  17.349  0.00  0.00    +0.000 A 
ATOM      7  C   UNL     1       4.867   6.453  16.555  0.00  0.00    +0.000 A 
ATOM      8  C   UNL     1       5.679   5.460  15.995  0.00  0.00    +0.000 A 
ATOM      9  C   UNL     1       5.397   4.116  16.225  0.00  0.00    +0.000 A 
ATOM     10  C   UNL     1       4.271   3.767  16.962  0.00  0.00    +0.000 A 
ATOM     11  C   UNL     1       3.439   4.763  17.486  0.00  0.00    +0.000 A 
ENDBRANCH   5   6
BRANCH   1  12
ATOM     12  C   UNL     1       2.518   6.236  20.277  0.00  0.00    +0.000 C 
BRANCH  12  13
ATOM     13  C   UNL     1       1.246   5.409  20.485  0.00  0.00    +0.000 C 
BRANCH  13  14
ATOM     14  C   UNL     1       1.575   3.942  20.759  0.00  0.00    +0.000 C 
BRANCH  14  16
ATOM     15  C   UNL     1       1.833   1.974  19.245  0.00  0.00    +0.000 C 
ATOM     16  C   UNL     1       0.857   2.998  19.802  0.00  0.00    +0.000 C 
ENDBRANCH  14  16
ENDBRANCH  13  14
ENDBRANCH  12  13
ENDBRANCH   1  12
BRANCH   2  17
ATOM     17  S   UNL     1       0.796   8.975  20.669  0.00  0.00    +0.000 S 
BRANCH  17  18
ATOM     18  C   UNL     1       0.355  10.672  20.304  0.00  0.00    +0.000 A 
ATOM     19  C   UNL     1      -0.778  11.081  19.590  0.00  0.00    +0.000 A 
ATOM     20  C   UNL     1      -1.021  12.439  19.317  0.00  0.00    +0.000 A 
ATOM     21  C   UNL     1      -0.149  13.432  19.777  0.00  0.00    +0.000 A 
ATOM     22  C   UNL     1       0.943  13.029  20.544  0.00  0.00    +0.000 A 
ATOM     23  C   UNL     1       1.206  11.670  20.804  0.00  0.00    +0.000 A 
BRANCH  22  24
ATOM     24  N   UNL     1       1.835  14.020  21.118  0.00  0.00    +0.000 N 
ATOM     25  O   UNL     1       1.517  14.494  22.213  0.00  0.00    +0.000 OA
ATOM     26  O   UNL     1       2.861  14.281  20.480  0.00  0.00    +0.000 OA
ENDBRANCH  22  24
BRANCH  21  27
ATOM     27  C   UNL     1      -0.377  14.799  19.394  0.00  0.00    +0.000 C 
ATOM     28  N   UNL     1      -0.580  15.909  19.130  0.00  0.00    +0.000 NA
ENDBRANCH  21  27
ENDBRANCH  17  18
ENDBRANCH   2  17
TORSDOF 9
ENDMDL
MODEL 8
REMARK VINA RESULT:      -7.2      3.304      8.679
REMARK  Name = 
REMARK  10 active torsions:
REMARK  status: ('A' for Active; 'I' for Inactive)
REMARK    1  A    between atoms: C_1  and  C_2
REMARK    2  A    between atoms: C_2  and  C_3
REMARK    3  A    between atoms: C_3  and  C_4
REMARK    4  A    between atoms: C_4  and  C_5
REMARK    5  A    between atoms: C_5  and  N_6
REMARK    6  A    between atoms: C_7  and  S_8
REMARK    7  A    between atoms: S_8  and  C_9
REMARK    8  A    between atoms: C_12  and  C_13
REMARK    9  A    between atoms: C_15  and  N_16
REMARK   10  A    between atoms: C_22  and  C_23
REMARK                            x       y       z     vdW  Elec       q    Type
REMARK                         _______ _______ _______ _____ _____    ______ ____
ROOT
ATOM      1  N   UNL     1       1.091   8.986  19.809  0.00  0.00    +0.000 N 
ATOM      2  C   UNL     1       1.923   8.118  19.138  0.00  0.00    +0.000 A 
ATOM      3  N   UNL     1       2.370   8.695  18.050  0.00  0.00    +0.000 NA
ATOM      4  N   UNL     1       1.818   9.947  17.981  0.00  0.00    +0.000 NA
ATOM      5  C   UNL     1       1.081  10.159  19.062  0.00  0.00    +0.000 A 
ENDROOT
BRANCH   5   6
ATOM      6  C   UNL     1       0.327  11.400  19.318  0.00  0.00    +0.000 A 
ATOM      7  C   UNL     1      -1.061  11.412  19.100  0.00  0.00    +0.000 A 
ATOM      8  C   UNL     1      -1.830  12.547  19.385  0.00  0.00    +0.000 A 
ATOM      9  C   UNL     1      -1.223  13.689  19.901  0.00  0.00    +0.000 A 
ATOM     10  C   UNL     1       0.156  13.715  20.072  0.00  0.00    +0.000 A 
ATOM     11  C   UNL     1       0.925  12.592  19.747  0.00  0.00    +0.000 A 
ENDBRANCH   5   6
BRANCH   1  12
ATOM     12  C   UNL     1       0.291   8.690  20.983  0.00  0.00    +0.000 C 
BRANCH  12  13
ATOM     13  C   UNL     1       0.909   9.186  22.293  0.00  0.00    +0.000 C 
BRANCH  13  14
ATOM     14  C   UNL     1      -0.149   9.788  23.216  0.00  0.00    +0.000 C 
BRANCH  14  16
ATOM     15  C   UNL     1      -2.030  11.429  23.279  0.00  0.00    +0.000 C 
ATOM     16  C   UNL     1      -0.643  11.144  22.726  0.00  0.00    +0.000 C 
ENDBRANCH  14  16
ENDBRANCH  13  14
ENDBRANCH  12  13
ENDBRANCH   1  12
BRANCH   2  17
ATOM     17  S   UNL     1       2.426   6.569  19.734  0.00  0.00    +0.000 S 
BRANCH  17  18
ATOM     18  C   UNL     1       3.652   5.994  18.561  0.00  0.00    +0.000 A 
ATOM     19  C   UNL     1       3.438   5.026  17.572  0.00  0.00    +0.000 A 
ATOM     20  C   UNL     1       4.476   4.608  16.720  0.00  0.00    +0.000 A 
ATOM     21  C   UNL     1       5.754   5.168  16.816  0.00  0.00    +0.000 A 
ATOM     22  C   UNL     1       5.949   6.177  17.757  0.00  0.00    +0.000 A 
ATOM     23  C   UNL     1       4.922   6.588  18.629  0.00  0.00    +0.000 A 
BRANCH  22  24
ATOM     24  N   UNL     1       7.230   6.854  17.845  0.00  0.00    +0.000 N 
ATOM     25  O   UNL     1       7.988   6.505  18.756  0.00  0.00    +0.000 OA
ATOM     26  O   UNL     1       7.474   7.700  16.977  0.00  0.00    +0.000 OA
ENDBRANCH  22  24
BRANCH  21  27
ATOM     27  C   UNL     1       6.814   4.645  15.996  0.00  0.00    +0.000 C 
ATOM     28  N   UNL     1       7.640   4.233  15.296  0.00  0.00    +0.000 NA
ENDBRANCH  21  27
ENDBRANCH  17  18
ENDBRANCH   2  17
TORSDOF 9
ENDMDL
MODEL 9
REMARK VINA RESULT:      -7.2      2.662      5.179
REMARK  Name = 
REMARK  10 active torsions:
REMARK  status: ('A' for Active; 'I' for Inactive)
REMARK    1  A    between atoms: C_1  and  C_2
REMARK    2  A    between atoms: C_2  and  C_3
REMARK    3  A    between atoms: C_3  and  C_4
REMARK    4  A    between atoms: C_4  and  C_5
REMARK    5  A    between atoms: C_5  and  N_6
REMARK    6  A    between atoms: C_7  and  S_8
REMARK    7  A    between atoms: S_8  and  C_9
REMARK    8  A    between atoms: C_12  and  C_13
REMARK    9  A    between atoms: C_15  and  N_16
REMARK   10  A    between atoms: C_22  and  C_23
REMARK                            x       y       z     vdW  Elec       q    Type
REMARK                         _______ _______ _______ _____ _____    ______ ____
ROOT
ATOM      1  N   UNL     1       2.725   7.084  18.376  0.00  0.00    +0.000 N 
ATOM      2  C   UNL     1       2.170   8.159  19.035  0.00  0.00    +0.000 A 
ATOM      3  N   UNL     1       1.604   7.747  20.142  0.00  0.00    +0.000 NA
ATOM      4  N   UNL     1       1.763   6.388  20.216  0.00  0.00    +0.000 NA
ATOM      5  C   UNL     1       2.482   5.977  19.182  0.00  0.00    +0.000 A 
ENDROOT
BRANCH   5   6
ATOM      6  C   UNL     1       2.839   4.568  18.932  0.00  0.00    +0.000 A 
ATOM      7  C   UNL     1       3.946   4.017  19.599  0.00  0.00    +0.000 A 
ATOM      8  C   UNL     1       4.291   2.669  19.441  0.00  0.00    +0.000 A 
ATOM      9  C   UNL     1       3.528   1.846  18.616  0.00  0.00    +0.000 A 
ATOM     10  C   UNL     1       2.462   2.386  17.905  0.00  0.00    +0.000 A 
ATOM     11  C   UNL     1       2.147   3.743  18.035  0.00  0.00    +0.000 A 
ENDBRANCH   5   6
BRANCH   1  12
ATOM     12  C   UNL     1       3.327   7.090  17.056  0.00  0.00    +0.000 C 
BRANCH  12  13
ATOM     13  C   UNL     1       4.844   6.888  17.067  0.00  0.00    +0.000 C 
BRANCH  13  14
ATOM     14  C   UNL     1       5.302   6.041  15.881  0.00  0.00    +0.000 C 
BRANCH  14  16
ATOM     15  C   UNL     1       5.985   3.782  15.067  0.00  0.00    +0.000 C 
ATOM     16  C   UNL     1       5.365   4.557  16.219  0.00  0.00    +0.000 C 
ENDBRANCH  14  16
ENDBRANCH  13  14
ENDBRANCH  12  13
ENDBRANCH   1  12
BRANCH   2  17
ATOM     17  S   UNL     1       2.343   9.814  18.548  0.00  0.00    +0.000 S 
BRANCH  17  18
ATOM     18  C   UNL     1       0.727  10.546  18.804  0.00  0.00    +0.000 A 
ATOM     19  C   UNL     1       0.429  11.547  19.736  0.00  0.00    +0.000 A 
ATOM     20  C   UNL     1      -0.882  12.033  19.894  0.00  0.00    +0.000 A 
ATOM     21  C   UNL     1      -1.928  11.549  19.101  0.00  0.00    +0.000 A 
ATOM     22  C   UNL     1      -1.618  10.600  18.130  0.00  0.00    +0.000 A 
ATOM     23  C   UNL     1      -0.313  10.092  17.978  0.00  0.00    +0.000 A 
BRANCH  22  24
ATOM     24  N   UNL     1      -2.645  10.123  17.222  0.00  0.00    +0.000 N 
ATOM     25  O   UNL     1      -3.424   9.268  17.654  0.00  0.00    +0.000 OA
ATOM     26  O   UNL     1      -2.680  10.640  16.099  0.00  0.00    +0.000 OA
ENDBRANCH  22  24
BRANCH  21  27
ATOM     27  C   UNL     1      -3.270  11.997  19.359  0.00  0.00    +0.000 C 
ATOM     28  N   UNL     1      -4.353  12.377  19.522  0.00  0.00    +0.000 NA
ENDBRANCH  21  27
ENDBRANCH  17  18
ENDBRANCH   2  17
TORSDOF 9
ENDMDL
