MODEL 1
REMARK VINA RESULT:      -8.5      0.000      0.000
REMARK  Name = 
REMARK  7 active torsions:
REMARK  status: ('A' for Active; 'I' for Inactive)
REMARK    1  A    between atoms: C_1  and  C_2
REMARK    2  A    between atoms: C_5  and  O_6
REMARK    3  A    between atoms: O_6  and  C_7
REMARK    4  A    between atoms: C_7  and  C_8
REMARK    5  A    between atoms: C_12  and  C_13
REMARK    6  A    between atoms: C_17  and  C_18
REMARK    7  A    between atoms: C_17  and  C_19
REMARK                            x       y       z     vdW  Elec       q    Type
REMARK                         _______ _______ _______ _____ _____    ______ ____
ROOT
ATOM      1  C   UNL     1       6.411   5.014  17.613  0.00  0.00    +0.000 C 
ATOM      2  O   UNL     1       7.445   4.402  17.899  0.00  0.00    +0.000 OA
ATOM      3  N   UNL     1       5.214   4.892  18.358  0.00  0.00    +0.000 N 
ATOM      4  C   UNL     1       5.336   3.764  19.302  0.00  0.00    +0.000 C 
ATOM      5  C   UNL     1       4.008   3.026  19.120  0.00  0.00    +0.000 C 
ATOM      6  C   UNL     1       4.089   1.508  19.210  0.00  0.00    +0.000 C 
ATOM      7  C   UNL     1       3.714   3.349  17.620  0.00  0.00    +0.000 C 
ATOM      8  C   UNL     1       3.882   4.838  17.663  0.00  0.00    +0.000 C 
ATOM      9  C   UNL     1       2.531   5.322  18.337  0.00  0.00    +0.000 C 
ATOM     10  C   UNL     1       1.950   4.494  19.547  0.00  0.00    +0.000 C 
ATOM     11  C   UNL     1       1.311   5.490  20.544  0.00  0.00    +0.000 C 
ATOM     12  C   UNL     1       0.844   3.456  19.230  0.00  0.00    +0.000 C 
ATOM     13  C   UNL     1       3.075   3.691  20.183  0.00  0.00    +0.000 C 
ENDROOT
BRANCH   1  14
ATOM     14  C   UNL     1       6.458   6.016  16.482  0.00  0.00    +0.000 C 
BRANCH  14  15
ATOM     15  O   UNL     1       7.427   5.730  15.482  0.00  0.00    +0.000 OA
BRANCH  15  20
ATOM     16  C   UNL     1       5.214   2.572  11.309  0.00  0.00    +0.000 C 
ATOM     17  C   UNL     1       5.779   3.430  12.407  0.00  0.00    +0.000 A 
ATOM     18  C   UNL     1       5.094   3.650  13.607  0.00  0.00    +0.000 A 
ATOM     19  C   UNL     1       5.666   4.438  14.614  0.00  0.00    +0.000 A 
ATOM     20  C   UNL     1       6.918   5.026  14.418  0.00  0.00    +0.000 A 
ATOM     21  C   UNL     1       7.592   4.813  13.229  0.00  0.00    +0.000 A 
ATOM     22  C   UNL     1       7.034   4.029  12.222  0.00  0.00    +0.000 A 
ENDBRANCH  15  20
ENDBRANCH  14  15
ENDBRANCH   1  14
TORSDOF 3
ENDMDL
MODEL 2
REMARK VINA RESULT:      -8.4      0.284      1.065
REMARK  Name = 
REMARK  7 active torsions:
REMARK  status: ('A' for Active; 'I' for Inactive)
REMARK    1  A    between atoms: C_1  and  C_2
REMARK    2  A    between atoms: C_5  and  O_6
REMARK    3  A    between atoms: O_6  and  C_7
REMARK    4  A    between atoms: C_7  and  C_8
REMARK    5  A    between atoms: C_12  and  C_13
REMARK    6  A    between atoms: C_17  and  C_18
REMARK    7  A    between atoms: C_17  and  C_19
REMARK                            x       y       z     vdW  Elec       q    Type
REMARK                         _______ _______ _______ _____ _____    ______ ____
ROOT
ATOM      1  C   UNL     1       6.597   5.137  17.663  0.00  0.00    +0.000 C 
ATOM      2  O   UNL     1       7.613   4.507  17.971  0.00  0.00    +0.000 OA
ATOM      3  N   UNL     1       5.403   5.090  18.421  0.00  0.00    +0.000 N 
ATOM      4  C   UNL     1       5.496   4.004  19.417  0.00  0.00    +0.000 C 
ATOM      5  C   UNL     1       4.144   3.301  19.278  0.00  0.00    +0.000 C 
ATOM      6  C   UNL     1       4.177   1.787  19.440  0.00  0.00    +0.000 C 
ATOM      7  C   UNL     1       3.849   3.562  17.766  0.00  0.00    +0.000 C 
ATOM      8  C   UNL     1       4.063   5.045  17.737  0.00  0.00    +0.000 C 
ATOM      9  C   UNL     1       2.734   5.603  18.396  0.00  0.00    +0.000 C 
ATOM     10  C   UNL     1       2.136   4.853  19.648  0.00  0.00    +0.000 C 
ATOM     11  C   UNL     1       1.537   5.914  20.600  0.00  0.00    +0.000 C 
ATOM     12  C   UNL     1       0.996   3.837  19.387  0.00  0.00    +0.000 C 
ATOM     13  C   UNL     1       3.240   4.045  20.314  0.00  0.00    +0.000 C 
ENDROOT
BRANCH   1  14
ATOM     14  C   UNL     1       6.667   6.083  16.485  0.00  0.00    +0.000 C 
BRANCH  14  15
ATOM     15  O   UNL     1       7.538   5.663  15.445  0.00  0.00    +0.000 OA
BRANCH  15  20
ATOM     16  C   UNL     1       5.051   2.740  11.255  0.00  0.00    +0.000 C 
ATOM     17  C   UNL     1       5.730   3.490  12.367  0.00  0.00    +0.000 A 
ATOM     18  C   UNL     1       6.984   4.089  12.204  0.00  0.00    +0.000 A 
ATOM     19  C   UNL     1       7.571   4.799  13.260  0.00  0.00    +0.000 A 
ATOM     20  C   UNL     1       6.916   4.897  14.490  0.00  0.00    +0.000 A 
ATOM     21  C   UNL     1       5.678   4.300  14.652  0.00  0.00    +0.000 A 
ATOM     22  C   UNL     1       5.084   3.594  13.608  0.00  0.00    +0.000 A 
ENDBRANCH  15  20
ENDBRANCH  14  15
ENDBRANCH   1  14
TORSDOF 3
ENDMDL
MODEL 3
REMARK VINA RESULT:      -8.1      1.186      2.525
REMARK  Name = 
REMARK  7 active torsions:
REMARK  status: ('A' for Active; 'I' for Inactive)
REMARK    1  A    between atoms: C_1  and  C_2
REMARK    2  A    between atoms: C_5  and  O_6
REMARK    3  A    between atoms: O_6  and  C_7
REMARK    4  A    between atoms: C_7  and  C_8
REMARK    5  A    between atoms: C_12  and  C_13
REMARK    6  A    between atoms: C_17  and  C_18
REMARK    7  A    between atoms: C_17  and  C_19
REMARK                            x       y       z     vdW  Elec       q    Type
REMARK                         _______ _______ _______ _____ _____    ______ ____
ROOT
ATOM      1  C   UNL     1       5.653   6.235  16.866  0.00  0.00    +0.000 C 
ATOM      2  O   UNL     1       5.535   7.409  16.502  0.00  0.00    +0.000 OA
ATOM      3  N   UNL     1       4.566   5.466  17.346  0.00  0.00    +0.000 N 
ATOM      4  C   UNL     1       3.407   6.349  17.583  0.00  0.00    +0.000 C 
ATOM      5  C   UNL     1       2.914   5.898  18.961  0.00  0.00    +0.000 C 
ATOM      6  C   UNL     1       2.383   7.007  19.858  0.00  0.00    +0.000 C 
ATOM      7  C   UNL     1       4.263   5.439  19.602  0.00  0.00    +0.000 C 
ATOM      8  C   UNL     1       4.745   4.531  18.511  0.00  0.00    +0.000 C 
ATOM      9  C   UNL     1       3.863   3.231  18.723  0.00  0.00    +0.000 C 
ATOM     10  C   UNL     1       2.335   3.402  19.077  0.00  0.00    +0.000 C 
ATOM     11  C   UNL     1       1.551   2.268  18.376  0.00  0.00    +0.000 C 
ATOM     12  C   UNL     1       1.940   3.317  20.573  0.00  0.00    +0.000 C 
ATOM     13  C   UNL     1       1.874   4.780  18.625  0.00  0.00    +0.000 C 
ENDROOT
BRANCH   1  14
ATOM     14  C   UNL     1       6.994   5.558  16.691  0.00  0.00    +0.000 C 
BRANCH  14  15
ATOM     15  O   UNL     1       7.571   5.723  15.404  0.00  0.00    +0.000 OA
BRANCH  15  20
ATOM     16  C   UNL     1       5.384   2.513  11.258  0.00  0.00    +0.000 C 
ATOM     17  C   UNL     1       5.988   3.344  12.355  0.00  0.00    +0.000 A 
ATOM     18  C   UNL     1       7.073   4.198  12.131  0.00  0.00    +0.000 A 
ATOM     19  C   UNL     1       7.591   4.973  13.177  0.00  0.00    +0.000 A 
ATOM     20  C   UNL     1       7.039   4.882  14.458  0.00  0.00    +0.000 A 
ATOM     21  C   UNL     1       5.970   4.033  14.680  0.00  0.00    +0.000 A 
ATOM     22  C   UNL     1       5.444   3.260  13.646  0.00  0.00    +0.000 A 
ENDBRANCH  15  20
ENDBRANCH  14  15
ENDBRANCH   1  14
TORSDOF 3
ENDMDL
MODEL 4
REMARK VINA RESULT:      -8.1      1.175      2.304
REMARK  Name = 
REMARK  7 active torsions:
REMARK  status: ('A' for Active; 'I' for Inactive)
REMARK    1  A    between atoms: C_1  and  C_2
REMARK    2  A    between atoms: C_5  and  O_6
REMARK    3  A    between atoms: O_6  and  C_7
REMARK    4  A    between atoms: C_7  and  C_8
REMARK    5  A    between atoms: C_12  and  C_13
REMARK    6  A    between atoms: C_17  and  C_18
REMARK    7  A    between atoms: C_17  and  C_19
REMARK                            x       y       z     vdW  Elec       q    Type
REMARK                         _______ _______ _______ _____ _____    ______ ____
ROOT
ATOM      1  C   UNL     1       5.599   6.085  16.859  0.00  0.00    +0.000 C 
ATOM      2  O   UNL     1       5.505   7.247  16.452  0.00  0.00    +0.000 OA
ATOM      3  N   UNL     1       4.497   5.356  17.368  0.00  0.00    +0.000 N 
ATOM      4  C   UNL     1       3.356   6.270  17.573  0.00  0.00    +0.000 C 
ATOM      5  C   UNL     1       2.856   5.880  18.966  0.00  0.00    +0.000 C 
ATOM      6  C   UNL     1       2.349   7.033  19.822  0.00  0.00    +0.000 C 
ATOM      7  C   UNL     1       4.197   5.418  19.622  0.00  0.00    +0.000 C 
ATOM      8  C   UNL     1       4.658   4.461  18.566  0.00  0.00    +0.000 C 
ATOM      9  C   UNL     1       3.750   3.188  18.826  0.00  0.00    +0.000 C 
ATOM     10  C   UNL     1       2.227   3.403  19.174  0.00  0.00    +0.000 C 
ATOM     11  C   UNL     1       1.420   2.260  18.515  0.00  0.00    +0.000 C 
ATOM     12  C   UNL     1       1.832   3.380  20.672  0.00  0.00    +0.000 C 
ATOM     13  C   UNL     1       1.793   4.772  18.672  0.00  0.00    +0.000 C 
ENDROOT
BRANCH   1  14
ATOM     14  C   UNL     1       6.925   5.375  16.709  0.00  0.00    +0.000 C 
BRANCH  14  15
ATOM     15  O   UNL     1       7.597   5.639  15.485  0.00  0.00    +0.000 OA
BRANCH  15  20
ATOM     16  C   UNL     1       5.463   2.459  11.289  0.00  0.00    +0.000 C 
ATOM     17  C   UNL     1       6.001   3.318  12.399  0.00  0.00    +0.000 A 
ATOM     18  C   UNL     1       5.500   3.249  13.703  0.00  0.00    +0.000 A 
ATOM     19  C   UNL     1       6.047   4.051  14.714  0.00  0.00    +0.000 A 
ATOM     20  C   UNL     1       7.084   4.940  14.421  0.00  0.00    +0.000 A 
ATOM     21  C   UNL     1       7.575   5.011  13.129  0.00  0.00    +0.000 A 
ATOM     22  C   UNL     1       7.042   4.216  12.117  0.00  0.00    +0.000 A 
ENDBRANCH  15  20
ENDBRANCH  14  15
ENDBRANCH   1  14
TORSDOF 3
ENDMDL
MODEL 5
REMARK VINA RESULT:      -7.5      3.798      8.061
REMARK  Name = 
REMARK  7 active torsions:
REMARK  status: ('A' for Active; 'I' for Inactive)
REMARK    1  A    between atoms: C_1  and  C_2
REMARK    2  A    between atoms: C_5  and  O_6
REMARK    3  A    between atoms: O_6  and  C_7
REMARK    4  A    between atoms: C_7  and  C_8
REMARK    5  A    between atoms: C_12  and  C_13
REMARK    6  A    between atoms: C_17  and  C_18
REMARK    7  A    between atoms: C_17  and  C_19
REMARK                            x       y       z     vdW  Elec       q    Type
REMARK                         _______ _______ _______ _____ _____    ______ ____
ROOT
ATOM      1  C   UNL     1       1.787   5.590  20.021  0.00  0.00    +0.000 C 
ATOM      2  O   UNL     1       0.867   4.821  20.318  0.00  0.00    +0.000 OA
ATOM      3  N   UNL     1       2.638   5.377  18.910  0.00  0.00    +0.000 N 
ATOM      4  C   UNL     1       2.422   4.017  18.378  0.00  0.00    +0.000 C 
ATOM      5  C   UNL     1       3.849   3.501  18.181  0.00  0.00    +0.000 C 
ATOM      6  C   UNL     1       4.053   2.022  18.481  0.00  0.00    +0.000 C 
ATOM      7  C   UNL     1       4.585   4.274  19.323  0.00  0.00    +0.000 C 
ATOM      8  C   UNL     1       4.112   5.661  19.010  0.00  0.00    +0.000 C 
ATOM      9  C   UNL     1       5.005   6.061  17.763  0.00  0.00    +0.000 C 
ATOM     10  C   UNL     1       5.274   4.980  16.646  0.00  0.00    +0.000 C 
ATOM     11  C   UNL     1       5.299   5.702  15.278  0.00  0.00    +0.000 C 
ATOM     12  C   UNL     1       6.608   4.195  16.726  0.00  0.00    +0.000 C 
ATOM     13  C   UNL     1       4.186   3.918  16.713  0.00  0.00    +0.000 C 
ENDROOT
BRANCH   1  14
ATOM     14  C   UNL     1       1.941   6.867  20.814  0.00  0.00    +0.000 C 
BRANCH  14  15
ATOM     15  O   UNL     1       1.700   8.054  20.071  0.00  0.00    +0.000 OA
BRANCH  15  20
ATOM     16  C   UNL     1      -1.556  11.611  23.075  0.00  0.00    +0.000 C 
ATOM     17  C   UNL     1      -0.669  10.683  22.293  0.00  0.00    +0.000 A 
ATOM     18  C   UNL     1       0.037   9.639  22.900  0.00  0.00    +0.000 A 
ATOM     19  C   UNL     1       0.834   8.782  22.131  0.00  0.00    +0.000 A 
ATOM     20  C   UNL     1       0.946   8.978  20.752  0.00  0.00    +0.000 A 
ATOM     21  C   UNL     1       0.253  10.015  20.152  0.00  0.00    +0.000 A 
ATOM     22  C   UNL     1      -0.545  10.871  20.907  0.00  0.00    +0.000 A 
ENDBRANCH  15  20
ENDBRANCH  14  15
ENDBRANCH   1  14
TORSDOF 3
ENDMDL
MODEL 6
REMARK VINA RESULT:      -7.4      3.852      8.122
REMARK  Name = 
REMARK  7 active torsions:
REMARK  status: ('A' for Active; 'I' for Inactive)
REMARK    1  A    between atoms: C_1  and  C_2
REMARK    2  A    between atoms: C_5  and  O_6
REMARK    3  A    between atoms: O_6  and  C_7
REMARK    4  A    between atoms: C_7  and  C_8
REMARK    5  A    between atoms: C_12  and  C_13
REMARK    6  A    between atoms: C_17  and  C_18
REMARK    7  A    between atoms: C_17  and  C_19
REMARK                            x       y       z     vdW  Elec       q    Type
REMARK                         _______ _______ _______ _____ _____    ______ ____
ROOT
ATOM      1  C   UNL     1       1.764   5.583  20.041  0.00  0.00    +0.000 C 
ATOM      2  O   UNL     1       0.840   4.810  20.312  0.00  0.00    +0.000 OA
ATOM      3  N   UNL     1       2.613   5.404  18.922  0.00  0.00    +0.000 N 
ATOM      4  C   UNL     1       2.388   4.064  18.345  0.00  0.00    +0.000 C 
ATOM      5  C   UNL     1       3.812   3.546  18.129  0.00  0.00    +0.000 C 
ATOM      6  C   UNL     1       4.008   2.056  18.378  0.00  0.00    +0.000 C 
ATOM      7  C   UNL     1       4.553   4.275  19.296  0.00  0.00    +0.000 C 
ATOM      8  C   UNL     1       4.089   5.674  19.031  0.00  0.00    +0.000 C 
ATOM      9  C   UNL     1       4.983   6.112  17.798  0.00  0.00    +0.000 C 
ATOM     10  C   UNL     1       5.245   5.068  16.644  0.00  0.00    +0.000 C 
ATOM     11  C   UNL     1       5.273   5.836  15.301  0.00  0.00    +0.000 C 
ATOM     12  C   UNL     1       6.574   4.273  16.695  0.00  0.00    +0.000 C 
ATOM     13  C   UNL     1       4.151   4.011  16.675  0.00  0.00    +0.000 C 
ENDROOT
BRANCH   1  14
ATOM     14  C   UNL     1       1.927   6.832  20.877  0.00  0.00    +0.000 C 
BRANCH  14  15
ATOM     15  O   UNL     1       1.675   8.043  20.180  0.00  0.00    +0.000 OA
BRANCH  15  20
ATOM     16  C   UNL     1      -1.389  11.944  22.951  0.00  0.00    +0.000 C 
ATOM     17  C   UNL     1      -0.604  10.904  22.201  0.00  0.00    +0.000 A 
ATOM     18  C   UNL     1      -0.248  11.064  20.858  0.00  0.00    +0.000 A 
ATOM     19  C   UNL     1       0.504  10.081  20.203  0.00  0.00    +0.000 A 
ATOM     20  C   UNL     1       0.888   8.922  20.883  0.00  0.00    +0.000 A 
ATOM     21  C   UNL     1       0.531   8.762  22.210  0.00  0.00    +0.000 A 
ATOM     22  C   UNL     1      -0.214   9.735  22.872  0.00  0.00    +0.000 A 
ENDBRANCH  15  20
ENDBRANCH  14  15
ENDBRANCH   1  14
TORSDOF 3
ENDMDL
MODEL 7
REMARK VINA RESULT:      -7.4      0.913      1.376
REMARK  Name = 
REMARK  7 active torsions:
REMARK  status: ('A' for Active; 'I' for Inactive)
REMARK    1  A    between atoms: C_1  and  C_2
REMARK    2  A    between atoms: C_5  and  O_6
REMARK    3  A    between atoms: O_6  and  C_7
REMARK    4  A    between atoms: C_7  and  C_8
REMARK    5  A    between atoms: C_12  and  C_13
REMARK    6  A    between atoms: C_17  and  C_18
REMARK    7  A    between atoms: C_17  and  C_19
REMARK                            x       y       z     vdW  Elec       q    Type
REMARK                         _______ _______ _______ _____ _____    ______ ____
ROOT
ATOM      1  C   UNL     1       6.119   4.942  17.996  0.00  0.00    +0.000 C 
ATOM      2  O   UNL     1       7.172   4.340  18.229  0.00  0.00    +0.000 OA
ATOM      3  N   UNL     1       4.886   4.598  18.601  0.00  0.00    +0.000 N 
ATOM      4  C   UNL     1       5.024   3.301  19.294  0.00  0.00    +0.000 C 
ATOM      5  C   UNL     1       3.766   2.548  18.854  0.00  0.00    +0.000 C 
ATOM      6  C   UNL     1       3.948   1.053  18.629  0.00  0.00    +0.000 C 
ATOM      7  C   UNL     1       3.551   3.169  17.436  0.00  0.00    +0.000 C 
ATOM      8  C   UNL     1       3.610   4.620  17.805  0.00  0.00    +0.000 C 
ATOM      9  C   UNL     1       2.187   4.874  18.455  0.00  0.00    +0.000 C 
ATOM     10  C   UNL     1       1.585   3.775  19.413  0.00  0.00    +0.000 C 
ATOM     11  C   UNL     1       0.812   4.497  20.543  0.00  0.00    +0.000 C 
ATOM     12  C   UNL     1       0.579   2.770  18.798  0.00  0.00    +0.000 C 
ATOM     13  C   UNL     1       2.719   2.917  19.955  0.00  0.00    +0.000 C 
ENDROOT
BRANCH   1  14
ATOM     14  C   UNL     1       6.170   6.165  17.108  0.00  0.00    +0.000 C 
BRANCH  14  15
ATOM     15  O   UNL     1       5.278   6.127  16.003  0.00  0.00    +0.000 OA
BRANCH  15  20
ATOM     16  C   UNL     1       7.221   3.065  11.629  0.00  0.00    +0.000 C 
ATOM     17  C   UNL     1       6.726   3.859  12.806  0.00  0.00    +0.000 A 
ATOM     18  C   UNL     1       7.520   4.816  13.446  0.00  0.00    +0.000 A 
ATOM     19  C   UNL     1       7.012   5.551  14.525  0.00  0.00    +0.000 A 
ATOM     20  C   UNL     1       5.712   5.318  14.982  0.00  0.00    +0.000 A 
ATOM     21  C   UNL     1       4.929   4.367  14.352  0.00  0.00    +0.000 A 
ATOM     22  C   UNL     1       5.423   3.633  13.276  0.00  0.00    +0.000 A 
ENDBRANCH  15  20
ENDBRANCH  14  15
ENDBRANCH   1  14
TORSDOF 3
ENDMDL
MODEL 8
REMARK VINA RESULT:      -7.3      3.729      7.445
REMARK  Name = 
REMARK  7 active torsions:
REMARK  status: ('A' for Active; 'I' for Inactive)
REMARK    1  A    between atoms: C_1  and  C_2
REMARK    2  A    between atoms: C_5  and  O_6
REMARK    3  A    between atoms: O_6  and  C_7
REMARK    4  A    between atoms: C_7  and  C_8
REMARK    5  A    between atoms: C_12  and  C_13
REMARK    6  A    between atoms: C_17  and  C_18
REMARK    7  A    between atoms: C_17  and  C_19
REMARK                            x       y       z     vdW  Elec       q    Type
REMARK                         _______ _______ _______ _____ _____    ______ ____
ROOT
ATOM      1  C   UNL     1       2.922   7.499  17.997  0.00  0.00    +0.000 C 
ATOM      2  O   UNL     1       3.945   7.917  17.447  0.00  0.00    +0.000 OA
ATOM      3  N   UNL     1       2.886   6.297  18.743  0.00  0.00    +0.000 N 
ATOM      4  C   UNL     1       4.136   5.543  18.520  0.00  0.00    +0.000 C 
ATOM      5  C   UNL     1       3.632   4.119  18.271  0.00  0.00    +0.000 C 
ATOM      6  C   UNL     1       4.414   3.324  17.235  0.00  0.00    +0.000 C 
ATOM      7  C   UNL     1       2.246   4.425  17.618  0.00  0.00    +0.000 C 
ATOM      8  C   UNL     1       1.705   5.370  18.647  0.00  0.00    +0.000 C 
ATOM      9  C   UNL     1       1.268   4.397  19.820  0.00  0.00    +0.000 C 
ATOM     10  C   UNL     1       2.207   3.184  20.187  0.00  0.00    +0.000 C 
ATOM     11  C   UNL     1       2.152   2.983  21.720  0.00  0.00    +0.000 C 
ATOM     12  C   UNL     1       1.856   1.805  19.574  0.00  0.00    +0.000 C 
ATOM     13  C   UNL     1       3.617   3.485  19.700  0.00  0.00    +0.000 C 
ENDROOT
BRANCH   1  14
ATOM     14  C   UNL     1       1.681   8.362  17.961  0.00  0.00    +0.000 C 
BRANCH  14  15
ATOM     15  O   UNL     1       1.846   9.652  18.535  0.00  0.00    +0.000 OA
BRANCH  15  20
ATOM     16  C   UNL     1      -1.226  10.814  23.171  0.00  0.00    +0.000 C 
ATOM     17  C   UNL     1      -0.440  10.507  21.927  0.00  0.00    +0.000 A 
ATOM     18  C   UNL     1      -0.223  11.462  20.928  0.00  0.00    +0.000 A 
ATOM     19  C   UNL     1       0.536  11.141  19.795  0.00  0.00    +0.000 A 
ATOM     20  C   UNL     1       1.065   9.856  19.646  0.00  0.00    +0.000 A 
ATOM     21  C   UNL     1       0.845   8.910  20.631  0.00  0.00    +0.000 A 
ATOM     22  C   UNL     1       0.095   9.220  21.764  0.00  0.00    +0.000 A 
ENDBRANCH  15  20
ENDBRANCH  14  15
ENDBRANCH   1  14
TORSDOF 3
ENDMDL
MODEL 9
REMARK VINA RESULT:      -7.2      3.364      7.392
REMARK  Name = 
REMARK  7 active torsions:
REMARK  status: ('A' for Active; 'I' for Inactive)
REMARK    1  A    between atoms: C_1  and  C_2
REMARK    2  A    between atoms: C_5  and  O_6
REMARK    3  A    between atoms: O_6  and  C_7
REMARK    4  A    between atoms: C_7  and  C_8
REMARK    5  A    between atoms: C_12  and  C_13
REMARK    6  A    between atoms: C_17  and  C_18
REMARK    7  A    between atoms: C_17  and  C_19
REMARK                            x       y       z     vdW  Elec       q    Type
REMARK                         _______ _______ _______ _____ _____    ______ ____
ROOT
ATOM      1  C   UNL     1       3.729   5.777  18.788  0.00  0.00    +0.000 C 
ATOM      2  O   UNL     1       3.870   5.262  19.902  0.00  0.00    +0.000 OA
ATOM      3  N   UNL     1       4.361   5.279  17.624  0.00  0.00    +0.000 N 
ATOM      4  C   UNL     1       5.374   4.276  18.007  0.00  0.00    +0.000 C 
ATOM      5  C   UNL     1       6.587   4.683  17.166  0.00  0.00    +0.000 C 
ATOM      6  C   UNL     1       7.939   4.505  17.844  0.00  0.00    +0.000 C 
ATOM      7  C   UNL     1       6.356   6.226  17.073  0.00  0.00    +0.000 C 
ATOM      8  C   UNL     1       4.934   6.222  16.601  0.00  0.00    +0.000 C 
ATOM      9  C   UNL     1       5.076   5.854  15.066  0.00  0.00    +0.000 C 
ATOM     10  C   UNL     1       6.115   4.745  14.646  0.00  0.00    +0.000 C 
ATOM     11  C   UNL     1       5.511   3.944  13.468  0.00  0.00    +0.000 C 
ATOM     12  C   UNL     1       7.504   5.224  14.153  0.00  0.00    +0.000 C 
ATOM     13  C   UNL     1       6.407   3.860  15.849  0.00  0.00    +0.000 C 
ENDROOT
BRANCH   1  14
ATOM     14  C   UNL     1       2.753   6.924  18.645  0.00  0.00    +0.000 C 
BRANCH  14  15
ATOM     15  O   UNL     1       2.323   7.486  19.877  0.00  0.00    +0.000 OA
BRANCH  15  20
ATOM     16  C   UNL     1      -1.070  11.966  19.037  0.00  0.00    +0.000 C 
ATOM     17  C   UNL     1      -0.192  10.763  19.243  0.00  0.00    +0.000 A 
ATOM     18  C   UNL     1       0.571  10.212  18.208  0.00  0.00    +0.000 A 
ATOM     19  C   UNL     1       1.394   9.104  18.448  0.00  0.00    +0.000 A 
ATOM     20  C   UNL     1       1.443   8.529  19.720  0.00  0.00    +0.000 A 
ATOM     21  C   UNL     1       0.683   9.070  20.742  0.00  0.00    +0.000 A 
ATOM     22  C   UNL     1      -0.136  10.174  20.515  0.00  0.00    +0.000 A 
ENDBRANCH  15  20
ENDBRANCH  14  15
ENDBRANCH   1  14
TORSDOF 3
ENDMDL
