MODEL 1
REMARK VINA RESULT:      -8.3      0.000      0.000
REMARK  Name = 
REMARK  5 active torsions:
REMARK  status: ('A' for Active; 'I' for Inactive)
REMARK    1  A    between atoms: S_2  and  C_4
REMARK    2  A    between atoms: S_2  and  N_10
REMARK    3  A    between atoms: N_13  and  C_14
REMARK    4  A    between atoms: C_14  and  N_16
REMARK    5  A    between atoms: N_16  and  C_17
REMARK                            x       y       z     vdW  Elec       q    Type
REMARK                         _______ _______ _______ _____ _____    ______ ____
ROOT
ATOM      1  N   UNL     1       5.725   4.445  16.994  0.00  0.00    +0.000 NA
ATOM      2  C   UNL     1       6.019   4.615  18.457  0.00  0.00    +0.000 C 
ATOM      3  C   UNL     1       4.985   5.505  19.171  0.00  0.00    +0.000 C 
ATOM      4  N   UNL     1       3.639   4.986  18.921  0.00  0.00    +0.000 N 
ATOM      5  C   UNL     1       3.301   4.884  17.495  0.00  0.00    +0.000 C 
ATOM      6  C   UNL     1       4.308   3.990  16.770  0.00  0.00    +0.000 C 
ENDROOT
BRANCH   1   8
ATOM      7  O   UNL     1       7.535   6.154  16.429  0.00  0.00    +0.000 OA
ATOM      8  S   UNL     1       6.240   5.698  15.961  0.00  0.00    +0.000 S 
ATOM      9  O   UNL     1       5.144   6.620  15.787  0.00  0.00    +0.000 OA
BRANCH   8  10
ATOM     10  C   UNL     1       6.469   4.871  14.408  0.00  0.00    +0.000 A 
ATOM     11  C   UNL     1       5.494   3.966  13.972  0.00  0.00    +0.000 A 
ATOM     12  C   UNL     1       5.625   3.366  12.721  0.00  0.00    +0.000 A 
ATOM     13  C   UNL     1       6.721   3.671  11.912  0.00  0.00    +0.000 A 
ATOM     14  C   UNL     1       7.696   4.569  12.353  0.00  0.00    +0.000 A 
ATOM     15  C   UNL     1       7.575   5.171  13.604  0.00  0.00    +0.000 A 
ENDBRANCH   8  10
ENDBRANCH   1   8
BRANCH   4  16
ATOM     16  C   UNL     1       2.593   5.137  19.833  0.00  0.00    +0.000 C 
ATOM     17  S   UNL     1       1.373   4.013  20.046  0.00  0.00    +0.000 S 
BRANCH  16  18
ATOM     18  N   UNL     1       2.666   6.398  20.414  0.00  0.00    +0.000 N 
ATOM     19  H   UNL     1       3.472   6.500  21.016  0.00  0.00    +0.000 HD
BRANCH  18  20
ATOM     20  C   UNL     1       2.025   7.587  20.021  0.00  0.00    +0.000 A 
ATOM     21  C   UNL     1       2.120   8.072  18.716  0.00  0.00    +0.000 A 
ATOM     22  C   UNL     1       1.408   9.210  18.338  0.00  0.00    +0.000 A 
ATOM     23  C   UNL     1       0.604   9.872  19.263  0.00  0.00    +0.000 A 
ATOM     24  C   UNL     1       0.497   9.385  20.565  0.00  0.00    +0.000 A 
ATOM     25  C   UNL     1       1.193   8.233  20.941  0.00  0.00    +0.000 A 
ENDBRANCH  18  20
ENDBRANCH  16  18
ENDBRANCH   4  16
TORSDOF 5
ENDMDL
MODEL 2
REMARK VINA RESULT:      -8.2      0.067      1.399
REMARK  Name = 
REMARK  5 active torsions:
REMARK  status: ('A' for Active; 'I' for Inactive)
REMARK    1  A    between atoms: S_2  and  C_4
REMARK    2  A    between atoms: S_2  and  N_10
REMARK    3  A    between atoms: N_13  and  C_14
REMARK    4  A    between atoms: C_14  and  N_16
REMARK    5  A    between atoms: N_16  and  C_17
REMARK                            x       y       z     vdW  Elec       q    Type
REMARK                         _______ _______ _______ _____ _____    ______ ____
ROOT
ATOM      1  N   UNL     1       5.765   4.459  16.977  0.00  0.00    +0.000 NA
ATOM      2  C   UNL     1       6.066   4.614  18.440  0.00  0.00    +0.000 C 
ATOM      3  C   UNL     1       5.036   5.498  19.167  0.00  0.00    +0.000 C 
ATOM      4  N   UNL     1       3.688   4.983  18.918  0.00  0.00    +0.000 N 
ATOM      5  C   UNL     1       3.344   4.896  17.493  0.00  0.00    +0.000 C 
ATOM      6  C   UNL     1       4.347   4.008  16.755  0.00  0.00    +0.000 C 
ENDROOT
BRANCH   1   8
ATOM      7  O   UNL     1       7.603   6.127  16.381  0.00  0.00    +0.000 OA
ATOM      8  S   UNL     1       6.278   5.722  15.954  0.00  0.00    +0.000 S 
ATOM      9  O   UNL     1       5.204   6.681  15.847  0.00  0.00    +0.000 OA
BRANCH   8  10
ATOM     10  C   UNL     1       6.420   4.928  14.374  0.00  0.00    +0.000 A 
ATOM     11  C   UNL     1       7.546   5.190  13.584  0.00  0.00    +0.000 A 
ATOM     12  C   UNL     1       7.705   4.517  12.373  0.00  0.00    +0.000 A 
ATOM     13  C   UNL     1       6.748   3.589  11.958  0.00  0.00    +0.000 A 
ATOM     14  C   UNL     1       5.622   3.337  12.746  0.00  0.00    +0.000 A 
ATOM     15  C   UNL     1       5.452   4.007  13.956  0.00  0.00    +0.000 A 
ENDBRANCH   8  10
ENDBRANCH   1   8
BRANCH   4  16
ATOM     16  C   UNL     1       2.646   5.126  19.836  0.00  0.00    +0.000 C 
ATOM     17  S   UNL     1       1.456   3.977  20.080  0.00  0.00    +0.000 S 
BRANCH  16  18
ATOM     18  N   UNL     1       2.694   6.399  20.393  0.00  0.00    +0.000 N 
ATOM     19  H   UNL     1       3.528   6.548  20.945  0.00  0.00    +0.000 HD
BRANCH  18  20
ATOM     20  C   UNL     1       1.976   7.550  20.022  0.00  0.00    +0.000 A 
ATOM     21  C   UNL     1       1.219   8.269  20.947  0.00  0.00    +0.000 A 
ATOM     22  C   UNL     1       0.583   9.450  20.566  0.00  0.00    +0.000 A 
ATOM     23  C   UNL     1       0.697   9.916  19.258  0.00  0.00    +0.000 A 
ATOM     24  C   UNL     1       1.462   9.207  18.333  0.00  0.00    +0.000 A 
ATOM     25  C   UNL     1       2.116   8.034  18.717  0.00  0.00    +0.000 A 
ENDBRANCH  18  20
ENDBRANCH  16  18
ENDBRANCH   4  16
TORSDOF 5
ENDMDL
MODEL 3
REMARK VINA RESULT:      -8.0      1.879      3.260
REMARK  Name = 
REMARK  5 active torsions:
REMARK  status: ('A' for Active; 'I' for Inactive)
REMARK    1  A    between atoms: S_2  and  C_4
REMARK    2  A    between atoms: S_2  and  N_10
REMARK    3  A    between atoms: N_13  and  C_14
REMARK    4  A    between atoms: C_14  and  N_16
REMARK    5  A    between atoms: N_16  and  C_17
REMARK                            x       y       z     vdW  Elec       q    Type
REMARK                         _______ _______ _______ _____ _____    ______ ____
ROOT
ATOM      1  N   UNL     1       5.635   4.342  17.074  0.00  0.00    +0.000 NA
ATOM      2  C   UNL     1       5.466   4.326  18.567  0.00  0.00    +0.000 C 
ATOM      3  C   UNL     1       4.986   5.678  19.124  0.00  0.00    +0.000 C 
ATOM      4  N   UNL     1       3.770   6.093  18.420  0.00  0.00    +0.000 N 
ATOM      5  C   UNL     1       3.936   6.191  16.964  0.00  0.00    +0.000 C 
ATOM      6  C   UNL     1       4.397   4.851  16.388  0.00  0.00    +0.000 C 
ENDROOT
BRANCH   1   8
ATOM      7  O   UNL     1       8.183   4.190  17.006  0.00  0.00    +0.000 OA
ATOM      8  S   UNL     1       7.095   4.991  16.479  0.00  0.00    +0.000 S 
ATOM      9  O   UNL     1       7.064   6.421  16.668  0.00  0.00    +0.000 OA
BRANCH   8  10
ATOM     10  C   UNL     1       6.983   4.699  14.733  0.00  0.00    +0.000 A 
ATOM     11  C   UNL     1       7.777   5.462  13.867  0.00  0.00    +0.000 A 
ATOM     12  C   UNL     1       7.753   5.193  12.500  0.00  0.00    +0.000 A 
ATOM     13  C   UNL     1       6.945   4.168  12.003  0.00  0.00    +0.000 A 
ATOM     14  C   UNL     1       6.150   3.415  12.870  0.00  0.00    +0.000 A 
ATOM     15  C   UNL     1       6.164   3.679  14.238  0.00  0.00    +0.000 A 
ENDBRANCH   8  10
ENDBRANCH   1   8
BRANCH   4  16
ATOM     16  C   UNL     1       2.782   6.875  19.022  0.00  0.00    +0.000 C 
ATOM     17  S   UNL     1       2.293   8.365  18.441  0.00  0.00    +0.000 S 
BRANCH  16  18
ATOM     18  N   UNL     1       2.388   6.283  20.216  0.00  0.00    +0.000 N 
ATOM     19  H   UNL     1       2.137   6.964  20.920  0.00  0.00    +0.000 HD
BRANCH  18  20
ATOM     20  C   UNL     1       1.966   4.962  20.446  0.00  0.00    +0.000 A 
ATOM     21  C   UNL     1       1.144   4.289  19.542  0.00  0.00    +0.000 A 
ATOM     22  C   UNL     1       0.808   2.953  19.760  0.00  0.00    +0.000 A 
ATOM     23  C   UNL     1       1.287   2.285  20.885  0.00  0.00    +0.000 A 
ATOM     24  C   UNL     1       2.117   2.950  21.786  0.00  0.00    +0.000 A 
ATOM     25  C   UNL     1       2.472   4.282  21.559  0.00  0.00    +0.000 A 
ENDBRANCH  18  20
ENDBRANCH  16  18
ENDBRANCH   4  16
TORSDOF 5
ENDMDL
MODEL 4
REMARK VINA RESULT:      -7.9      1.884      3.197
REMARK  Name = 
REMARK  5 active torsions:
REMARK  status: ('A' for Active; 'I' for Inactive)
REMARK    1  A    between atoms: S_2  and  C_4
REMARK    2  A    between atoms: S_2  and  N_10
REMARK    3  A    between atoms: N_13  and  C_14
REMARK    4  A    between atoms: C_14  and  N_16
REMARK    5  A    between atoms: N_16  and  C_17
REMARK                            x       y       z     vdW  Elec       q    Type
REMARK                         _______ _______ _______ _____ _____    ______ ____
ROOT
ATOM      1  N   UNL     1       5.656   4.359  17.087  0.00  0.00    +0.000 NA
ATOM      2  C   UNL     1       5.459   4.340  18.575  0.00  0.00    +0.000 C 
ATOM      3  C   UNL     1       4.970   5.693  19.126  0.00  0.00    +0.000 C 
ATOM      4  N   UNL     1       3.768   6.110  18.401  0.00  0.00    +0.000 N 
ATOM      5  C   UNL     1       3.961   6.211  16.948  0.00  0.00    +0.000 C 
ATOM      6  C   UNL     1       4.431   4.871  16.378  0.00  0.00    +0.000 C 
ENDROOT
BRANCH   1   8
ATOM      7  O   UNL     1       8.205   4.229  17.099  0.00  0.00    +0.000 OA
ATOM      8  S   UNL     1       7.127   5.006  16.520  0.00  0.00    +0.000 S 
ATOM      9  O   UNL     1       7.078   6.441  16.672  0.00  0.00    +0.000 OA
BRANCH   8  10
ATOM     10  C   UNL     1       7.071   4.671  14.778  0.00  0.00    +0.000 A 
ATOM     11  C   UNL     1       6.204   3.677  14.308  0.00  0.00    +0.000 A 
ATOM     12  C   UNL     1       6.097   3.454  12.936  0.00  0.00    +0.000 A 
ATOM     13  C   UNL     1       6.848   4.221  12.043  0.00  0.00    +0.000 A 
ATOM     14  C   UNL     1       7.717   5.206  12.517  0.00  0.00    +0.000 A 
ATOM     15  C   UNL     1       7.834   5.434  13.888  0.00  0.00    +0.000 A 
ENDBRANCH   8  10
ENDBRANCH   1   8
BRANCH   4  16
ATOM     16  C   UNL     1       2.771   6.892  18.985  0.00  0.00    +0.000 C 
ATOM     17  S   UNL     1       2.288   8.380  18.392  0.00  0.00    +0.000 S 
BRANCH  16  18
ATOM     18  N   UNL     1       2.360   6.304  20.175  0.00  0.00    +0.000 N 
ATOM     19  H   UNL     1       2.008   6.981  20.839  0.00  0.00    +0.000 HD
BRANCH  18  20
ATOM     20  C   UNL     1       2.043   4.957  20.428  0.00  0.00    +0.000 A 
ATOM     21  C   UNL     1       2.525   4.292  21.556  0.00  0.00    +0.000 A 
ATOM     22  C   UNL     1       2.128   2.982  21.820  0.00  0.00    +0.000 A 
ATOM     23  C   UNL     1       1.252   2.328  20.956  0.00  0.00    +0.000 A 
ATOM     24  C   UNL     1       0.759   2.992  19.833  0.00  0.00    +0.000 A 
ATOM     25  C   UNL     1       1.139   4.312  19.578  0.00  0.00    +0.000 A 
ENDBRANCH  18  20
ENDBRANCH  16  18
ENDBRANCH   4  16
TORSDOF 5
ENDMDL
MODEL 5
REMARK VINA RESULT:      -7.7      2.093      3.660
REMARK  Name = 
REMARK  5 active torsions:
REMARK  status: ('A' for Active; 'I' for Inactive)
REMARK    1  A    between atoms: S_2  and  C_4
REMARK    2  A    between atoms: S_2  and  N_10
REMARK    3  A    between atoms: N_13  and  C_14
REMARK    4  A    between atoms: C_14  and  N_16
REMARK    5  A    between atoms: N_16  and  C_17
REMARK                            x       y       z     vdW  Elec       q    Type
REMARK                         _______ _______ _______ _____ _____    ______ ____
ROOT
ATOM      1  N   UNL     1       6.360   6.065  16.665  0.00  0.00    +0.000 NA
ATOM      2  C   UNL     1       5.107   6.623  16.053  0.00  0.00    +0.000 C 
ATOM      3  C   UNL     1       3.840   6.232  16.835  0.00  0.00    +0.000 C 
ATOM      4  N   UNL     1       3.999   6.607  18.242  0.00  0.00    +0.000 N 
ATOM      5  C   UNL     1       5.177   6.008  18.882  0.00  0.00    +0.000 C 
ATOM      6  C   UNL     1       6.450   6.399  18.129  0.00  0.00    +0.000 C 
ENDROOT
BRANCH   1   8
ATOM      7  O   UNL     1       5.613   3.623  16.659  0.00  0.00    +0.000 OA
ATOM      8  S   UNL     1       6.743   4.449  16.279  0.00  0.00    +0.000 S 
ATOM      9  O   UNL     1       8.070   4.169  16.773  0.00  0.00    +0.000 OA
BRANCH   8  10
ATOM     10  C   UNL     1       6.847   4.471  14.508  0.00  0.00    +0.000 A 
ATOM     11  C   UNL     1       7.762   5.335  13.894  0.00  0.00    +0.000 A 
ATOM     12  C   UNL     1       7.905   5.309  12.508  0.00  0.00    +0.000 A 
ATOM     13  C   UNL     1       7.142   4.424  11.743  0.00  0.00    +0.000 A 
ATOM     14  C   UNL     1       6.226   3.569  12.359  0.00  0.00    +0.000 A 
ATOM     15  C   UNL     1       6.072   3.591  13.745  0.00  0.00    +0.000 A 
ENDBRANCH   8  10
ENDBRANCH   1   8
BRANCH   4  16
ATOM     16  C   UNL     1       2.919   6.957  19.054  0.00  0.00    +0.000 C 
ATOM     17  S   UNL     1       1.955   8.299  18.793  0.00  0.00    +0.000 S 
BRANCH  16  18
ATOM     18  N   UNL     1       2.870   6.105  20.151  0.00  0.00    +0.000 N 
ATOM     19  H   UNL     1       3.025   6.591  21.024  0.00  0.00    +0.000 HD
BRANCH  18  20
ATOM     20  C   UNL     1       2.311   4.818  20.242  0.00  0.00    +0.000 A 
ATOM     21  C   UNL     1       2.332   4.095  21.435  0.00  0.00    +0.000 A 
ATOM     22  C   UNL     1       1.698   2.855  21.514  0.00  0.00    +0.000 A 
ATOM     23  C   UNL     1       1.046   2.330  20.400  0.00  0.00    +0.000 A 
ATOM     24  C   UNL     1       1.013   3.054  19.209  0.00  0.00    +0.000 A 
ATOM     25  C   UNL     1       1.629   4.305  19.133  0.00  0.00    +0.000 A 
ENDBRANCH  18  20
ENDBRANCH  16  18
ENDBRANCH   4  16
TORSDOF 5
ENDMDL
MODEL 6
REMARK VINA RESULT:      -7.7      2.098      3.421
REMARK  Name = 
REMARK  5 active torsions:
REMARK  status: ('A' for Active; 'I' for Inactive)
REMARK    1  A    between atoms: S_2  and  C_4
REMARK    2  A    between atoms: S_2  and  N_10
REMARK    3  A    between atoms: N_13  and  C_14
REMARK    4  A    between atoms: C_14  and  N_16
REMARK    5  A    between atoms: N_16  and  C_17
REMARK                            x       y       z     vdW  Elec       q    Type
REMARK                         _______ _______ _______ _____ _____    ______ ____
ROOT
ATOM      1  N   UNL     1       6.366   6.064  16.669  0.00  0.00    +0.000 NA
ATOM      2  C   UNL     1       5.131   6.622  16.021  0.00  0.00    +0.000 C 
ATOM      3  C   UNL     1       3.844   6.259  16.785  0.00  0.00    +0.000 C 
ATOM      4  N   UNL     1       3.979   6.661  18.187  0.00  0.00    +0.000 N 
ATOM      5  C   UNL     1       5.138   6.064  18.863  0.00  0.00    +0.000 C 
ATOM      6  C   UNL     1       6.430   6.427  18.128  0.00  0.00    +0.000 C 
ENDROOT
BRANCH   1   8
ATOM      7  O   UNL     1       5.578   3.636  16.650  0.00  0.00    +0.000 OA
ATOM      8  S   UNL     1       6.741   4.438  16.324  0.00  0.00    +0.000 S 
ATOM      9  O   UNL     1       8.033   4.141  16.894  0.00  0.00    +0.000 OA
BRANCH   8  10
ATOM     10  C   UNL     1       6.943   4.436  14.561  0.00  0.00    +0.000 A 
ATOM     11  C   UNL     1       6.156   3.572  13.791  0.00  0.00    +0.000 A 
ATOM     12  C   UNL     1       6.252   3.612  12.401  0.00  0.00    +0.000 A 
ATOM     13  C   UNL     1       7.126   4.512  11.787  0.00  0.00    +0.000 A 
ATOM     14  C   UNL     1       7.915   5.367  12.560  0.00  0.00    +0.000 A 
ATOM     15  C   UNL     1       7.828   5.331  13.951  0.00  0.00    +0.000 A 
ENDBRANCH   8  10
ENDBRANCH   1   8
BRANCH   4  16
ATOM     16  C   UNL     1       2.886   7.037  18.969  0.00  0.00    +0.000 C 
ATOM     17  S   UNL     1       1.942   8.383  18.663  0.00  0.00    +0.000 S 
BRANCH  16  18
ATOM     18  N   UNL     1       2.806   6.206  20.081  0.00  0.00    +0.000 N 
ATOM     19  H   UNL     1       2.977   6.702  20.946  0.00  0.00    +0.000 HD
BRANCH  18  20
ATOM     20  C   UNL     1       2.201   4.942  20.194  0.00  0.00    +0.000 A 
ATOM     21  C   UNL     1       1.583   4.328  19.105  0.00  0.00    +0.000 A 
ATOM     22  C   UNL     1       1.063   3.040  19.229  0.00  0.00    +0.000 A 
ATOM     23  C   UNL     1       1.153   2.363  20.443  0.00  0.00    +0.000 A 
ATOM     24  C   UNL     1       1.779   2.968  21.532  0.00  0.00    +0.000 A 
ATOM     25  C   UNL     1       2.320   4.250  21.404  0.00  0.00    +0.000 A 
ENDBRANCH  18  20
ENDBRANCH  16  18
ENDBRANCH   4  16
TORSDOF 5
ENDMDL
MODEL 7
REMARK VINA RESULT:      -7.5      4.940      9.835
REMARK  Name = 
REMARK  5 active torsions:
REMARK  status: ('A' for Active; 'I' for Inactive)
REMARK    1  A    between atoms: S_2  and  C_4
REMARK    2  A    between atoms: S_2  and  N_10
REMARK    3  A    between atoms: N_13  and  C_14
REMARK    4  A    between atoms: C_14  and  N_16
REMARK    5  A    between atoms: N_16  and  C_17
REMARK                            x       y       z     vdW  Elec       q    Type
REMARK                         _______ _______ _______ _____ _____    ______ ____
ROOT
ATOM      1  N   UNL     1      -0.680   9.861  20.960  0.00  0.00    +0.000 NA
ATOM      2  C   UNL     1      -0.231  10.045  19.539  0.00  0.00    +0.000 C 
ATOM      3  C   UNL     1       1.247   9.668  19.330  0.00  0.00    +0.000 C 
ATOM      4  N   UNL     1       1.480   8.310  19.826  0.00  0.00    +0.000 N 
ATOM      5  C   UNL     1       1.120   8.128  21.238  0.00  0.00    +0.000 C 
ATOM      6  C   UNL     1      -0.351   8.482  21.464  0.00  0.00    +0.000 C 
ENDROOT
BRANCH   1   8
ATOM      7  O   UNL     1       0.693  11.963  21.424  0.00  0.00    +0.000 OA
ATOM      8  S   UNL     1      -0.310  11.121  22.046  0.00  0.00    +0.000 S 
ATOM      9  O   UNL     1      -0.093  10.544  23.351  0.00  0.00    +0.000 OA
BRANCH   8  10
ATOM     10  C   UNL     1      -1.828  12.036  22.135  0.00  0.00    +0.000 A 
ATOM     11  C   UNL     1      -2.281  12.708  20.993  0.00  0.00    +0.000 A 
ATOM     12  C   UNL     1      -3.508  13.369  21.027  0.00  0.00    +0.000 A 
ATOM     13  C   UNL     1      -4.275  13.355  22.193  0.00  0.00    +0.000 A 
ATOM     14  C   UNL     1      -3.816  12.690  23.333  0.00  0.00    +0.000 A 
ATOM     15  C   UNL     1      -2.589  12.030  23.309  0.00  0.00    +0.000 A 
ENDBRANCH   8  10
ENDBRANCH   1   8
BRANCH   4  16
ATOM     16  C   UNL     1       2.451   7.467  19.284  0.00  0.00    +0.000 C 
ATOM     17  S   UNL     1       3.103   7.661  17.756  0.00  0.00    +0.000 S 
BRANCH  16  18
ATOM     18  N   UNL     1       2.674   6.402  20.149  0.00  0.00    +0.000 N 
ATOM     19  H   UNL     1       2.808   6.704  21.105  0.00  0.00    +0.000 HD
BRANCH  18  20
ATOM     20  C   UNL     1       2.392   5.038  19.957  0.00  0.00    +0.000 A 
ATOM     21  C   UNL     1       3.294   4.188  19.318  0.00  0.00    +0.000 A 
ATOM     22  C   UNL     1       3.021   2.825  19.214  0.00  0.00    +0.000 A 
ATOM     23  C   UNL     1       1.841   2.305  19.744  0.00  0.00    +0.000 A 
ATOM     24  C   UNL     1       0.941   3.149  20.394  0.00  0.00    +0.000 A 
ATOM     25  C   UNL     1       1.223   4.512  20.517  0.00  0.00    +0.000 A 
ENDBRANCH  18  20
ENDBRANCH  16  18
ENDBRANCH   4  16
TORSDOF 5
ENDMDL
MODEL 8
REMARK VINA RESULT:      -7.5      1.162      1.937
REMARK  Name = 
REMARK  5 active torsions:
REMARK  status: ('A' for Active; 'I' for Inactive)
REMARK    1  A    between atoms: S_2  and  C_4
REMARK    2  A    between atoms: S_2  and  N_10
REMARK    3  A    between atoms: N_13  and  C_14
REMARK    4  A    between atoms: C_14  and  N_16
REMARK    5  A    between atoms: N_16  and  C_17
REMARK                            x       y       z     vdW  Elec       q    Type
REMARK                         _______ _______ _______ _____ _____    ______ ____
ROOT
ATOM      1  N   UNL     1       5.900   5.707  16.807  0.00  0.00    +0.000 NA
ATOM      2  C   UNL     1       4.456   5.858  16.426  0.00  0.00    +0.000 C 
ATOM      3  C   UNL     1       3.506   5.145  17.406  0.00  0.00    +0.000 C 
ATOM      4  N   UNL     1       3.782   5.600  18.771  0.00  0.00    +0.000 N 
ATOM      5  C   UNL     1       5.173   5.390  19.192  0.00  0.00    +0.000 C 
ATOM      6  C   UNL     1       6.133   6.104  18.240  0.00  0.00    +0.000 C 
ENDROOT
BRANCH   1   8
ATOM      7  O   UNL     1       5.746   3.167  16.595  0.00  0.00    +0.000 OA
ATOM      8  S   UNL     1       6.666   4.258  16.338  0.00  0.00    +0.000 S 
ATOM      9  O   UNL     1       8.000   4.254  16.889  0.00  0.00    +0.000 OA
BRANCH   8  10
ATOM     10  C   UNL     1       6.836   4.442  14.582  0.00  0.00    +0.000 A 
ATOM     11  C   UNL     1       7.702   5.423  14.084  0.00  0.00    +0.000 A 
ATOM     12  C   UNL     1       7.900   5.529  12.708  0.00  0.00    +0.000 A 
ATOM     13  C   UNL     1       7.239   4.659  11.838  0.00  0.00    +0.000 A 
ATOM     14  C   UNL     1       6.371   3.687  12.339  0.00  0.00    +0.000 A 
ATOM     15  C   UNL     1       6.163   3.576  13.713  0.00  0.00    +0.000 A 
ENDBRANCH   8  10
ENDBRANCH   1   8
BRANCH   4  16
ATOM     16  C   UNL     1       2.798   5.652  19.760  0.00  0.00    +0.000 C 
ATOM     17  S   UNL     1       1.797   4.368  20.145  0.00  0.00    +0.000 S 
BRANCH  16  18
ATOM     18  N   UNL     1       2.709   6.947  20.255  0.00  0.00    +0.000 N 
ATOM     19  H   UNL     1       3.469   7.173  20.884  0.00  0.00    +0.000 HD
BRANCH  18  20
ATOM     20  C   UNL     1       1.969   8.033  19.755  0.00  0.00    +0.000 A 
ATOM     21  C   UNL     1       2.052   8.418  18.416  0.00  0.00    +0.000 A 
ATOM     22  C   UNL     1       1.246   9.448  17.932  0.00  0.00    +0.000 A 
ATOM     23  C   UNL     1       0.357  10.101  18.784  0.00  0.00    +0.000 A 
ATOM     24  C   UNL     1       0.264   9.712  20.120  0.00  0.00    +0.000 A 
ATOM     25  C   UNL     1       1.055   8.667  20.602  0.00  0.00    +0.000 A 
ENDBRANCH  18  20
ENDBRANCH  16  18
ENDBRANCH   4  16
TORSDOF 5
ENDMDL
MODEL 9
REMARK VINA RESULT:      -7.4      4.926      9.475
REMARK  Name = 
REMARK  5 active torsions:
REMARK  status: ('A' for Active; 'I' for Inactive)
REMARK    1  A    between atoms: S_2  and  C_4
REMARK    2  A    between atoms: S_2  and  N_10
REMARK    3  A    between atoms: N_13  and  C_14
REMARK    4  A    between atoms: C_14  and  N_16
REMARK    5  A    between atoms: N_16  and  C_17
REMARK                            x       y       z     vdW  Elec       q    Type
REMARK                         _______ _______ _______ _____ _____    ______ ____
ROOT
ATOM      1  N   UNL     1      -0.287  10.169  19.819  0.00  0.00    +0.000 NA
ATOM      2  C   UNL     1       0.194   9.971  18.410  0.00  0.00    +0.000 C 
ATOM      3  C   UNL     1       1.659   9.501  18.344  0.00  0.00    +0.000 C 
ATOM      4  N   UNL     1       1.827   8.306  19.173  0.00  0.00    +0.000 N 
ATOM      5  C   UNL     1       1.434   8.501  20.575  0.00  0.00    +0.000 C 
ATOM      6  C   UNL     1      -0.025   8.952  20.664  0.00  0.00    +0.000 C 
ENDROOT
BRANCH   1   8
ATOM      7  O   UNL     1       0.373  12.616  19.511  0.00  0.00    +0.000 OA
ATOM      8  S   UNL     1       0.115  11.650  20.561  0.00  0.00    +0.000 S 
ATOM      9  O   UNL     1       1.092  11.389  21.590  0.00  0.00    +0.000 OA
BRANCH   8  10
ATOM     10  C   UNL     1      -1.389  12.110  21.384  0.00  0.00    +0.000 A 
ATOM     11  C   UNL     1      -2.402  12.731  20.644  0.00  0.00    +0.000 A 
ATOM     12  C   UNL     1      -3.616  13.031  21.261  0.00  0.00    +0.000 A 
ATOM     13  C   UNL     1      -3.814  12.709  22.605  0.00  0.00    +0.000 A 
ATOM     14  C   UNL     1      -2.798  12.096  23.341  0.00  0.00    +0.000 A 
ATOM     15  C   UNL     1      -1.579  11.796  22.734  0.00  0.00    +0.000 A 
ENDBRANCH   8  10
ENDBRANCH   1   8
BRANCH   4  16
ATOM     16  C   UNL     1       2.772   7.319  18.889  0.00  0.00    +0.000 C 
ATOM     17  S   UNL     1       3.699   7.293  17.497  0.00  0.00    +0.000 S 
BRANCH  16  18
ATOM     18  N   UNL     1       2.714   6.329  19.863  0.00  0.00    +0.000 N 
ATOM     19  H   UNL     1       2.852   6.696  20.795  0.00  0.00    +0.000 HD
BRANCH  18  20
ATOM     20  C   UNL     1       2.163   5.039  19.775  0.00  0.00    +0.000 A 
ATOM     21  C   UNL     1       1.763   4.335  20.912  0.00  0.00    +0.000 A 
ATOM     22  C   UNL     1       1.147   3.091  20.786  0.00  0.00    +0.000 A 
ATOM     23  C   UNL     1       0.932   2.541  19.523  0.00  0.00    +0.000 A 
ATOM     24  C   UNL     1       1.319   3.245  18.384  0.00  0.00    +0.000 A 
ATOM     25  C   UNL     1       1.918   4.501  18.507  0.00  0.00    +0.000 A 
ENDBRANCH  18  20
ENDBRANCH  16  18
ENDBRANCH   4  16
TORSDOF 5
ENDMDL
