MODEL 1
REMARK VINA RESULT:      -7.0      0.000      0.000
REMARK  Name = 
REMARK  6 active torsions:
REMARK  status: ('A' for Active; 'I' for Inactive)
REMARK    1  A    between atoms: C_1  and  C_2
REMARK    2  A    between atoms: C_2  and  C_3
REMARK    3  A    between atoms: C_3  and  S_4
REMARK    4  A    between atoms: S_4  and  C_5
REMARK    5  A    between atoms: C_8  and  C_9
REMARK    6  A    between atoms: N_11  and  C_12
REMARK                            x       y       z     vdW  Elec       q    Type
REMARK                         _______ _______ _______ _____ _____    ______ ____
ROOT
ATOM      1  C   UNL     1       4.921   4.597  18.086  0.00  0.00    +0.000 C 
ATOM      2  O   UNL     1       5.391   5.213  19.037  0.00  0.00    +0.000 OA
ATOM      3  N   UNL     1       3.833   3.740  18.140  0.00  0.00    +0.000 N 
ATOM      4  H   UNL     1       3.676   3.106  17.365  0.00  0.00    +0.000 HD
ENDROOT
BRANCH   3   5
ATOM      5  C   UNL     1       3.089   3.462  19.317  0.00  0.00    +0.000 A 
ATOM      6  C   UNL     1       3.618   2.783  20.421  0.00  0.00    +0.000 A 
ATOM      7  C   UNL     1       2.803   2.463  21.513  0.00  0.00    +0.000 A 
ATOM      8  C   UNL     1       1.466   2.836  21.507  0.00  0.00    +0.000 A 
ATOM      9  F   UNL     1       0.686   2.500  22.542  0.00  0.00    +0.000 F 
ATOM     10  C   UNL     1       0.927   3.547  20.444  0.00  0.00    +0.000 A 
ATOM     11  C   UNL     1       1.747   3.867  19.365  0.00  0.00    +0.000 A 
ATOM     12  F   UNL     1       1.225   4.547  18.332  0.00  0.00    +0.000 F 
ENDBRANCH   3   5
BRANCH   1  16
ATOM     13  C   UNL     1       6.751   4.703  14.278  0.00  0.00    +0.000 A 
ATOM     14  C   UNL     1       7.502   5.165  15.357  0.00  0.00    +0.000 A 
ATOM     15  C   UNL     1       6.926   5.187  16.634  0.00  0.00    +0.000 A 
ATOM     16  C   UNL     1       5.621   4.728  16.791  0.00  0.00    +0.000 A 
ATOM     17  C   UNL     1       4.952   4.278  15.657  0.00  0.00    +0.000 A 
ATOM     18  N   UNL     1       5.481   4.271  14.411  0.00  0.00    +0.000 NA
BRANCH  13  19
ATOM     19  S   UNL     1       7.503   4.585  12.667  0.00  0.00    +0.000 S 
BRANCH  19  20
ATOM     20  C   UNL     1       6.401   3.352  11.887  0.00  0.00    +0.000 C 
BRANCH  20  22
ATOM     21  C   UNL     1       6.412   0.961  11.087  0.00  0.00    +0.000 C 
ATOM     22  C   UNL     1       7.238   2.225  11.286  0.00  0.00    +0.000 C 
ENDBRANCH  20  22
ENDBRANCH  19  20
ENDBRANCH  13  19
ENDBRANCH   1  16
TORSDOF 5
ENDMDL
MODEL 2
REMARK VINA RESULT:      -7.0      5.485      7.590
REMARK  Name = 
REMARK  6 active torsions:
REMARK  status: ('A' for Active; 'I' for Inactive)
REMARK    1  A    between atoms: C_1  and  C_2
REMARK    2  A    between atoms: C_2  and  C_3
REMARK    3  A    between atoms: C_3  and  S_4
REMARK    4  A    between atoms: S_4  and  C_5
REMARK    5  A    between atoms: C_8  and  C_9
REMARK    6  A    between atoms: N_11  and  C_12
REMARK                            x       y       z     vdW  Elec       q    Type
REMARK                         _______ _______ _______ _____ _____    ______ ____
ROOT
ATOM      1  C   UNL     1       2.780   6.864  18.552  0.00  0.00    +0.000 C 
ATOM      2  O   UNL     1       3.720   6.791  17.768  0.00  0.00    +0.000 OA
ATOM      3  N   UNL     1       2.190   5.794  19.205  0.00  0.00    +0.000 N 
ATOM      4  H   UNL     1       1.284   5.928  19.637  0.00  0.00    +0.000 HD
ENDROOT
BRANCH   3   5
ATOM      5  C   UNL     1       2.608   4.443  19.068  0.00  0.00    +0.000 A 
ATOM      6  C   UNL     1       3.596   3.856  19.868  0.00  0.00    +0.000 A 
ATOM      7  C   UNL     1       4.023   2.547  19.620  0.00  0.00    +0.000 A 
ATOM      8  C   UNL     1       3.452   1.821  18.584  0.00  0.00    +0.000 A 
ATOM      9  F   UNL     1       3.887   0.579  18.335  0.00  0.00    +0.000 F 
ATOM     10  C   UNL     1       2.441   2.364  17.803  0.00  0.00    +0.000 A 
ATOM     11  C   UNL     1       2.018   3.665  18.062  0.00  0.00    +0.000 A 
ATOM     12  F   UNL     1       1.046   4.194  17.301  0.00  0.00    +0.000 F 
ENDBRANCH   3   5
BRANCH   1  16
ATOM     13  C   UNL     1       0.842  10.537  19.340  0.00  0.00    +0.000 A 
ATOM     14  C   UNL     1       1.481  10.407  18.108  0.00  0.00    +0.000 A 
ATOM     15  C   UNL     1       2.171   9.223  17.815  0.00  0.00    +0.000 A 
ATOM     16  C   UNL     1       2.183   8.200  18.760  0.00  0.00    +0.000 A 
ATOM     17  C   UNL     1       1.511   8.418  19.959  0.00  0.00    +0.000 A 
ATOM     18  N   UNL     1       0.859   9.563  20.272  0.00  0.00    +0.000 NA
BRANCH  13  19
ATOM     19  S   UNL     1      -0.114  12.000  19.687  0.00  0.00    +0.000 S 
BRANCH  19  20
ATOM     20  C   UNL     1      -1.787  11.400  19.258  0.00  0.00    +0.000 C 
BRANCH  20  22
ATOM     21  C   UNL     1      -2.094  10.092  17.125  0.00  0.00    +0.000 C 
ATOM     22  C   UNL     1      -1.987  11.478  17.746  0.00  0.00    +0.000 C 
ENDBRANCH  20  22
ENDBRANCH  19  20
ENDBRANCH  13  19
ENDBRANCH   1  16
TORSDOF 5
ENDMDL
MODEL 3
REMARK VINA RESULT:      -6.9      0.916      1.228
REMARK  Name = 
REMARK  6 active torsions:
REMARK  status: ('A' for Active; 'I' for Inactive)
REMARK    1  A    between atoms: C_1  and  C_2
REMARK    2  A    between atoms: C_2  and  C_3
REMARK    3  A    between atoms: C_3  and  S_4
REMARK    4  A    between atoms: S_4  and  C_5
REMARK    5  A    between atoms: C_8  and  C_9
REMARK    6  A    between atoms: N_11  and  C_12
REMARK                            x       y       z     vdW  Elec       q    Type
REMARK                         _______ _______ _______ _____ _____    ______ ____
ROOT
ATOM      1  C   UNL     1       5.004   4.332  18.170  0.00  0.00    +0.000 C 
ATOM      2  O   UNL     1       5.645   4.679  19.156  0.00  0.00    +0.000 OA
ATOM      3  N   UNL     1       3.762   3.718  18.192  0.00  0.00    +0.000 N 
ATOM      4  H   UNL     1       3.430   3.262  17.350  0.00  0.00    +0.000 HD
ENDROOT
BRANCH   3   5
ATOM      5  C   UNL     1       3.039   3.413  19.376  0.00  0.00    +0.000 A 
ATOM      6  C   UNL     1       3.582   2.696  20.448  0.00  0.00    +0.000 A 
ATOM      7  C   UNL     1       2.787   2.353  21.547  0.00  0.00    +0.000 A 
ATOM      8  C   UNL     1       1.454   2.742  21.580  0.00  0.00    +0.000 A 
ATOM      9  F   UNL     1       0.692   2.384  22.622  0.00  0.00    +0.000 F 
ATOM     10  C   UNL     1       0.902   3.490  20.551  0.00  0.00    +0.000 A 
ATOM     11  C   UNL     1       1.703   3.832  19.464  0.00  0.00    +0.000 A 
ATOM     12  F   UNL     1       1.167   4.549  18.463  0.00  0.00    +0.000 F 
ENDBRANCH   3   5
BRANCH   1  16
ATOM     13  C   UNL     1       7.112   4.977  14.564  0.00  0.00    +0.000 A 
ATOM     14  C   UNL     1       5.730   5.151  14.532  0.00  0.00    +0.000 A 
ATOM     15  C   UNL     1       4.981   4.912  15.692  0.00  0.00    +0.000 A 
ATOM     16  C   UNL     1       5.645   4.521  16.852  0.00  0.00    +0.000 A 
ATOM     17  C   UNL     1       7.028   4.380  16.791  0.00  0.00    +0.000 A 
ATOM     18  N   UNL     1       7.768   4.584  15.675  0.00  0.00    +0.000 NA
BRANCH  13  19
ATOM     19  S   UNL     1       8.084   5.368  13.123  0.00  0.00    +0.000 S 
BRANCH  19  20
ATOM     20  C   UNL     1       7.039   4.626  11.819  0.00  0.00    +0.000 C 
BRANCH  20  22
ATOM     21  C   UNL     1       5.375   2.733  11.761  0.00  0.00    +0.000 C 
ATOM     22  C   UNL     1       6.789   3.154  12.139  0.00  0.00    +0.000 C 
ENDBRANCH  20  22
ENDBRANCH  19  20
ENDBRANCH  13  19
ENDBRANCH   1  16
TORSDOF 5
ENDMDL
MODEL 4
REMARK VINA RESULT:      -6.8      0.958      1.036
REMARK  Name = 
REMARK  6 active torsions:
REMARK  status: ('A' for Active; 'I' for Inactive)
REMARK    1  A    between atoms: C_1  and  C_2
REMARK    2  A    between atoms: C_2  and  C_3
REMARK    3  A    between atoms: C_3  and  S_4
REMARK    4  A    between atoms: S_4  and  C_5
REMARK    5  A    between atoms: C_8  and  C_9
REMARK    6  A    between atoms: N_11  and  C_12
REMARK                            x       y       z     vdW  Elec       q    Type
REMARK                         _______ _______ _______ _____ _____    ______ ____
ROOT
ATOM      1  C   UNL     1       4.897   4.748  18.255  0.00  0.00    +0.000 C 
ATOM      2  O   UNL     1       5.229   5.462  19.194  0.00  0.00    +0.000 OA
ATOM      3  N   UNL     1       3.913   3.773  18.292  0.00  0.00    +0.000 N 
ATOM      4  H   UNL     1       3.881   3.087  17.548  0.00  0.00    +0.000 HD
ENDROOT
BRANCH   3   5
ATOM      5  C   UNL     1       3.128   3.470  19.437  0.00  0.00    +0.000 A 
ATOM      6  C   UNL     1       3.609   2.742  20.531  0.00  0.00    +0.000 A 
ATOM      7  C   UNL     1       2.757   2.403  21.586  0.00  0.00    +0.000 A 
ATOM      8  C   UNL     1       1.427   2.803  21.554  0.00  0.00    +0.000 A 
ATOM      9  F   UNL     1       0.610   2.448  22.554  0.00  0.00    +0.000 F 
ATOM     10  C   UNL     1       0.935   3.562  20.501  0.00  0.00    +0.000 A 
ATOM     11  C   UNL     1       1.794   3.901  19.459  0.00  0.00    +0.000 A 
ATOM     12  F   UNL     1       1.316   4.627  18.436  0.00  0.00    +0.000 F 
ENDBRANCH   3   5
BRANCH   1  16
ATOM     13  C   UNL     1       6.794   5.188  14.503  0.00  0.00    +0.000 A 
ATOM     14  C   UNL     1       7.454   4.424  15.464  0.00  0.00    +0.000 A 
ATOM     15  C   UNL     1       6.885   4.280  16.736  0.00  0.00    +0.000 A 
ATOM     16  C   UNL     1       5.663   4.893  16.999  0.00  0.00    +0.000 A 
ATOM     17  C   UNL     1       5.075   5.631  15.976  0.00  0.00    +0.000 A 
ATOM     18  N   UNL     1       5.619   5.802  14.748  0.00  0.00    +0.000 NA
BRANCH  13  19
ATOM     19  S   UNL     1       7.461   5.302  12.855  0.00  0.00    +0.000 S 
BRANCH  19  20
ATOM     20  C   UNL     1       6.902   3.703  12.170  0.00  0.00    +0.000 C 
BRANCH  20  22
ATOM     21  C   UNL     1       4.539   3.213  11.439  0.00  0.00    +0.000 C 
ATOM     22  C   UNL     1       5.471   3.422  12.625  0.00  0.00    +0.000 C 
ENDBRANCH  20  22
ENDBRANCH  19  20
ENDBRANCH  13  19
ENDBRANCH   1  16
TORSDOF 5
ENDMDL
MODEL 5
REMARK VINA RESULT:      -6.8      1.021      1.181
REMARK  Name = 
REMARK  6 active torsions:
REMARK  status: ('A' for Active; 'I' for Inactive)
REMARK    1  A    between atoms: C_1  and  C_2
REMARK    2  A    between atoms: C_2  and  C_3
REMARK    3  A    between atoms: C_3  and  S_4
REMARK    4  A    between atoms: S_4  and  C_5
REMARK    5  A    between atoms: C_8  and  C_9
REMARK    6  A    between atoms: N_11  and  C_12
REMARK                            x       y       z     vdW  Elec       q    Type
REMARK                         _______ _______ _______ _____ _____    ______ ____
ROOT
ATOM      1  C   UNL     1       5.096   4.214  18.000  0.00  0.00    +0.000 C 
ATOM      2  O   UNL     1       5.823   4.127  18.984  0.00  0.00    +0.000 OA
ATOM      3  N   UNL     1       3.722   4.039  17.995  0.00  0.00    +0.000 N 
ATOM      4  H   UNL     1       3.253   3.898  17.108  0.00  0.00    +0.000 HD
ENDROOT
BRANCH   3   5
ATOM      5  C   UNL     1       2.947   3.744  19.149  0.00  0.00    +0.000 A 
ATOM      6  C   UNL     1       2.604   4.700  20.112  0.00  0.00    +0.000 A 
ATOM      7  C   UNL     1       1.915   4.323  21.270  0.00  0.00    +0.000 A 
ATOM      8  C   UNL     1       1.557   2.994  21.456  0.00  0.00    +0.000 A 
ATOM      9  F   UNL     1       0.924   2.637  22.581  0.00  0.00    +0.000 F 
ATOM     10  C   UNL     1       1.847   2.035  20.497  0.00  0.00    +0.000 A 
ATOM     11  C   UNL     1       2.527   2.421  19.345  0.00  0.00    +0.000 A 
ATOM     12  F   UNL     1       2.817   1.491  18.420  0.00  0.00    +0.000 F 
ENDBRANCH   3   5
BRANCH   1  16
ATOM     13  C   UNL     1       6.779   4.677  14.150  0.00  0.00    +0.000 A 
ATOM     14  C   UNL     1       7.615   4.906  15.241  0.00  0.00    +0.000 A 
ATOM     15  C   UNL     1       7.094   4.804  16.538  0.00  0.00    +0.000 A 
ATOM     16  C   UNL     1       5.755   4.457  16.700  0.00  0.00    +0.000 A 
ATOM     17  C   UNL     1       4.999   4.241  15.552  0.00  0.00    +0.000 A 
ATOM     18  N   UNL     1       5.476   4.358  14.290  0.00  0.00    +0.000 NA
BRANCH  13  19
ATOM     19  S   UNL     1       7.451   4.715  12.501  0.00  0.00    +0.000 S 
BRANCH  19  20
ATOM     20  C   UNL     1       6.440   3.412  11.711  0.00  0.00    +0.000 C 
BRANCH  20  22
ATOM     21  C   UNL     1       6.522   1.012  10.946  0.00  0.00    +0.000 C 
ATOM     22  C   UNL     1       7.338   2.249  11.294  0.00  0.00    +0.000 C 
ENDBRANCH  20  22
ENDBRANCH  19  20
ENDBRANCH  13  19
ENDBRANCH   1  16
TORSDOF 5
ENDMDL
MODEL 6
REMARK VINA RESULT:      -6.8      4.768      6.038
REMARK  Name = 
REMARK  6 active torsions:
REMARK  status: ('A' for Active; 'I' for Inactive)
REMARK    1  A    between atoms: C_1  and  C_2
REMARK    2  A    between atoms: C_2  and  C_3
REMARK    3  A    between atoms: C_3  and  S_4
REMARK    4  A    between atoms: S_4  and  C_5
REMARK    5  A    between atoms: C_8  and  C_9
REMARK    6  A    between atoms: N_11  and  C_12
REMARK                            x       y       z     vdW  Elec       q    Type
REMARK                         _______ _______ _______ _____ _____    ______ ____
ROOT
ATOM      1  C   UNL     1       2.079   7.042  19.979  0.00  0.00    +0.000 C 
ATOM      2  O   UNL     1       1.513   6.230  20.703  0.00  0.00    +0.000 OA
ATOM      3  N   UNL     1       1.923   8.418  20.035  0.00  0.00    +0.000 N 
ATOM      4  H   UNL     1       2.244   8.975  19.252  0.00  0.00    +0.000 HD
ENDROOT
BRANCH   3   5
ATOM      5  C   UNL     1       1.084   9.092  20.962  0.00  0.00    +0.000 A 
ATOM      6  C   UNL     1       1.143   8.889  22.346  0.00  0.00    +0.000 A 
ATOM      7  C   UNL     1       0.227   9.519  23.194  0.00  0.00    +0.000 A 
ATOM      8  C   UNL     1      -0.738  10.362  22.661  0.00  0.00    +0.000 A 
ATOM      9  F   UNL     1      -1.630  10.938  23.478  0.00  0.00    +0.000 F 
ATOM     10  C   UNL     1      -0.792  10.614  21.298  0.00  0.00    +0.000 A 
ATOM     11  C   UNL     1       0.128   9.988  20.462  0.00  0.00    +0.000 A 
ATOM     12  F   UNL     1       0.070  10.224  19.141  0.00  0.00    +0.000 F 
ENDBRANCH   3   5
BRANCH   1  16
ATOM     13  C   UNL     1       4.697   5.290  17.161  0.00  0.00    +0.000 A 
ATOM     14  C   UNL     1       4.318   6.613  16.940  0.00  0.00    +0.000 A 
ATOM     15  C   UNL     1       3.421   7.227  17.825  0.00  0.00    +0.000 A 
ATOM     16  C   UNL     1       2.946   6.499  18.913  0.00  0.00    +0.000 A 
ATOM     17  C   UNL     1       3.386   5.186  19.056  0.00  0.00    +0.000 A 
ATOM     18  N   UNL     1       4.233   4.567  18.200  0.00  0.00    +0.000 NA
BRANCH  13  19
ATOM     19  S   UNL     1       5.907   4.530  16.096  0.00  0.00    +0.000 S 
BRANCH  19  20
ATOM     20  C   UNL     1       7.351   4.504  17.217  0.00  0.00    +0.000 C 
BRANCH  20  22
ATOM     21  C   UNL     1       7.817   5.801  19.328  0.00  0.00    +0.000 C 
ATOM     22  C   UNL     1       7.548   5.888  17.832  0.00  0.00    +0.000 C 
ENDBRANCH  20  22
ENDBRANCH  19  20
ENDBRANCH  13  19
ENDBRANCH   1  16
TORSDOF 5
ENDMDL
MODEL 7
REMARK VINA RESULT:      -6.8      1.255      1.842
REMARK  Name = 
REMARK  6 active torsions:
REMARK  status: ('A' for Active; 'I' for Inactive)
REMARK    1  A    between atoms: C_1  and  C_2
REMARK    2  A    between atoms: C_2  and  C_3
REMARK    3  A    between atoms: C_3  and  S_4
REMARK    4  A    between atoms: S_4  and  C_5
REMARK    5  A    between atoms: C_8  and  C_9
REMARK    6  A    between atoms: N_11  and  C_12
REMARK                            x       y       z     vdW  Elec       q    Type
REMARK                         _______ _______ _______ _____ _____    ______ ____
ROOT
ATOM      1  C   UNL     1       4.795   4.309  17.821  0.00  0.00    +0.000 C 
ATOM      2  O   UNL     1       5.276   4.930  18.762  0.00  0.00    +0.000 OA
ATOM      3  N   UNL     1       3.673   3.499  17.879  0.00  0.00    +0.000 N 
ATOM      4  H   UNL     1       3.500   2.853  17.118  0.00  0.00    +0.000 HD
ENDROOT
BRANCH   3   5
ATOM      5  C   UNL     1       2.901   3.282  19.052  0.00  0.00    +0.000 A 
ATOM      6  C   UNL     1       1.612   3.796  19.234  0.00  0.00    +0.000 A 
ATOM      7  C   UNL     1       0.943   3.620  20.449  0.00  0.00    +0.000 A 
ATOM      8  C   UNL     1       1.557   2.916  21.477  0.00  0.00    +0.000 A 
ATOM      9  F   UNL     1       0.922   2.778  22.648  0.00  0.00    +0.000 F 
ATOM     10  C   UNL     1       2.817   2.360  21.309  0.00  0.00    +0.000 A 
ATOM     11  C   UNL     1       3.472   2.535  20.093  0.00  0.00    +0.000 A 
ATOM     12  F   UNL     1       4.695   2.005  19.932  0.00  0.00    +0.000 F 
ENDBRANCH   3   5
BRANCH   1  16
ATOM     13  C   UNL     1       7.005   4.787  14.250  0.00  0.00    +0.000 A 
ATOM     14  C   UNL     1       5.764   4.160  14.150  0.00  0.00    +0.000 A 
ATOM     15  C   UNL     1       5.011   3.943  15.311  0.00  0.00    +0.000 A 
ATOM     16  C   UNL     1       5.518   4.378  16.533  0.00  0.00    +0.000 A 
ATOM     17  C   UNL     1       6.762   5.001  16.533  0.00  0.00    +0.000 A 
ATOM     18  N   UNL     1       7.517   5.199  15.427  0.00  0.00    +0.000 NA
BRANCH  13  19
ATOM     19  S   UNL     1       7.930   5.151  12.771  0.00  0.00    +0.000 S 
BRANCH  19  20
ATOM     20  C   UNL     1       6.978   4.182  11.549  0.00  0.00    +0.000 C 
BRANCH  20  22
ATOM     21  C   UNL     1       6.378   1.755  11.217  0.00  0.00    +0.000 C 
ATOM     22  C   UNL     1       7.495   2.745  11.518  0.00  0.00    +0.000 C 
ENDBRANCH  20  22
ENDBRANCH  19  20
ENDBRANCH  13  19
ENDBRANCH   1  16
TORSDOF 5
ENDMDL
MODEL 8
REMARK VINA RESULT:      -6.7      5.762      8.602
REMARK  Name = 
REMARK  6 active torsions:
REMARK  status: ('A' for Active; 'I' for Inactive)
REMARK    1  A    between atoms: C_1  and  C_2
REMARK    2  A    between atoms: C_2  and  C_3
REMARK    3  A    between atoms: C_3  and  S_4
REMARK    4  A    between atoms: S_4  and  C_5
REMARK    5  A    between atoms: C_8  and  C_9
REMARK    6  A    between atoms: N_11  and  C_12
REMARK                            x       y       z     vdW  Elec       q    Type
REMARK                         _______ _______ _______ _____ _____    ______ ____
ROOT
ATOM      1  C   UNL     1       2.601   6.870  18.718  0.00  0.00    +0.000 C 
ATOM      2  O   UNL     1       3.447   6.877  17.830  0.00  0.00    +0.000 OA
ATOM      3  N   UNL     1       2.134   5.743  19.376  0.00  0.00    +0.000 N 
ATOM      4  H   UNL     1       1.279   5.814  19.914  0.00  0.00    +0.000 HD
ENDROOT
BRANCH   3   5
ATOM      5  C   UNL     1       2.587   4.421  19.121  0.00  0.00    +0.000 A 
ATOM      6  C   UNL     1       3.601   3.797  19.857  0.00  0.00    +0.000 A 
ATOM      7  C   UNL     1       4.060   2.526  19.495  0.00  0.00    +0.000 A 
ATOM      8  C   UNL     1       3.495   1.873  18.408  0.00  0.00    +0.000 A 
ATOM      9  F   UNL     1       3.961   0.670  18.050  0.00  0.00    +0.000 F 
ATOM     10  C   UNL     1       2.459   2.451  17.687  0.00  0.00    +0.000 A 
ATOM     11  C   UNL     1       2.004   3.713  18.059  0.00  0.00    +0.000 A 
ATOM     12  F   UNL     1       1.008   4.277  17.357  0.00  0.00    +0.000 F 
ENDBRANCH   3   5
BRANCH   1  16
ATOM     13  C   UNL     1       0.637  10.410  19.929  0.00  0.00    +0.000 A 
ATOM     14  C   UNL     1       1.064  10.342  18.604  0.00  0.00    +0.000 A 
ATOM     15  C   UNL     1       1.754   9.205  18.165  0.00  0.00    +0.000 A 
ATOM     16  C   UNL     1       1.979   8.165  19.063  0.00  0.00    +0.000 A 
ATOM     17  C   UNL     1       1.510   8.320  20.364  0.00  0.00    +0.000 A 
ATOM     18  N   UNL     1       0.861   9.420  20.816  0.00  0.00    +0.000 NA
BRANCH  13  19
ATOM     19  S   UNL     1      -0.322  11.810  20.475  0.00  0.00    +0.000 S 
BRANCH  19  20
ATOM     20  C   UNL     1      -0.533  11.386  22.241  0.00  0.00    +0.000 C 
BRANCH  20  22
ATOM     21  C   UNL     1      -2.796  12.361  22.776  0.00  0.00    +0.000 C 
ATOM     22  C   UNL     1      -1.290  12.507  22.950  0.00  0.00    +0.000 C 
ENDBRANCH  20  22
ENDBRANCH  19  20
ENDBRANCH  13  19
ENDBRANCH   1  16
TORSDOF 5
ENDMDL
MODEL 9
REMARK VINA RESULT:      -6.7      4.582      5.804
REMARK  Name = 
REMARK  6 active torsions:
REMARK  status: ('A' for Active; 'I' for Inactive)
REMARK    1  A    between atoms: C_1  and  C_2
REMARK    2  A    between atoms: C_2  and  C_3
REMARK    3  A    between atoms: C_3  and  S_4
REMARK    4  A    between atoms: S_4  and  C_5
REMARK    5  A    between atoms: C_8  and  C_9
REMARK    6  A    between atoms: N_11  and  C_12
REMARK                            x       y       z     vdW  Elec       q    Type
REMARK                         _______ _______ _______ _____ _____    ______ ____
ROOT
ATOM      1  C   UNL     1       2.029   6.681  20.025  0.00  0.00    +0.000 C 
ATOM      2  O   UNL     1       1.374   5.969  20.777  0.00  0.00    +0.000 OA
ATOM      3  N   UNL     1       1.971   8.065  19.969  0.00  0.00    +0.000 N 
ATOM      4  H   UNL     1       2.366   8.536  19.164  0.00  0.00    +0.000 HD
ENDROOT
BRANCH   3   5
ATOM      5  C   UNL     1       1.142   8.866  20.800  0.00  0.00    +0.000 A 
ATOM      6  C   UNL     1       1.191   8.834  22.199  0.00  0.00    +0.000 A 
ATOM      7  C   UNL     1       0.285   9.583  22.956  0.00  0.00    +0.000 A 
ATOM      8  C   UNL     1      -0.660  10.374  22.316  0.00  0.00    +0.000 A 
ATOM      9  F   UNL     1      -1.543  11.064  23.049  0.00  0.00    +0.000 F 
ATOM     10  C   UNL     1      -0.702  10.456  20.932  0.00  0.00    +0.000 A 
ATOM     11  C   UNL     1       0.208   9.712  20.186  0.00  0.00    +0.000 A 
ATOM     12  F   UNL     1       0.162   9.784  18.846  0.00  0.00    +0.000 F 
ENDBRANCH   3   5
BRANCH   1  16
ATOM     13  C   UNL     1       4.455   4.974  17.013  0.00  0.00    +0.000 A 
ATOM     14  C   UNL     1       3.841   4.099  17.907  0.00  0.00    +0.000 A 
ATOM     15  C   UNL     1       3.058   4.618  18.947  0.00  0.00    +0.000 A 
ATOM     16  C   UNL     1       2.902   5.998  19.047  0.00  0.00    +0.000 A 
ATOM     17  C   UNL     1       3.547   6.793  18.104  0.00  0.00    +0.000 A 
ATOM     18  N   UNL     1       4.327   6.313  17.106  0.00  0.00    +0.000 NA
BRANCH  13  19
ATOM     19  S   UNL     1       5.376   4.323  15.634  0.00  0.00    +0.000 S 
BRANCH  19  20
ATOM     20  C   UNL     1       7.028   5.018  15.994  0.00  0.00    +0.000 C 
BRANCH  20  22
ATOM     21  C   UNL     1       7.654   5.749  18.325  0.00  0.00    +0.000 C 
ATOM     22  C   UNL     1       7.483   4.567  17.381  0.00  0.00    +0.000 C 
ENDBRANCH  20  22
ENDBRANCH  19  20
ENDBRANCH  13  19
ENDBRANCH   1  16
TORSDOF 5
ENDMDL
