MODEL 1
REMARK VINA RESULT:      -6.7      0.000      0.000
REMARK  Name = 
REMARK  8 active torsions:
REMARK  status: ('A' for Active; 'I' for Inactive)
REMARK    1  A    between atoms: C_1  and  C_2
REMARK    2  A    between atoms: C_2  and  O_3
REMARK    3  A    between atoms: O_3  and  C_4
REMARK    4  A    between atoms: C_4  and  C_6
REMARK    5  A    between atoms: C_9  and  C_10
REMARK    6  A    between atoms: C_10  and  O_11
REMARK    7  A    between atoms: O_11  and  C_12
REMARK    8  A    between atoms: C_15  and  C_16
REMARK                            x       y       z     vdW  Elec       q    Type
REMARK                         _______ _______ _______ _____ _____    ______ ____
ROOT
ATOM      1  C   UNL     1       5.501   4.965  15.945  0.00  0.00    +0.000 A 
ATOM      2  C   UNL     1       5.319   6.270  16.418  0.00  0.00    +0.000 A 
ATOM      3  C   UNL     1       4.328   6.543  17.362  0.00  0.00    +0.000 A 
ATOM      4  C   UNL     1       3.515   5.515  17.855  0.00  0.00    +0.000 A 
ATOM      5  C   UNL     1       3.680   4.214  17.360  0.00  0.00    +0.000 A 
ATOM      6  C   UNL     1       4.671   3.938  16.414  0.00  0.00    +0.000 A 
ENDROOT
BRANCH   1   7
ATOM      7  C   UNL     1       6.539   4.743  14.906  0.00  0.00    +0.000 C 
ATOM      8  O   UNL     1       7.479   5.498  14.720  0.00  0.00    +0.000 OA
BRANCH   7   9
ATOM      9  O   UNL     1       6.224   3.658  14.156  0.00  0.00    +0.000 OA
BRANCH   9  11
ATOM     10  C   UNL     1       5.360   3.182  11.982  0.00  0.00    +0.000 C 
ATOM     11  C   UNL     1       6.522   3.774  12.760  0.00  0.00    +0.000 C 
ENDBRANCH   9  11
ENDBRANCH   7   9
ENDBRANCH   1   7
BRANCH   4  12
ATOM     12  C   UNL     1       2.487   5.803  18.920  0.00  0.00    +0.000 C 
BRANCH  12  13
ATOM     13  O   UNL     1       2.891   6.927  19.699  0.00  0.00    +0.000 OA
BRANCH  13  14
ATOM     14  C   UNL     1       1.933   7.885  19.888  0.00  0.00    +0.000 A 
ATOM     15  C   UNL     1       1.137   8.038  21.018  0.00  0.00    +0.000 A 
ATOM     16  C   UNL     1       0.200   9.071  21.074  0.00  0.00    +0.000 A 
ATOM     17  C   UNL     1       0.082   9.935  19.992  0.00  0.00    +0.000 A 
ATOM     18  C   UNL     1      -0.909  11.059  20.020  0.00  0.00    +0.000 C 
ATOM     19  N   UNL     1       0.841   9.808  18.880  0.00  0.00    +0.000 NA
ATOM     20  C   UNL     1       1.742   8.794  18.854  0.00  0.00    +0.000 A 
ENDBRANCH  13  14
ENDBRANCH  12  13
ENDBRANCH   4  12
TORSDOF 6
ENDMDL
MODEL 2
REMARK VINA RESULT:      -6.7      3.531      4.304
REMARK  Name = 
REMARK  8 active torsions:
REMARK  status: ('A' for Active; 'I' for Inactive)
REMARK    1  A    between atoms: C_1  and  C_2
REMARK    2  A    between atoms: C_2  and  O_3
REMARK    3  A    between atoms: O_3  and  C_4
REMARK    4  A    between atoms: C_4  and  C_6
REMARK    5  A    between atoms: C_9  and  C_10
REMARK    6  A    between atoms: C_10  and  O_11
REMARK    7  A    between atoms: O_11  and  C_12
REMARK    8  A    between atoms: C_15  and  C_16
REMARK                            x       y       z     vdW  Elec       q    Type
REMARK                         _______ _______ _______ _____ _____    ______ ____
ROOT
ATOM      1  C   UNL     1       6.266   4.662  14.718  0.00  0.00    +0.000 A 
ATOM      2  C   UNL     1       7.142   4.066  15.632  0.00  0.00    +0.000 A 
ATOM      3  C   UNL     1       7.175   4.499  16.957  0.00  0.00    +0.000 A 
ATOM      4  C   UNL     1       6.325   5.525  17.390  0.00  0.00    +0.000 A 
ATOM      5  C   UNL     1       5.468   6.139  16.467  0.00  0.00    +0.000 A 
ATOM      6  C   UNL     1       5.432   5.707  15.139  0.00  0.00    +0.000 A 
ENDROOT
BRANCH   1   7
ATOM      7  C   UNL     1       6.307   4.191  13.308  0.00  0.00    +0.000 C 
ATOM      8  O   UNL     1       7.202   4.476  12.530  0.00  0.00    +0.000 OA
BRANCH   7   9
ATOM      9  O   UNL     1       5.176   3.505  13.012  0.00  0.00    +0.000 OA
BRANCH   9  11
ATOM     10  C   UNL     1       3.879   3.364  11.013  0.00  0.00    +0.000 C 
ATOM     11  C   UNL     1       5.149   2.908  11.710  0.00  0.00    +0.000 C 
ENDBRANCH   9  11
ENDBRANCH   7   9
ENDBRANCH   1   7
BRANCH   4  12
ATOM     12  C   UNL     1       6.321   5.948  18.837  0.00  0.00    +0.000 C 
BRANCH  12  13
ATOM     13  O   UNL     1       5.956   4.848  19.668  0.00  0.00    +0.000 OA
BRANCH  13  14
ATOM     14  C   UNL     1       4.651   4.449  19.576  0.00  0.00    +0.000 A 
ATOM     15  C   UNL     1       3.533   5.271  19.665  0.00  0.00    +0.000 A 
ATOM     16  C   UNL     1       2.255   4.721  19.545  0.00  0.00    +0.000 A 
ATOM     17  C   UNL     1       2.124   3.354  19.335  0.00  0.00    +0.000 A 
ATOM     18  C   UNL     1       0.769   2.731  19.196  0.00  0.00    +0.000 C 
ATOM     19  N   UNL     1       3.195   2.531  19.247  0.00  0.00    +0.000 NA
ATOM     20  C   UNL     1       4.424   3.094  19.368  0.00  0.00    +0.000 A 
ENDBRANCH  13  14
ENDBRANCH  12  13
ENDBRANCH   4  12
TORSDOF 6
ENDMDL
MODEL 3
REMARK VINA RESULT:      -6.6      3.411      4.193
REMARK  Name = 
REMARK  8 active torsions:
REMARK  status: ('A' for Active; 'I' for Inactive)
REMARK    1  A    between atoms: C_1  and  C_2
REMARK    2  A    between atoms: C_2  and  O_3
REMARK    3  A    between atoms: O_3  and  C_4
REMARK    4  A    between atoms: C_4  and  C_6
REMARK    5  A    between atoms: C_9  and  C_10
REMARK    6  A    between atoms: C_10  and  O_11
REMARK    7  A    between atoms: O_11  and  C_12
REMARK    8  A    between atoms: C_15  and  C_16
REMARK                            x       y       z     vdW  Elec       q    Type
REMARK                         _______ _______ _______ _____ _____    ______ ____
ROOT
ATOM      1  C   UNL     1       6.100   4.388  14.284  0.00  0.00    +0.000 A 
ATOM      2  C   UNL     1       5.204   5.416  14.602  0.00  0.00    +0.000 A 
ATOM      3  C   UNL     1       5.219   5.993  15.872  0.00  0.00    +0.000 A 
ATOM      4  C   UNL     1       6.137   5.560  16.837  0.00  0.00    +0.000 A 
ATOM      5  C   UNL     1       7.015   4.512  16.526  0.00  0.00    +0.000 A 
ATOM      6  C   UNL     1       7.002   3.933  15.255  0.00  0.00    +0.000 A 
ENDROOT
BRANCH   1   7
ATOM      7  C   UNL     1       6.006   3.780  12.931  0.00  0.00    +0.000 C 
ATOM      8  O   UNL     1       6.979   3.505  12.248  0.00  0.00    +0.000 OA
BRANCH   7   9
ATOM      9  O   UNL     1       4.708   3.681  12.554  0.00  0.00    +0.000 OA
BRANCH   9  11
ATOM     10  C   UNL     1       3.372   3.641  10.575  0.00  0.00    +0.000 C 
ATOM     11  C   UNL     1       4.479   2.944  11.346  0.00  0.00    +0.000 C 
ENDBRANCH   9  11
ENDBRANCH   7   9
ENDBRANCH   1   7
BRANCH   4  12
ATOM     12  C   UNL     1       6.191   6.228  18.188  0.00  0.00    +0.000 C 
BRANCH  12  13
ATOM     13  O   UNL     1       5.989   5.265  19.219  0.00  0.00    +0.000 OA
BRANCH  13  14
ATOM     14  C   UNL     1       4.697   4.847  19.388  0.00  0.00    +0.000 A 
ATOM     15  C   UNL     1       3.582   5.665  19.529  0.00  0.00    +0.000 A 
ATOM     16  C   UNL     1       2.318   5.095  19.689  0.00  0.00    +0.000 A 
ATOM     17  C   UNL     1       2.197   3.711  19.701  0.00  0.00    +0.000 A 
ATOM     18  C   UNL     1       0.856   3.064  19.865  0.00  0.00    +0.000 C 
ATOM     19  N   UNL     1       3.266   2.892  19.569  0.00  0.00    +0.000 NA
ATOM     20  C   UNL     1       4.482   3.475  19.417  0.00  0.00    +0.000 A 
ENDBRANCH  13  14
ENDBRANCH  12  13
ENDBRANCH   4  12
TORSDOF 6
ENDMDL
MODEL 4
REMARK VINA RESULT:      -6.6      0.711      1.592
REMARK  Name = 
REMARK  8 active torsions:
REMARK  status: ('A' for Active; 'I' for Inactive)
REMARK    1  A    between atoms: C_1  and  C_2
REMARK    2  A    between atoms: C_2  and  O_3
REMARK    3  A    between atoms: O_3  and  C_4
REMARK    4  A    between atoms: C_4  and  C_6
REMARK    5  A    between atoms: C_9  and  C_10
REMARK    6  A    between atoms: C_10  and  O_11
REMARK    7  A    between atoms: O_11  and  C_12
REMARK    8  A    between atoms: C_15  and  C_16
REMARK                            x       y       z     vdW  Elec       q    Type
REMARK                         _______ _______ _______ _____ _____    ______ ____
ROOT
ATOM      1  C   UNL     1       5.600   5.059  15.829  0.00  0.00    +0.000 A 
ATOM      2  C   UNL     1       4.907   4.024  16.467  0.00  0.00    +0.000 A 
ATOM      3  C   UNL     1       3.915   4.317  17.404  0.00  0.00    +0.000 A 
ATOM      4  C   UNL     1       3.595   5.646  17.707  0.00  0.00    +0.000 A 
ATOM      5  C   UNL     1       4.309   6.681  17.087  0.00  0.00    +0.000 A 
ATOM      6  C   UNL     1       5.302   6.390  16.148  0.00  0.00    +0.000 A 
ENDROOT
BRANCH   1   7
ATOM      7  C   UNL     1       6.677   4.687  14.875  0.00  0.00    +0.000 C 
ATOM      8  O   UNL     1       7.662   5.377  14.669  0.00  0.00    +0.000 OA
BRANCH   7   9
ATOM      9  O   UNL     1       6.346   3.547  14.218  0.00  0.00    +0.000 OA
BRANCH   9  11
ATOM     10  C   UNL     1       6.754   3.328  11.877  0.00  0.00    +0.000 C 
ATOM     11  C   UNL     1       5.744   3.738  12.932  0.00  0.00    +0.000 C 
ENDBRANCH   9  11
ENDBRANCH   7   9
ENDBRANCH   1   7
BRANCH   4  12
ATOM     12  C   UNL     1       2.481   5.959  18.674  0.00  0.00    +0.000 C 
BRANCH  12  13
ATOM     13  O   UNL     1       2.817   7.104  19.454  0.00  0.00    +0.000 OA
BRANCH  13  14
ATOM     14  C   UNL     1       1.916   8.133  19.405  0.00  0.00    +0.000 A 
ATOM     15  C   UNL     1       1.602   8.895  18.285  0.00  0.00    +0.000 A 
ATOM     16  C   UNL     1       0.654   9.915  18.383  0.00  0.00    +0.000 A 
ATOM     17  C   UNL     1       0.037  10.150  19.605  0.00  0.00    +0.000 A 
ATOM     18  C   UNL     1      -0.989  11.232  19.745  0.00  0.00    +0.000 C 
ATOM     19  N   UNL     1       0.326   9.426  20.711  0.00  0.00    +0.000 NA
ATOM     20  C   UNL     1       1.252   8.442  20.586  0.00  0.00    +0.000 A 
ENDBRANCH  13  14
ENDBRANCH  12  13
ENDBRANCH   4  12
TORSDOF 6
ENDMDL
MODEL 5
REMARK VINA RESULT:      -6.6      3.487      4.304
REMARK  Name = 
REMARK  8 active torsions:
REMARK  status: ('A' for Active; 'I' for Inactive)
REMARK    1  A    between atoms: C_1  and  C_2
REMARK    2  A    between atoms: C_2  and  O_3
REMARK    3  A    between atoms: O_3  and  C_4
REMARK    4  A    between atoms: C_4  and  C_6
REMARK    5  A    between atoms: C_9  and  C_10
REMARK    6  A    between atoms: C_10  and  O_11
REMARK    7  A    between atoms: O_11  and  C_12
REMARK    8  A    between atoms: C_15  and  C_16
REMARK                            x       y       z     vdW  Elec       q    Type
REMARK                         _______ _______ _______ _____ _____    ______ ____
ROOT
ATOM      1  C   UNL     1       6.133   4.539  14.444  0.00  0.00    +0.000 A 
ATOM      2  C   UNL     1       7.117   4.075  15.324  0.00  0.00    +0.000 A 
ATOM      3  C   UNL     1       7.182   4.568  16.628  0.00  0.00    +0.000 A 
ATOM      4  C   UNL     1       6.258   5.522  17.072  0.00  0.00    +0.000 A 
ATOM      5  C   UNL     1       5.291   6.007  16.181  0.00  0.00    +0.000 A 
ATOM      6  C   UNL     1       5.223   5.514  14.875  0.00  0.00    +0.000 A 
ENDROOT
BRANCH   1   7
ATOM      7  C   UNL     1       6.141   4.013  13.054  0.00  0.00    +0.000 C 
ATOM      8  O   UNL     1       7.120   4.049  12.326  0.00  0.00    +0.000 OA
BRANCH   7   9
ATOM      9  O   UNL     1       4.899   3.596  12.706  0.00  0.00    +0.000 OA
BRANCH   9  11
ATOM     10  C   UNL     1       3.540   3.314  10.764  0.00  0.00    +0.000 C 
ATOM     11  C   UNL     1       4.819   2.890  11.462  0.00  0.00    +0.000 C 
ENDBRANCH   9  11
ENDBRANCH   7   9
ENDBRANCH   1   7
BRANCH   4  12
ATOM     12  C   UNL     1       6.294   6.007  18.500  0.00  0.00    +0.000 C 
BRANCH  12  13
ATOM     13  O   UNL     1       6.132   4.909  19.394  0.00  0.00    +0.000 OA
BRANCH  13  14
ATOM     14  C   UNL     1       4.873   4.375  19.448  0.00  0.00    +0.000 A 
ATOM     15  C   UNL     1       4.541   3.038  19.266  0.00  0.00    +0.000 A 
ATOM     16  C   UNL     1       3.207   2.635  19.355  0.00  0.00    +0.000 A 
ATOM     17  C   UNL     1       2.231   3.584  19.630  0.00  0.00    +0.000 A 
ATOM     18  C   UNL     1       0.791   3.186  19.740  0.00  0.00    +0.000 C 
ATOM     19  N   UNL     1       2.526   4.892  19.809  0.00  0.00    +0.000 NA
ATOM     20  C   UNL     1       3.831   5.254  19.715  0.00  0.00    +0.000 A 
ENDBRANCH  13  14
ENDBRANCH  12  13
ENDBRANCH   4  12
TORSDOF 6
ENDMDL
MODEL 6
REMARK VINA RESULT:      -6.6      1.259      1.839
REMARK  Name = 
REMARK  8 active torsions:
REMARK  status: ('A' for Active; 'I' for Inactive)
REMARK    1  A    between atoms: C_1  and  C_2
REMARK    2  A    between atoms: C_2  and  O_3
REMARK    3  A    between atoms: O_3  and  C_4
REMARK    4  A    between atoms: C_4  and  C_6
REMARK    5  A    between atoms: C_9  and  C_10
REMARK    6  A    between atoms: C_10  and  O_11
REMARK    7  A    between atoms: O_11  and  C_12
REMARK    8  A    between atoms: C_15  and  C_16
REMARK                            x       y       z     vdW  Elec       q    Type
REMARK                         _______ _______ _______ _____ _____    ______ ____
ROOT
ATOM      1  C   UNL     1       6.465   4.988  15.582  0.00  0.00    +0.000 A 
ATOM      2  C   UNL     1       5.078   5.172  15.590  0.00  0.00    +0.000 A 
ATOM      3  C   UNL     1       4.400   5.355  16.795  0.00  0.00    +0.000 A 
ATOM      4  C   UNL     1       5.101   5.369  18.008  0.00  0.00    +0.000 A 
ATOM      5  C   UNL     1       6.486   5.157  18.001  0.00  0.00    +0.000 A 
ATOM      6  C   UNL     1       7.167   4.974  16.794  0.00  0.00    +0.000 A 
ENDROOT
BRANCH   1   7
ATOM      7  C   UNL     1       7.126   4.751  14.272  0.00  0.00    +0.000 C 
ATOM      8  O   UNL     1       7.929   5.522  13.774  0.00  0.00    +0.000 OA
BRANCH   7   9
ATOM      9  O   UNL     1       6.630   3.628  13.696  0.00  0.00    +0.000 OA
BRANCH   9  11
ATOM     10  C   UNL     1       5.041   3.370  11.933  0.00  0.00    +0.000 C 
ATOM     11  C   UNL     1       6.486   3.688  12.271  0.00  0.00    +0.000 C 
ENDBRANCH   9  11
ENDBRANCH   7   9
ENDBRANCH   1   7
BRANCH   4  12
ATOM     12  C   UNL     1       4.373   5.629  19.303  0.00  0.00    +0.000 C 
BRANCH  12  13
ATOM     13  O   UNL     1       2.967   5.674  19.074  0.00  0.00    +0.000 OA
BRANCH  13  14
ATOM     14  C   UNL     1       2.405   6.922  19.110  0.00  0.00    +0.000 A 
ATOM     15  C   UNL     1       2.277   7.794  18.035  0.00  0.00    +0.000 A 
ATOM     16  C   UNL     1       1.674   9.040  18.220  0.00  0.00    +0.000 A 
ATOM     17  C   UNL     1       1.207   9.385  19.482  0.00  0.00    +0.000 A 
ATOM     18  C   UNL     1       0.549  10.710  19.716  0.00  0.00    +0.000 C 
ATOM     19  N   UNL     1       1.322   8.556  20.545  0.00  0.00    +0.000 NA
ATOM     20  C   UNL     1       1.913   7.352  20.336  0.00  0.00    +0.000 A 
ENDBRANCH  13  14
ENDBRANCH  12  13
ENDBRANCH   4  12
TORSDOF 6
ENDMDL
MODEL 7
REMARK VINA RESULT:      -6.5      3.532      4.359
REMARK  Name = 
REMARK  8 active torsions:
REMARK  status: ('A' for Active; 'I' for Inactive)
REMARK    1  A    between atoms: C_1  and  C_2
REMARK    2  A    between atoms: C_2  and  O_3
REMARK    3  A    between atoms: O_3  and  C_4
REMARK    4  A    between atoms: C_4  and  C_6
REMARK    5  A    between atoms: C_9  and  C_10
REMARK    6  A    between atoms: C_10  and  O_11
REMARK    7  A    between atoms: O_11  and  C_12
REMARK    8  A    between atoms: C_15  and  C_16
REMARK                            x       y       z     vdW  Elec       q    Type
REMARK                         _______ _______ _______ _____ _____    ______ ____
ROOT
ATOM      1  C   UNL     1       6.050   4.267  14.182  0.00  0.00    +0.000 A 
ATOM      2  C   UNL     1       4.868   4.609  14.849  0.00  0.00    +0.000 A 
ATOM      3  C   UNL     1       4.913   5.078  16.162  0.00  0.00    +0.000 A 
ATOM      4  C   UNL     1       6.140   5.223  16.822  0.00  0.00    +0.000 A 
ATOM      5  C   UNL     1       7.320   4.854  16.162  0.00  0.00    +0.000 A 
ATOM      6  C   UNL     1       7.277   4.384  14.847  0.00  0.00    +0.000 A 
ENDROOT
BRANCH   1   7
ATOM      7  C   UNL     1       5.936   3.728  12.802  0.00  0.00    +0.000 C 
ATOM      8  O   UNL     1       6.898   3.504  12.086  0.00  0.00    +0.000 OA
BRANCH   7   9
ATOM      9  O   UNL     1       4.632   3.630  12.445  0.00  0.00    +0.000 OA
BRANCH   9  11
ATOM     10  C   UNL     1       3.365   3.710  10.423  0.00  0.00    +0.000 C 
ATOM     11  C   UNL     1       4.385   2.922  11.224  0.00  0.00    +0.000 C 
ENDBRANCH   9  11
ENDBRANCH   7   9
ENDBRANCH   1   7
BRANCH   4  12
ATOM     12  C   UNL     1       6.189   5.789  18.219  0.00  0.00    +0.000 C 
BRANCH  12  13
ATOM     13  O   UNL     1       6.112   4.736  19.177  0.00  0.00    +0.000 OA
BRANCH  13  14
ATOM     14  C   UNL     1       4.853   4.265  19.432  0.00  0.00    +0.000 A 
ATOM     15  C   UNL     1       4.471   2.929  19.478  0.00  0.00    +0.000 A 
ATOM     16  C   UNL     1       3.144   2.595  19.757  0.00  0.00    +0.000 A 
ATOM     17  C   UNL     1       2.226   3.611  19.989  0.00  0.00    +0.000 A 
ATOM     18  C   UNL     1       0.795   3.289  20.298  0.00  0.00    +0.000 C 
ATOM     19  N   UNL     1       2.570   4.919  19.948  0.00  0.00    +0.000 NA
ATOM     20  C   UNL     1       3.866   5.213  19.673  0.00  0.00    +0.000 A 
ENDBRANCH  13  14
ENDBRANCH  12  13
ENDBRANCH   4  12
TORSDOF 6
ENDMDL
MODEL 8
REMARK VINA RESULT:      -6.4      2.730      8.194
REMARK  Name = 
REMARK  8 active torsions:
REMARK  status: ('A' for Active; 'I' for Inactive)
REMARK    1  A    between atoms: C_1  and  C_2
REMARK    2  A    between atoms: C_2  and  O_3
REMARK    3  A    between atoms: O_3  and  C_4
REMARK    4  A    between atoms: C_4  and  C_6
REMARK    5  A    between atoms: C_9  and  C_10
REMARK    6  A    between atoms: C_10  and  O_11
REMARK    7  A    between atoms: O_11  and  C_12
REMARK    8  A    between atoms: C_15  and  C_16
REMARK                            x       y       z     vdW  Elec       q    Type
REMARK                         _______ _______ _______ _____ _____    ______ ____
ROOT
ATOM      1  C   UNL     1       1.488   8.705  19.450  0.00  0.00    +0.000 A 
ATOM      2  C   UNL     1       2.066   8.591  18.180  0.00  0.00    +0.000 A 
ATOM      3  C   UNL     1       2.771   7.439  17.830  0.00  0.00    +0.000 A 
ATOM      4  C   UNL     1       2.897   6.381  18.739  0.00  0.00    +0.000 A 
ATOM      5  C   UNL     1       2.342   6.508  20.020  0.00  0.00    +0.000 A 
ATOM      6  C   UNL     1       1.635   7.661  20.372  0.00  0.00    +0.000 A 
ENDROOT
BRANCH   1   7
ATOM      7  C   UNL     1       0.789   9.974  19.783  0.00  0.00    +0.000 C 
ATOM      8  O   UNL     1       0.227  10.670  18.954  0.00  0.00    +0.000 OA
BRANCH   7   9
ATOM      9  O   UNL     1       0.964  10.272  21.094  0.00  0.00    +0.000 OA
BRANCH   9  11
ATOM     10  C   UNL     1      -0.178   9.629  23.090  0.00  0.00    +0.000 C 
ATOM     11  C   UNL     1      -0.242  10.484  21.837  0.00  0.00    +0.000 C 
ENDBRANCH   9  11
ENDBRANCH   7   9
ENDBRANCH   1   7
BRANCH   4  12
ATOM     12  C   UNL     1       3.607   5.113  18.335  0.00  0.00    +0.000 C 
BRANCH  12  13
ATOM     13  O   UNL     1       5.009   5.349  18.231  0.00  0.00    +0.000 OA
BRANCH  13  14
ATOM     14  C   UNL     1       5.549   5.150  16.990  0.00  0.00    +0.000 A 
ATOM     15  C   UNL     1       5.017   4.352  15.983  0.00  0.00    +0.000 A 
ATOM     16  C   UNL     1       5.678   4.247  14.758  0.00  0.00    +0.000 A 
ATOM     17  C   UNL     1       6.861   4.950  14.565  0.00  0.00    +0.000 A 
ATOM     18  C   UNL     1       7.594   4.866  13.261  0.00  0.00    +0.000 C 
ATOM     19  N   UNL     1       7.401   5.731  15.528  0.00  0.00    +0.000 NA
ATOM     20  C   UNL     1       6.737   5.812  16.709  0.00  0.00    +0.000 A 
ENDBRANCH  13  14
ENDBRANCH  12  13
ENDBRANCH   4  12
TORSDOF 6
ENDMDL
MODEL 9
REMARK VINA RESULT:      -6.3      1.564      1.776
REMARK  Name = 
REMARK  8 active torsions:
REMARK  status: ('A' for Active; 'I' for Inactive)
REMARK    1  A    between atoms: C_1  and  C_2
REMARK    2  A    between atoms: C_2  and  O_3
REMARK    3  A    between atoms: O_3  and  C_4
REMARK    4  A    between atoms: C_4  and  C_6
REMARK    5  A    between atoms: C_9  and  C_10
REMARK    6  A    between atoms: C_10  and  O_11
REMARK    7  A    between atoms: O_11  and  C_12
REMARK    8  A    between atoms: C_15  and  C_16
REMARK                            x       y       z     vdW  Elec       q    Type
REMARK                         _______ _______ _______ _____ _____    ______ ____
ROOT
ATOM      1  C   UNL     1       5.927   5.103  17.625  0.00  0.00    +0.000 A 
ATOM      2  C   UNL     1       5.280   6.253  17.159  0.00  0.00    +0.000 A 
ATOM      3  C   UNL     1       4.113   6.702  17.778  0.00  0.00    +0.000 A 
ATOM      4  C   UNL     1       3.585   6.016  18.879  0.00  0.00    +0.000 A 
ATOM      5  C   UNL     1       4.219   4.850  19.328  0.00  0.00    +0.000 A 
ATOM      6  C   UNL     1       5.388   4.398  18.709  0.00  0.00    +0.000 A 
ENDROOT
BRANCH   1   7
ATOM      7  C   UNL     1       7.139   4.645  16.897  0.00  0.00    +0.000 C 
ATOM      8  O   UNL     1       8.188   4.356  17.450  0.00  0.00    +0.000 OA
BRANCH   7   9
ATOM      9  O   UNL     1       6.928   4.700  15.559  0.00  0.00    +0.000 OA
BRANCH   9  11
ATOM     10  C   UNL     1       5.696   4.063  13.617  0.00  0.00    +0.000 C 
ATOM     11  C   UNL     1       6.074   3.676  15.035  0.00  0.00    +0.000 C 
ENDBRANCH   9  11
ENDBRANCH   7   9
ENDBRANCH   1   7
BRANCH   4  12
ATOM     12  C   UNL     1       2.359   6.540  19.584  0.00  0.00    +0.000 C 
BRANCH  12  13
ATOM     13  O   UNL     1       2.123   7.896  19.213  0.00  0.00    +0.000 OA
BRANCH  13  14
ATOM     14  C   UNL     1       1.416   8.639  20.119  0.00  0.00    +0.000 A 
ATOM     15  C   UNL     1       1.203   8.317  21.455  0.00  0.00    +0.000 A 
ATOM     16  C   UNL     1       0.463   9.178  22.267  0.00  0.00    +0.000 A 
ATOM     17  C   UNL     1      -0.047  10.350  21.723  0.00  0.00    +0.000 A 
ATOM     18  C   UNL     1      -0.840  11.301  22.567  0.00  0.00    +0.000 C 
ATOM     19  N   UNL     1       0.144  10.686  20.426  0.00  0.00    +0.000 NA
ATOM     20  C   UNL     1       0.866   9.829  19.661  0.00  0.00    +0.000 A 
ENDBRANCH  13  14
ENDBRANCH  12  13
ENDBRANCH   4  12
TORSDOF 6
ENDMDL
