MODEL 1
REMARK VINA RESULT:      -7.0      0.000      0.000
REMARK  Name = 
REMARK  14 active torsions:
REMARK  status: ('A' for Active; 'I' for Inactive)
REMARK    1  A    between atoms: C_1  and  C_2
REMARK    2  A    between atoms: C_2  and  O_3
REMARK    3  A    between atoms: O_3  and  C_4
REMARK    4  A    between atoms: C_4  and  C_6
REMARK    5  A    between atoms: C_6  and  C_7
REMARK    6  A    between atoms: C_7  and  C_8
REMARK    7  A    between atoms: C_8  and  C_9
REMARK    8  A    between atoms: C_9  and  O_10
REMARK    9  A    between atoms: O_10  and  C_11
REMARK   10  A    between atoms: C_11  and  C_13
REMARK   11  A    between atoms: C_13  and  C_14
REMARK   12  A    between atoms: C_14  and  C_15
REMARK   13  A    between atoms: C_15  and  N_16
REMARK   14  A    between atoms: N_19  and  C_20
REMARK                            x       y       z     vdW  Elec       q    Type
REMARK                         _______ _______ _______ _____ _____    ______ ____
ROOT
ATOM      1  N   UNL     1       6.161   6.843  17.310  0.00  0.00    +0.000 N 
ATOM      2  C   UNL     1       5.541   5.964  18.172  0.00  0.00    +0.000 C 
ATOM      3  O   UNL     1       6.108   5.520  19.156  0.00  0.00    +0.000 OA
ATOM      4  N   UNL     1       4.260   5.658  17.802  0.00  0.00    +0.000 N 
ATOM      5  H   UNL     1       5.750   6.957  16.397  0.00  0.00    +0.000 HD
ATOM      6  H   UNL     1       3.799   6.316  17.190  0.00  0.00    +0.000 HD
ENDROOT
BRANCH   4   7
ATOM      7  C   UNL     1       3.433   4.709  18.557  0.00  0.00    +0.000 C 
ATOM      8  C   UNL     1       3.169   5.193  20.005  0.00  0.00    +0.000 C 
ATOM      9  C   UNL     1       2.323   4.167  20.779  0.00  0.00    +0.000 C 
ATOM     10  C   UNL     1       0.965   4.001  20.083  0.00  0.00    +0.000 C 
ATOM     11  C   UNL     1       1.174   3.527  18.635  0.00  0.00    +0.000 C 
ATOM     12  C   UNL     1       1.886   2.166  18.657  0.00  0.00    +0.000 C 
ATOM     13  C   UNL     1       3.247   2.301  19.357  0.00  0.00    +0.000 C 
ATOM     14  C   UNL     1       3.052   2.813  20.792  0.00  0.00    +0.000 C 
ATOM     15  C   UNL     1       4.107   3.310  18.585  0.00  0.00    +0.000 C 
ATOM     16  C   UNL     1       2.048   4.550  17.873  0.00  0.00    +0.000 C 
ENDBRANCH   4   7
BRANCH   1  17
ATOM     17  C   UNL     1       7.568   7.148  17.484  0.00  0.00    +0.000 C 
BRANCH  17  18
ATOM     18  C   UNL     1       7.805   8.639  17.677  0.00  0.00    +0.000 C 
BRANCH  18  19
ATOM     19  C   UNL     1       8.857   8.920  18.739  0.00  0.00    +0.000 C 
BRANCH  19  20
ATOM     20  C   UNL     1       9.091  10.393  19.003  0.00  0.00    +0.000 C 
ATOM     21  O   UNL     1       9.355  11.213  18.135  0.00  0.00    +0.000 OA
BRANCH  20  22
ATOM     22  O   UNL     1       9.123  10.622  20.340  0.00  0.00    +0.000 OA
BRANCH  22  23
ATOM     23  C   UNL     1      10.087  11.595  20.744  0.00  0.00    +0.000 C 
BRANCH  23  24
ATOM     24  C   UNL     1       9.459  12.841  21.359  0.00  0.00    +0.000 C 
BRANCH  24  25
ATOM     25  C   UNL     1      10.197  14.112  20.954  0.00  0.00    +0.000 C 
BRANCH  25  26
ATOM     26  C   UNL     1       9.271  15.128  20.290  0.00  0.00    +0.000 C 
BRANCH  26  27
ATOM     27  C   UNL     1       9.460  15.114  18.793  0.00  0.00    +0.000 C 
ATOM     28  O   UNL     1       8.581  15.323  17.969  0.00  0.00    +0.000 OA
BRANCH  27  29
ATOM     29  O   UNL     1      10.735  14.734  18.503  0.00  0.00    +0.000 OA
BRANCH  29  31
ATOM     30  C   UNL     1      11.579  16.318  16.937  0.00  0.00    +0.000 C 
ATOM     31  C   UNL     1      11.106  14.888  17.126  0.00  0.00    +0.000 C 
ENDBRANCH  29  31
ENDBRANCH  27  29
ENDBRANCH  26  27
ENDBRANCH  25  26
ENDBRANCH  24  25
ENDBRANCH  23  24
ENDBRANCH  22  23
ENDBRANCH  20  22
ENDBRANCH  19  20
ENDBRANCH  18  19
ENDBRANCH  17  18
ENDBRANCH   1  17
TORSDOF 13
ENDMDL
MODEL 2
REMARK VINA RESULT:      -7.0      1.184      2.307
REMARK  Name = 
REMARK  14 active torsions:
REMARK  status: ('A' for Active; 'I' for Inactive)
REMARK    1  A    between atoms: C_1  and  C_2
REMARK    2  A    between atoms: C_2  and  O_3
REMARK    3  A    between atoms: O_3  and  C_4
REMARK    4  A    between atoms: C_4  and  C_6
REMARK    5  A    between atoms: C_6  and  C_7
REMARK    6  A    between atoms: C_7  and  C_8
REMARK    7  A    between atoms: C_8  and  C_9
REMARK    8  A    between atoms: C_9  and  O_10
REMARK    9  A    between atoms: O_10  and  C_11
REMARK   10  A    between atoms: C_11  and  C_13
REMARK   11  A    between atoms: C_13  and  C_14
REMARK   12  A    between atoms: C_14  and  C_15
REMARK   13  A    between atoms: C_15  and  N_16
REMARK   14  A    between atoms: N_19  and  C_20
REMARK                            x       y       z     vdW  Elec       q    Type
REMARK                         _______ _______ _______ _____ _____    ______ ____
ROOT
ATOM      1  N   UNL     1       6.103   6.879  17.316  0.00  0.00    +0.000 N 
ATOM      2  C   UNL     1       5.521   5.868  18.050  0.00  0.00    +0.000 C 
ATOM      3  O   UNL     1       6.180   5.128  18.761  0.00  0.00    +0.000 OA
ATOM      4  N   UNL     1       4.164   5.795  17.889  0.00  0.00    +0.000 N 
ATOM      5  H   UNL     1       5.560   7.268  16.561  0.00  0.00    +0.000 HD
ATOM      6  H   UNL     1       3.704   6.633  17.561  0.00  0.00    +0.000 HD
ENDROOT
BRANCH   4   7
ATOM      7  C   UNL     1       3.352   4.766  18.547  0.00  0.00    +0.000 C 
ATOM      8  C   UNL     1       1.980   4.577  17.853  0.00  0.00    +0.000 C 
ATOM      9  C   UNL     1       1.141   3.512  18.580  0.00  0.00    +0.000 C 
ATOM     10  C   UNL     1       1.879   2.167  18.536  0.00  0.00    +0.000 C 
ATOM     11  C   UNL     1       3.255   2.304  19.209  0.00  0.00    +0.000 C 
ATOM     12  C   UNL     1       3.051   2.707  20.678  0.00  0.00    +0.000 C 
ATOM     13  C   UNL     1       2.305   4.047  20.752  0.00  0.00    +0.000 C 
ATOM     14  C   UNL     1       0.945   3.932  20.047  0.00  0.00    +0.000 C 
ATOM     15  C   UNL     1       3.139   5.123  20.044  0.00  0.00    +0.000 C 
ATOM     16  C   UNL     1       4.081   3.396  18.489  0.00  0.00    +0.000 C 
ENDBRANCH   4   7
BRANCH   1  17
ATOM     17  C   UNL     1       7.548   6.990  17.265  0.00  0.00    +0.000 C 
BRANCH  17  18
ATOM     18  C   UNL     1       8.081   7.938  18.329  0.00  0.00    +0.000 C 
BRANCH  18  19
ATOM     19  C   UNL     1       8.213   9.363  17.815  0.00  0.00    +0.000 C 
BRANCH  19  20
ATOM     20  C   UNL     1       9.059  10.262  18.692  0.00  0.00    +0.000 C 
ATOM     21  O   UNL     1       9.253  10.073  19.885  0.00  0.00    +0.000 OA
BRANCH  20  22
ATOM     22  O   UNL     1       9.424  11.370  17.999  0.00  0.00    +0.000 OA
BRANCH  22  23
ATOM     23  C   UNL     1      10.827  11.471  17.753  0.00  0.00    +0.000 C 
BRANCH  23  24
ATOM     24  C   UNL     1      11.612  11.981  18.956  0.00  0.00    +0.000 C 
BRANCH  24  25
ATOM     25  C   UNL     1      11.738  13.500  18.954  0.00  0.00    +0.000 C 
BRANCH  25  26
ATOM     26  C   UNL     1      10.566  14.175  19.664  0.00  0.00    +0.000 C 
BRANCH  26  27
ATOM     27  C   UNL     1       9.625  14.791  18.660  0.00  0.00    +0.000 C 
ATOM     28  O   UNL     1       9.961  15.324  17.612  0.00  0.00    +0.000 OA
BRANCH  27  29
ATOM     29  O   UNL     1       8.354  14.752  19.149  0.00  0.00    +0.000 OA
BRANCH  29  31
ATOM     30  C   UNL     1       6.399  14.612  17.796  0.00  0.00    +0.000 C 
ATOM     31  C   UNL     1       7.410  15.554  18.426  0.00  0.00    +0.000 C 
ENDBRANCH  29  31
ENDBRANCH  27  29
ENDBRANCH  26  27
ENDBRANCH  25  26
ENDBRANCH  24  25
ENDBRANCH  23  24
ENDBRANCH  22  23
ENDBRANCH  20  22
ENDBRANCH  19  20
ENDBRANCH  18  19
ENDBRANCH  17  18
ENDBRANCH   1  17
TORSDOF 13
ENDMDL
MODEL 3
REMARK VINA RESULT:      -7.0      5.667      7.406
REMARK  Name = 
REMARK  14 active torsions:
REMARK  status: ('A' for Active; 'I' for Inactive)
REMARK    1  A    between atoms: C_1  and  C_2
REMARK    2  A    between atoms: C_2  and  O_3
REMARK    3  A    between atoms: O_3  and  C_4
REMARK    4  A    between atoms: C_4  and  C_6
REMARK    5  A    between atoms: C_6  and  C_7
REMARK    6  A    between atoms: C_7  and  C_8
REMARK    7  A    between atoms: C_8  and  C_9
REMARK    8  A    between atoms: C_9  and  O_10
REMARK    9  A    between atoms: O_10  and  C_11
REMARK   10  A    between atoms: C_11  and  C_13
REMARK   11  A    between atoms: C_13  and  C_14
REMARK   12  A    between atoms: C_14  and  C_15
REMARK   13  A    between atoms: C_15  and  N_16
REMARK   14  A    between atoms: N_19  and  C_20
REMARK                            x       y       z     vdW  Elec       q    Type
REMARK                         _______ _______ _______ _____ _____    ______ ____
ROOT
ATOM      1  N   UNL     1       1.601   8.159  21.313  0.00  0.00    +0.000 N 
ATOM      2  C   UNL     1       1.500   6.864  20.853  0.00  0.00    +0.000 C 
ATOM      3  O   UNL     1       0.447   6.248  20.891  0.00  0.00    +0.000 OA
ATOM      4  N   UNL     1       2.680   6.367  20.370  0.00  0.00    +0.000 N 
ATOM      5  H   UNL     1       2.529   8.507  21.503  0.00  0.00    +0.000 HD
ATOM      6  H   UNL     1       3.371   7.047  20.085  0.00  0.00    +0.000 HD
ENDROOT
BRANCH   4   7
ATOM      7  C   UNL     1       2.804   4.994  19.868  0.00  0.00    +0.000 C 
ATOM      8  C   UNL     1       4.244   4.679  19.391  0.00  0.00    +0.000 C 
ATOM      9  C   UNL     1       4.338   3.242  18.847  0.00  0.00    +0.000 C 
ATOM     10  C   UNL     1       3.986   2.252  19.966  0.00  0.00    +0.000 C 
ATOM     11  C   UNL     1       2.563   2.529  20.480  0.00  0.00    +0.000 C 
ATOM     12  C   UNL     1       1.572   2.339  19.322  0.00  0.00    +0.000 C 
ATOM     13  C   UNL     1       1.907   3.313  18.183  0.00  0.00    +0.000 C 
ATOM     14  C   UNL     1       3.341   3.071  17.689  0.00  0.00    +0.000 C 
ATOM     15  C   UNL     1       1.801   4.751  18.708  0.00  0.00    +0.000 C 
ATOM     16  C   UNL     1       2.471   3.983  20.999  0.00  0.00    +0.000 C 
ENDBRANCH   4   7
BRANCH   1  17
ATOM     17  C   UNL     1       0.475   8.772  21.991  0.00  0.00    +0.000 C 
BRANCH  17  18
ATOM     18  C   UNL     1       0.012  10.039  21.288  0.00  0.00    +0.000 C 
BRANCH  18  19
ATOM     19  C   UNL     1       1.001  10.504  20.231  0.00  0.00    +0.000 C 
BRANCH  19  20
ATOM     20  C   UNL     1       0.467  10.446  18.814  0.00  0.00    +0.000 C 
ATOM     21  O   UNL     1      -0.295  11.273  18.334  0.00  0.00    +0.000 OA
BRANCH  20  22
ATOM     22  O   UNL     1       0.830   9.275  18.233  0.00  0.00    +0.000 OA
BRANCH  22  23
ATOM     23  C   UNL     1       2.202   9.218  17.840  0.00  0.00    +0.000 C 
BRANCH  23  24
ATOM     24  C   UNL     1       2.616   7.849  17.308  0.00  0.00    +0.000 C 
BRANCH  24  25
ATOM     25  C   UNL     1       4.100   7.577  17.527  0.00  0.00    +0.000 C 
BRANCH  25  26
ATOM     26  C   UNL     1       4.718   6.798  16.369  0.00  0.00    +0.000 C 
BRANCH  26  27
ATOM     27  C   UNL     1       6.157   6.457  16.671  0.00  0.00    +0.000 C 
ATOM     28  O   UNL     1       6.800   6.887  17.617  0.00  0.00    +0.000 OA
BRANCH  27  29
ATOM     29  O   UNL     1       6.655   5.678  15.671  0.00  0.00    +0.000 OA
BRANCH  29  31
ATOM     30  C   UNL     1       6.221   3.956  14.083  0.00  0.00    +0.000 C 
ATOM     31  C   UNL     1       5.995   4.414  15.513  0.00  0.00    +0.000 C 
ENDBRANCH  29  31
ENDBRANCH  27  29
ENDBRANCH  26  27
ENDBRANCH  25  26
ENDBRANCH  24  25
ENDBRANCH  23  24
ENDBRANCH  22  23
ENDBRANCH  20  22
ENDBRANCH  19  20
ENDBRANCH  18  19
ENDBRANCH  17  18
ENDBRANCH   1  17
TORSDOF 13
ENDMDL
MODEL 4
REMARK VINA RESULT:      -6.9      6.734      8.600
REMARK  Name = 
REMARK  14 active torsions:
REMARK  status: ('A' for Active; 'I' for Inactive)
REMARK    1  A    between atoms: C_1  and  C_2
REMARK    2  A    between atoms: C_2  and  O_3
REMARK    3  A    between atoms: O_3  and  C_4
REMARK    4  A    between atoms: C_4  and  C_6
REMARK    5  A    between atoms: C_6  and  C_7
REMARK    6  A    between atoms: C_7  and  C_8
REMARK    7  A    between atoms: C_8  and  C_9
REMARK    8  A    between atoms: C_9  and  O_10
REMARK    9  A    between atoms: O_10  and  C_11
REMARK   10  A    between atoms: C_11  and  C_13
REMARK   11  A    between atoms: C_13  and  C_14
REMARK   12  A    between atoms: C_14  and  C_15
REMARK   13  A    between atoms: C_15  and  N_16
REMARK   14  A    between atoms: N_19  and  C_20
REMARK                            x       y       z     vdW  Elec       q    Type
REMARK                         _______ _______ _______ _____ _____    ______ ____
ROOT
ATOM      1  N   UNL     1       1.601   8.035  21.110  0.00  0.00    +0.000 N 
ATOM      2  C   UNL     1       2.088   7.145  20.178  0.00  0.00    +0.000 C 
ATOM      3  O   UNL     1       2.454   7.507  19.071  0.00  0.00    +0.000 OA
ATOM      4  N   UNL     1       2.109   5.852  20.623  0.00  0.00    +0.000 N 
ATOM      5  H   UNL     1       1.076   7.651  21.880  0.00  0.00    +0.000 HD
ATOM      6  H   UNL     1       2.105   5.721  21.625  0.00  0.00    +0.000 HD
ENDROOT
BRANCH   4   7
ATOM      7  C   UNL     1       2.551   4.739  19.776  0.00  0.00    +0.000 C 
ATOM      8  C   UNL     1       2.179   3.362  20.384  0.00  0.00    +0.000 C 
ATOM      9  C   UNL     1       2.679   2.215  19.489  0.00  0.00    +0.000 C 
ATOM     10  C   UNL     1       2.009   2.318  18.111  0.00  0.00    +0.000 C 
ATOM     11  C   UNL     1       2.344   3.674  17.467  0.00  0.00    +0.000 C 
ATOM     12  C   UNL     1       3.866   3.773  17.284  0.00  0.00    +0.000 C 
ATOM     13  C   UNL     1       4.563   3.665  18.649  0.00  0.00    +0.000 C 
ATOM     14  C   UNL     1       4.203   2.330  19.318  0.00  0.00    +0.000 C 
ATOM     15  C   UNL     1       4.086   4.813  19.547  0.00  0.00    +0.000 C 
ATOM     16  C   UNL     1       1.863   4.821  18.387  0.00  0.00    +0.000 C 
ENDBRANCH   4   7
BRANCH   1  17
ATOM     17  C   UNL     1       1.379   9.418  20.736  0.00  0.00    +0.000 C 
BRANCH  17  18
ATOM     18  C   UNL     1      -0.101   9.730  20.570  0.00  0.00    +0.000 C 
BRANCH  18  19
ATOM     19  C   UNL     1      -0.876   9.540  21.864  0.00  0.00    +0.000 C 
BRANCH  19  20
ATOM     20  C   UNL     1      -0.233  10.185  23.073  0.00  0.00    +0.000 C 
ATOM     21  O   UNL     1       0.393   9.572  23.927  0.00  0.00    +0.000 OA
BRANCH  20  22
ATOM     22  O   UNL     1      -0.590  11.492  23.143  0.00  0.00    +0.000 OA
BRANCH  22  23
ATOM     23  C   UNL     1      -1.993  11.723  23.008  0.00  0.00    +0.000 C 
BRANCH  23  24
ATOM     24  C   UNL     1      -2.329  13.156  22.610  0.00  0.00    +0.000 C 
BRANCH  24  25
ATOM     25  C   UNL     1      -1.970  13.444  21.156  0.00  0.00    +0.000 C 
BRANCH  25  26
ATOM     26  C   UNL     1      -2.670  12.489  20.192  0.00  0.00    +0.000 C 
BRANCH  26  27
ATOM     27  C   UNL     1      -1.872  12.347  18.919  0.00  0.00    +0.000 C 
ATOM     28  O   UNL     1      -0.697  12.658  18.784  0.00  0.00    +0.000 OA
BRANCH  27  29
ATOM     29  O   UNL     1      -2.691  11.916  17.919  0.00  0.00    +0.000 OA
BRANCH  29  31
ATOM     30  C   UNL     1      -3.127   9.603  17.551  0.00  0.00    +0.000 C 
ATOM     31  C   UNL     1      -2.212  10.765  17.209  0.00  0.00    +0.000 C 
ENDBRANCH  29  31
ENDBRANCH  27  29
ENDBRANCH  26  27
ENDBRANCH  25  26
ENDBRANCH  24  25
ENDBRANCH  23  24
ENDBRANCH  22  23
ENDBRANCH  20  22
ENDBRANCH  19  20
ENDBRANCH  18  19
ENDBRANCH  17  18
ENDBRANCH   1  17
TORSDOF 13
ENDMDL
MODEL 5
REMARK VINA RESULT:      -6.9      1.698      2.798
REMARK  Name = 
REMARK  14 active torsions:
REMARK  status: ('A' for Active; 'I' for Inactive)
REMARK    1  A    between atoms: C_1  and  C_2
REMARK    2  A    between atoms: C_2  and  O_3
REMARK    3  A    between atoms: O_3  and  C_4
REMARK    4  A    between atoms: C_4  and  C_6
REMARK    5  A    between atoms: C_6  and  C_7
REMARK    6  A    between atoms: C_7  and  C_8
REMARK    7  A    between atoms: C_8  and  C_9
REMARK    8  A    between atoms: C_9  and  O_10
REMARK    9  A    between atoms: O_10  and  C_11
REMARK   10  A    between atoms: C_11  and  C_13
REMARK   11  A    between atoms: C_13  and  C_14
REMARK   12  A    between atoms: C_14  and  C_15
REMARK   13  A    between atoms: C_15  and  N_16
REMARK   14  A    between atoms: N_19  and  C_20
REMARK                            x       y       z     vdW  Elec       q    Type
REMARK                         _______ _______ _______ _____ _____    ______ ____
ROOT
ATOM      1  N   UNL     1       6.051   6.955  17.194  0.00  0.00    +0.000 N 
ATOM      2  C   UNL     1       5.490   5.929  17.923  0.00  0.00    +0.000 C 
ATOM      3  O   UNL     1       6.166   5.192  18.623  0.00  0.00    +0.000 OA
ATOM      4  N   UNL     1       4.134   5.835  17.773  0.00  0.00    +0.000 N 
ATOM      5  H   UNL     1       5.495   7.342  16.447  0.00  0.00    +0.000 HD
ATOM      6  H   UNL     1       3.658   6.669  17.456  0.00  0.00    +0.000 HD
ENDROOT
BRANCH   4   7
ATOM      7  C   UNL     1       3.343   4.788  18.428  0.00  0.00    +0.000 C 
ATOM      8  C   UNL     1       1.926   4.658  17.813  0.00  0.00    +0.000 C 
ATOM      9  C   UNL     1       1.113   3.571  18.537  0.00  0.00    +0.000 C 
ATOM     10  C   UNL     1       1.820   2.218  18.378  0.00  0.00    +0.000 C 
ATOM     11  C   UNL     1       3.237   2.297  18.969  0.00  0.00    +0.000 C 
ATOM     12  C   UNL     1       3.132   2.626  20.466  0.00  0.00    +0.000 C 
ATOM     13  C   UNL     1       2.420   3.974  20.655  0.00  0.00    +0.000 C 
ATOM     14  C   UNL     1       1.017   3.919  20.032  0.00  0.00    +0.000 C 
ATOM     15  C   UNL     1       3.231   5.070  19.951  0.00  0.00    +0.000 C 
ATOM     16  C   UNL     1       4.039   3.410  18.255  0.00  0.00    +0.000 C 
ENDBRANCH   4   7
BRANCH   1  17
ATOM     17  C   UNL     1       7.493   7.089  17.133  0.00  0.00    +0.000 C 
BRANCH  17  18
ATOM     18  C   UNL     1       8.026   7.985  18.241  0.00  0.00    +0.000 C 
BRANCH  18  19
ATOM     19  C   UNL     1       8.161   9.432  17.795  0.00  0.00    +0.000 C 
BRANCH  19  20
ATOM     20  C   UNL     1       9.145  10.244  18.613  0.00  0.00    +0.000 C 
ATOM     21  O   UNL     1       9.318  10.102  19.815  0.00  0.00    +0.000 OA
BRANCH  20  22
ATOM     22  O   UNL     1       9.668  11.236  17.851  0.00  0.00    +0.000 OA
BRANCH  22  23
ATOM     23  C   UNL     1      10.716  11.971  18.486  0.00  0.00    +0.000 C 
BRANCH  23  24
ATOM     24  C   UNL     1      10.281  13.358  18.947  0.00  0.00    +0.000 C 
BRANCH  24  25
ATOM     25  C   UNL     1       9.861  14.242  17.778  0.00  0.00    +0.000 C 
BRANCH  25  26
ATOM     26  C   UNL     1       8.650  15.109  18.119  0.00  0.00    +0.000 C 
BRANCH  26  27
ATOM     27  C   UNL     1       7.372  14.334  17.912  0.00  0.00    +0.000 C 
ATOM     28  O   UNL     1       7.267  13.310  17.252  0.00  0.00    +0.000 OA
BRANCH  27  29
ATOM     29  O   UNL     1       6.338  15.008  18.488  0.00  0.00    +0.000 OA
BRANCH  29  31
ATOM     30  C   UNL     1       4.017  14.540  18.751  0.00  0.00    +0.000 C 
ATOM     31  C   UNL     1       5.101  14.936  17.764  0.00  0.00    +0.000 C 
ENDBRANCH  29  31
ENDBRANCH  27  29
ENDBRANCH  26  27
ENDBRANCH  25  26
ENDBRANCH  24  25
ENDBRANCH  23  24
ENDBRANCH  22  23
ENDBRANCH  20  22
ENDBRANCH  19  20
ENDBRANCH  18  19
ENDBRANCH  17  18
ENDBRANCH   1  17
TORSDOF 13
ENDMDL
MODEL 6
REMARK VINA RESULT:      -6.7      5.469      7.988
REMARK  Name = 
REMARK  14 active torsions:
REMARK  status: ('A' for Active; 'I' for Inactive)
REMARK    1  A    between atoms: C_1  and  C_2
REMARK    2  A    between atoms: C_2  and  O_3
REMARK    3  A    between atoms: O_3  and  C_4
REMARK    4  A    between atoms: C_4  and  C_6
REMARK    5  A    between atoms: C_6  and  C_7
REMARK    6  A    between atoms: C_7  and  C_8
REMARK    7  A    between atoms: C_8  and  C_9
REMARK    8  A    between atoms: C_9  and  O_10
REMARK    9  A    between atoms: O_10  and  C_11
REMARK   10  A    between atoms: C_11  and  C_13
REMARK   11  A    between atoms: C_13  and  C_14
REMARK   12  A    between atoms: C_14  and  C_15
REMARK   13  A    between atoms: C_15  and  N_16
REMARK   14  A    between atoms: N_19  and  C_20
REMARK                            x       y       z     vdW  Elec       q    Type
REMARK                         _______ _______ _______ _____ _____    ______ ____
ROOT
ATOM      1  N   UNL     1       1.670   3.702  17.887  0.00  0.00    +0.000 N 
ATOM      2  C   UNL     1       3.044   3.756  17.789  0.00  0.00    +0.000 C 
ATOM      3  O   UNL     1       3.739   2.767  17.953  0.00  0.00    +0.000 OA
ATOM      4  N   UNL     1       3.518   5.006  17.501  0.00  0.00    +0.000 N 
ATOM      5  H   UNL     1       1.185   4.578  18.009  0.00  0.00    +0.000 HD
ATOM      6  H   UNL     1       2.865   5.646  17.068  0.00  0.00    +0.000 HD
ENDROOT
BRANCH   4   7
ATOM      7  C   UNL     1       4.952   5.294  17.393  0.00  0.00    +0.000 C 
ATOM      8  C   UNL     1       5.219   6.733  16.884  0.00  0.00    +0.000 C 
ATOM      9  C   UNL     1       6.729   6.997  16.756  0.00  0.00    +0.000 C 
ATOM     10  C   UNL     1       7.388   6.856  18.136  0.00  0.00    +0.000 C 
ATOM     11  C   UNL     1       7.145   5.442  18.688  0.00  0.00    +0.000 C 
ATOM     12  C   UNL     1       7.779   4.420  17.732  0.00  0.00    +0.000 C 
ATOM     13  C   UNL     1       7.144   4.545  16.339  0.00  0.00    +0.000 C 
ATOM     14  C   UNL     1       7.346   5.967  15.795  0.00  0.00    +0.000 C 
ATOM     15  C   UNL     1       5.639   4.268  16.450  0.00  0.00    +0.000 C 
ATOM     16  C   UNL     1       5.625   5.175  18.787  0.00  0.00    +0.000 C 
ENDBRANCH   4   7
BRANCH   1  17
ATOM     17  C   UNL     1       1.028   2.481  18.333  0.00  0.00    +0.000 C 
BRANCH  17  18
ATOM     18  C   UNL     1       0.778   2.488  19.834  0.00  0.00    +0.000 C 
BRANCH  18  19
ATOM     19  C   UNL     1       0.760   3.896  20.407  0.00  0.00    +0.000 C 
BRANCH  19  20
ATOM     20  C   UNL     1       2.024   4.280  21.148  0.00  0.00    +0.000 C 
ATOM     21  O   UNL     1       2.407   3.738  22.176  0.00  0.00    +0.000 OA
BRANCH  20  22
ATOM     22  O   UNL     1       2.560   5.397  20.598  0.00  0.00    +0.000 OA
BRANCH  22  23
ATOM     23  C   UNL     1       1.604   6.412  20.285  0.00  0.00    +0.000 C 
BRANCH  23  24
ATOM     24  C   UNL     1       1.813   7.697  21.079  0.00  0.00    +0.000 C 
BRANCH  24  25
ATOM     25  C   UNL     1       0.498   8.418  21.355  0.00  0.00    +0.000 C 
BRANCH  25  26
ATOM     26  C   UNL     1       0.145   9.412  20.251  0.00  0.00    +0.000 C 
BRANCH  26  27
ATOM     27  C   UNL     1       0.883  10.712  20.457  0.00  0.00    +0.000 C 
ATOM     28  O   UNL     1       1.082  11.247  21.539  0.00  0.00    +0.000 OA
BRANCH  27  29
ATOM     29  O   UNL     1       1.203  11.246  19.246  0.00  0.00    +0.000 OA
BRANCH  29  31
ATOM     30  C   UNL     1       1.118  13.607  18.936  0.00  0.00    +0.000 C 
ATOM     31  C   UNL     1       0.340  12.308  18.815  0.00  0.00    +0.000 C 
ENDBRANCH  29  31
ENDBRANCH  27  29
ENDBRANCH  26  27
ENDBRANCH  25  26
ENDBRANCH  24  25
ENDBRANCH  23  24
ENDBRANCH  22  23
ENDBRANCH  20  22
ENDBRANCH  19  20
ENDBRANCH  18  19
ENDBRANCH  17  18
ENDBRANCH   1  17
TORSDOF 13
ENDMDL
MODEL 7
REMARK VINA RESULT:      -6.7      5.442      8.045
REMARK  Name = 
REMARK  14 active torsions:
REMARK  status: ('A' for Active; 'I' for Inactive)
REMARK    1  A    between atoms: C_1  and  C_2
REMARK    2  A    between atoms: C_2  and  O_3
REMARK    3  A    between atoms: O_3  and  C_4
REMARK    4  A    between atoms: C_4  and  C_6
REMARK    5  A    between atoms: C_6  and  C_7
REMARK    6  A    between atoms: C_7  and  C_8
REMARK    7  A    between atoms: C_8  and  C_9
REMARK    8  A    between atoms: C_9  and  O_10
REMARK    9  A    between atoms: O_10  and  C_11
REMARK   10  A    between atoms: C_11  and  C_13
REMARK   11  A    between atoms: C_13  and  C_14
REMARK   12  A    between atoms: C_14  and  C_15
REMARK   13  A    between atoms: C_15  and  N_16
REMARK   14  A    between atoms: N_19  and  C_20
REMARK                            x       y       z     vdW  Elec       q    Type
REMARK                         _______ _______ _______ _____ _____    ______ ____
ROOT
ATOM      1  N   UNL     1       1.903   2.742  18.021  0.00  0.00    +0.000 N 
ATOM      2  C   UNL     1       3.226   3.128  18.035  0.00  0.00    +0.000 C 
ATOM      3  O   UNL     1       4.030   2.642  18.814  0.00  0.00    +0.000 OA
ATOM      4  N   UNL     1       3.520   4.089  17.106  0.00  0.00    +0.000 N 
ATOM      5  H   UNL     1       1.252   3.356  17.557  0.00  0.00    +0.000 HD
ATOM      6  H   UNL     1       2.886   4.166  16.323  0.00  0.00    +0.000 HD
ENDROOT
BRANCH   4   7
ATOM      7  C   UNL     1       4.860   4.671  16.979  0.00  0.00    +0.000 C 
ATOM      8  C   UNL     1       4.834   6.036  16.245  0.00  0.00    +0.000 C 
ATOM      9  C   UNL     1       6.254   6.608  16.103  0.00  0.00    +0.000 C 
ATOM     10  C   UNL     1       6.852   6.836  17.499  0.00  0.00    +0.000 C 
ATOM     11  C   UNL     1       6.894   5.507  18.272  0.00  0.00    +0.000 C 
ATOM     12  C   UNL     1       7.787   4.517  17.508  0.00  0.00    +0.000 C 
ATOM     13  C   UNL     1       7.216   4.278  16.102  0.00  0.00    +0.000 C 
ATOM     14  C   UNL     1       7.133   5.606  15.335  0.00  0.00    +0.000 C 
ATOM     15  C   UNL     1       5.804   3.691  16.230  0.00  0.00    +0.000 C 
ATOM     16  C   UNL     1       5.466   4.925  18.386  0.00  0.00    +0.000 C 
ENDBRANCH   4   7
BRANCH   1  17
ATOM     17  C   UNL     1       1.406   1.841  19.043  0.00  0.00    +0.000 C 
BRANCH  17  18
ATOM     18  C   UNL     1       0.960   2.591  20.289  0.00  0.00    +0.000 C 
BRANCH  18  19
ATOM     19  C   UNL     1       0.793   4.080  20.036  0.00  0.00    +0.000 C 
BRANCH  19  20
ATOM     20  C   UNL     1       1.758   4.953  20.811  0.00  0.00    +0.000 C 
ATOM     21  O   UNL     1       2.554   4.529  21.638  0.00  0.00    +0.000 OA
BRANCH  20  22
ATOM     22  O   UNL     1       1.494   6.261  20.568  0.00  0.00    +0.000 OA
BRANCH  22  23
ATOM     23  C   UNL     1       2.518   6.939  19.839  0.00  0.00    +0.000 C 
BRANCH  23  24
ATOM     24  C   UNL     1       2.184   7.119  18.362  0.00  0.00    +0.000 C 
BRANCH  24  25
ATOM     25  C   UNL     1       2.111   8.590  17.968  0.00  0.00    +0.000 C 
BRANCH  25  26
ATOM     26  C   UNL     1       1.193   9.387  18.892  0.00  0.00    +0.000 C 
BRANCH  26  27
ATOM     27  C   UNL     1       1.384  10.868  18.674  0.00  0.00    +0.000 C 
ATOM     28  O   UNL     1       2.320  11.379  18.076  0.00  0.00    +0.000 OA
BRANCH  27  29
ATOM     29  O   UNL     1       0.407  11.550  19.334  0.00  0.00    +0.000 OA
BRANCH  29  31
ATOM     30  C   UNL     1      -1.555  11.345  17.998  0.00  0.00    +0.000 C 
ATOM     31  C   UNL     1      -0.886  10.929  19.296  0.00  0.00    +0.000 C 
ENDBRANCH  29  31
ENDBRANCH  27  29
ENDBRANCH  26  27
ENDBRANCH  25  26
ENDBRANCH  24  25
ENDBRANCH  23  24
ENDBRANCH  22  23
ENDBRANCH  20  22
ENDBRANCH  19  20
ENDBRANCH  18  19
ENDBRANCH  17  18
ENDBRANCH   1  17
TORSDOF 13
ENDMDL
MODEL 8
REMARK VINA RESULT:      -6.7      5.765      8.768
REMARK  Name = 
REMARK  14 active torsions:
REMARK  status: ('A' for Active; 'I' for Inactive)
REMARK    1  A    between atoms: C_1  and  C_2
REMARK    2  A    between atoms: C_2  and  O_3
REMARK    3  A    between atoms: O_3  and  C_4
REMARK    4  A    between atoms: C_4  and  C_6
REMARK    5  A    between atoms: C_6  and  C_7
REMARK    6  A    between atoms: C_7  and  C_8
REMARK    7  A    between atoms: C_8  and  C_9
REMARK    8  A    between atoms: C_9  and  O_10
REMARK    9  A    between atoms: O_10  and  C_11
REMARK   10  A    between atoms: C_11  and  C_13
REMARK   11  A    between atoms: C_13  and  C_14
REMARK   12  A    between atoms: C_14  and  C_15
REMARK   13  A    between atoms: C_15  and  N_16
REMARK   14  A    between atoms: N_19  and  C_20
REMARK                            x       y       z     vdW  Elec       q    Type
REMARK                         _______ _______ _______ _____ _____    ______ ____
ROOT
ATOM      1  N   UNL     1       4.019   2.519  20.284  0.00  0.00    +0.000 N 
ATOM      2  C   UNL     1       4.428   3.633  19.583  0.00  0.00    +0.000 C 
ATOM      3  O   UNL     1       4.153   4.763  19.953  0.00  0.00    +0.000 OA
ATOM      4  N   UNL     1       5.151   3.332  18.462  0.00  0.00    +0.000 N 
ATOM      5  H   UNL     1       4.042   1.637  19.796  0.00  0.00    +0.000 HD
ATOM      6  H   UNL     1       5.590   2.421  18.440  0.00  0.00    +0.000 HD
ENDROOT
BRANCH   4   7
ATOM      7  C   UNL     1       5.649   4.367  17.549  0.00  0.00    +0.000 C 
ATOM      8  C   UNL     1       7.181   4.266  17.336  0.00  0.00    +0.000 C 
ATOM      9  C   UNL     1       7.677   5.379  16.397  0.00  0.00    +0.000 C 
ATOM     10  C   UNL     1       7.000   5.227  15.027  0.00  0.00    +0.000 C 
ATOM     11  C   UNL     1       5.473   5.313  15.187  0.00  0.00    +0.000 C 
ATOM     12  C   UNL     1       5.112   6.690  15.765  0.00  0.00    +0.000 C 
ATOM     13  C   UNL     1       5.784   6.873  17.134  0.00  0.00    +0.000 C 
ATOM     14  C   UNL     1       7.308   6.749  16.992  0.00  0.00    +0.000 C 
ATOM     15  C   UNL     1       5.285   5.778  18.085  0.00  0.00    +0.000 C 
ATOM     16  C   UNL     1       4.987   4.209  16.154  0.00  0.00    +0.000 C 
ENDBRANCH   4   7
BRANCH   1  17
ATOM     17  C   UNL     1       3.120   2.669  21.412  0.00  0.00    +0.000 C 
BRANCH  17  18
ATOM     18  C   UNL     1       1.696   2.266  21.058  0.00  0.00    +0.000 C 
BRANCH  18  19
ATOM     19  C   UNL     1       0.967   3.353  20.285  0.00  0.00    +0.000 C 
BRANCH  19  20
ATOM     20  C   UNL     1       0.756   3.036  18.819  0.00  0.00    +0.000 C 
ATOM     21  O   UNL     1       0.175   2.041  18.409  0.00  0.00    +0.000 OA
BRANCH  20  22
ATOM     22  O   UNL     1       1.440   3.922  18.053  0.00  0.00    +0.000 OA
BRANCH  22  23
ATOM     23  C   UNL     1       1.423   5.260  18.550  0.00  0.00    +0.000 C 
BRANCH  23  24
ATOM     24  C   UNL     1       2.085   6.259  17.607  0.00  0.00    +0.000 C 
BRANCH  24  25
ATOM     25  C   UNL     1       2.092   7.671  18.183  0.00  0.00    +0.000 C 
BRANCH  25  26
ATOM     26  C   UNL     1       2.184   7.669  19.707  0.00  0.00    +0.000 C 
BRANCH  26  27
ATOM     27  C   UNL     1       1.218   8.667  20.295  0.00  0.00    +0.000 C 
ATOM     28  O   UNL     1       0.971   9.770  19.828  0.00  0.00    +0.000 OA
BRANCH  27  29
ATOM     29  O   UNL     1       0.742   8.191  21.479  0.00  0.00    +0.000 OA
BRANCH  29  31
ATOM     30  C   UNL     1       0.017   9.566  23.284  0.00  0.00    +0.000 C 
ATOM     31  C   UNL     1      -0.401   8.892  21.988  0.00  0.00    +0.000 C 
ENDBRANCH  29  31
ENDBRANCH  27  29
ENDBRANCH  26  27
ENDBRANCH  25  26
ENDBRANCH  24  25
ENDBRANCH  23  24
ENDBRANCH  22  23
ENDBRANCH  20  22
ENDBRANCH  19  20
ENDBRANCH  18  19
ENDBRANCH  17  18
ENDBRANCH   1  17
TORSDOF 13
ENDMDL
MODEL 9
REMARK VINA RESULT:      -6.7      5.583      8.975
REMARK  Name = 
REMARK  14 active torsions:
REMARK  status: ('A' for Active; 'I' for Inactive)
REMARK    1  A    between atoms: C_1  and  C_2
REMARK    2  A    between atoms: C_2  and  O_3
REMARK    3  A    between atoms: O_3  and  C_4
REMARK    4  A    between atoms: C_4  and  C_6
REMARK    5  A    between atoms: C_6  and  C_7
REMARK    6  A    between atoms: C_7  and  C_8
REMARK    7  A    between atoms: C_8  and  C_9
REMARK    8  A    between atoms: C_9  and  O_10
REMARK    9  A    between atoms: O_10  and  C_11
REMARK   10  A    between atoms: C_11  and  C_13
REMARK   11  A    between atoms: C_13  and  C_14
REMARK   12  A    between atoms: C_14  and  C_15
REMARK   13  A    between atoms: C_15  and  N_16
REMARK   14  A    between atoms: N_19  and  C_20
REMARK                            x       y       z     vdW  Elec       q    Type
REMARK                         _______ _______ _______ _____ _____    ______ ____
ROOT
ATOM      1  N   UNL     1       2.165   6.765  20.145  0.00  0.00    +0.000 N 
ATOM      2  C   UNL     1       1.491   7.922  20.471  0.00  0.00    +0.000 C 
ATOM      3  O   UNL     1       0.900   8.046  21.531  0.00  0.00    +0.000 OA
ATOM      4  N   UNL     1       1.560   8.881  19.498  0.00  0.00    +0.000 N 
ATOM      5  H   UNL     1       2.394   6.627  19.172  0.00  0.00    +0.000 HD
ATOM      6  H   UNL     1       2.325   8.803  18.842  0.00  0.00    +0.000 HD
ENDROOT
BRANCH   4   7
ATOM      7  C   UNL     1       0.878  10.175  19.623  0.00  0.00    +0.000 C 
ATOM      8  C   UNL     1       1.503  11.252  18.701  0.00  0.00    +0.000 C 
ATOM      9  C   UNL     1       0.785  12.602  18.873  0.00  0.00    +0.000 C 
ATOM     10  C   UNL     1      -0.691  12.447  18.482  0.00  0.00    +0.000 C 
ATOM     11  C   UNL     1      -1.356  11.379  19.368  0.00  0.00    +0.000 C 
ATOM     12  C   UNL     1      -1.279  11.833  20.834  0.00  0.00    +0.000 C 
ATOM     13  C   UNL     1       0.190  12.006  21.250  0.00  0.00    +0.000 C 
ATOM     14  C   UNL     1       0.874  13.041  20.345  0.00  0.00    +0.000 C 
ATOM     15  C   UNL     1       0.913  10.662  21.098  0.00  0.00    +0.000 C 
ATOM     16  C   UNL     1      -0.611  10.033  19.209  0.00  0.00    +0.000 C 
ENDBRANCH   4   7
BRANCH   1  17
ATOM     17  C   UNL     1       2.060   5.605  21.008  0.00  0.00    +0.000 C 
BRANCH  17  18
ATOM     18  C   UNL     1       1.034   4.606  20.493  0.00  0.00    +0.000 C 
BRANCH  18  19
ATOM     19  C   UNL     1       1.685   3.418  19.803  0.00  0.00    +0.000 C 
BRANCH  19  20
ATOM     20  C   UNL     1       3.041   3.043  20.362  0.00  0.00    +0.000 C 
ATOM     21  O   UNL     1       3.218   2.576  21.479  0.00  0.00    +0.000 OA
BRANCH  20  22
ATOM     22  O   UNL     1       4.018   3.449  19.513  0.00  0.00    +0.000 OA
BRANCH  22  23
ATOM     23  C   UNL     1       3.903   2.917  18.192  0.00  0.00    +0.000 C 
BRANCH  23  24
ATOM     24  C   UNL     1       4.258   3.928  17.106  0.00  0.00    +0.000 C 
BRANCH  24  25
ATOM     25  C   UNL     1       3.699   5.313  17.411  0.00  0.00    +0.000 C 
BRANCH  25  26
ATOM     26  C   UNL     1       4.804   6.337  17.659  0.00  0.00    +0.000 C 
BRANCH  26  27
ATOM     27  C   UNL     1       5.581   6.591  16.391  0.00  0.00    +0.000 C 
ATOM     28  O   UNL     1       5.091   6.748  15.282  0.00  0.00    +0.000 OA
BRANCH  27  29
ATOM     29  O   UNL     1       6.915   6.518  16.658  0.00  0.00    +0.000 OA
BRANCH  29  31
ATOM     30  C   UNL     1       7.784   4.619  17.804  0.00  0.00    +0.000 C 
ATOM     31  C   UNL     1       7.237   6.026  17.966  0.00  0.00    +0.000 C 
ENDBRANCH  29  31
ENDBRANCH  27  29
ENDBRANCH  26  27
ENDBRANCH  25  26
ENDBRANCH  24  25
ENDBRANCH  23  24
ENDBRANCH  22  23
ENDBRANCH  20  22
ENDBRANCH  19  20
ENDBRANCH  18  19
ENDBRANCH  17  18
ENDBRANCH   1  17
TORSDOF 13
ENDMDL
