MODEL 1
REMARK VINA RESULT:     -10.0      0.000      0.000
REMARK  Name = 
REMARK  6 active torsions:
REMARK  status: ('A' for Active; 'I' for Inactive)
REMARK    1  A    between atoms: C_2  and  C_16
REMARK    2  A    between atoms: N_3  and  N_4
REMARK    3  A    between atoms: C_5  and  C_6
REMARK    4  A    between atoms: C_10  and  C_11
REMARK    5  A    between atoms: C_18  and  C_19
REMARK    6  A    between atoms: C_29  and  O_30
REMARK                            x       y       z     vdW  Elec       q    Type
REMARK                         _______ _______ _______ _____ _____    ______ ____
ROOT
ATOM      1  O   UNL     1       8.437   6.349  18.612  0.00  0.00    +0.000 OA
ATOM      2  C   UNL     1       7.613   6.771  17.803  0.00  0.00    +0.000 C 
ATOM      3  N   UNL     1       7.628   8.037  17.247  0.00  0.00    +0.000 N 
ATOM      4  H   UNL     1       6.897   8.289  16.587  0.00  0.00    +0.000 HD
ENDROOT
BRANCH   2   5
ATOM      5  C   UNL     1       6.507   5.869  17.337  0.00  0.00    +0.000 A 
ATOM      6  C   UNL     1       5.499   5.546  18.269  0.00  0.00    +0.000 A 
ATOM      7  C   UNL     1       4.460   4.642  17.971  0.00  0.00    +0.000 A 
ATOM      8  C   UNL     1       4.436   4.112  16.668  0.00  0.00    +0.000 A 
ATOM      9  C   UNL     1       5.404   4.444  15.717  0.00  0.00    +0.000 A 
ATOM     10  C   UNL     1       6.444   5.305  16.055  0.00  0.00    +0.000 A 
BRANCH   7  11
ATOM     11  C   UNL     1       3.487   4.191  18.999  0.00  0.00    +0.000 A 
ATOM     12  C   UNL     1       3.881   3.311  20.029  0.00  0.00    +0.000 A 
ATOM     13  C   UNL     1       2.953   2.786  20.936  0.00  0.00    +0.000 A 
ATOM     14  C   UNL     1       1.614   3.131  20.825  0.00  0.00    +0.000 A 
ATOM     15  F   UNL     1       0.721   2.596  21.667  0.00  0.00    +0.000 F 
ATOM     16  C   UNL     1       1.189   4.015  19.849  0.00  0.00    +0.000 A 
ATOM     17  C   UNL     1       2.122   4.544  18.960  0.00  0.00    +0.000 A 
ATOM     18  F   UNL     1       1.666   5.406  18.037  0.00  0.00    +0.000 F 
ENDBRANCH   7  11
BRANCH  10  19
ATOM     19  O   UNL     1       7.402   5.569  15.110  0.00  0.00    +0.000 OA
ATOM     20  H   UNL     1       6.961   5.895  14.304  0.00  0.00    +0.000 HD
ENDBRANCH  10  19
ENDBRANCH   2   5
BRANCH   3  21
ATOM     21  N   UNL     1       8.584   8.941  17.587  0.00  0.00    +0.000 NA
ATOM     22  C   UNL     1       8.181   9.902  18.354  0.00  0.00    +0.000 C 
BRANCH  22  23
ATOM     23  C   UNL     1       9.112  10.945  18.823  0.00  0.00    +0.000 A 
ATOM     24  C   UNL     1       9.493  10.967  20.165  0.00  0.00    +0.000 A 
ATOM     25  C   UNL     1      10.394  11.935  20.610  0.00  0.00    +0.000 A 
ATOM     26  C   UNL     1      10.908  12.879  19.716  0.00  0.00    +0.000 A 
ATOM     27  C   UNL     1      10.524  12.871  18.365  0.00  0.00    +0.000 A 
ATOM     28  C   UNL     1       9.618  11.893  17.927  0.00  0.00    +0.000 A 
BRANCH  27  29
ATOM     29  C   UNL     1      11.065  13.882  17.388  0.00  0.00    +0.000 C 
ATOM     30  F   UNL     1      11.116  13.419  16.105  0.00  0.00    +0.000 F 
ATOM     31  F   UNL     1      10.315  15.018  17.339  0.00  0.00    +0.000 F 
ATOM     32  F   UNL     1      12.332  14.278  17.689  0.00  0.00    +0.000 F 
ENDBRANCH  27  29
ENDBRANCH  22  23
ENDBRANCH   3  21
TORSDOF 6
ENDMDL
MODEL 2
REMARK VINA RESULT:      -9.9      0.925      1.218
REMARK  Name = 
REMARK  6 active torsions:
REMARK  status: ('A' for Active; 'I' for Inactive)
REMARK    1  A    between atoms: C_2  and  C_16
REMARK    2  A    between atoms: N_3  and  N_4
REMARK    3  A    between atoms: C_5  and  C_6
REMARK    4  A    between atoms: C_10  and  C_11
REMARK    5  A    between atoms: C_18  and  C_19
REMARK    6  A    between atoms: C_29  and  O_30
REMARK                            x       y       z     vdW  Elec       q    Type
REMARK                         _______ _______ _______ _____ _____    ______ ____
ROOT
ATOM      1  O   UNL     1       8.148   6.088  18.987  0.00  0.00    +0.000 OA
ATOM      2  C   UNL     1       7.509   6.631  18.089  0.00  0.00    +0.000 C 
ATOM      3  N   UNL     1       7.662   7.948  17.694  0.00  0.00    +0.000 N 
ATOM      4  H   UNL     1       7.080   8.302  16.940  0.00  0.00    +0.000 HD
ENDROOT
BRANCH   2   5
ATOM      5  C   UNL     1       6.493   5.836  17.320  0.00  0.00    +0.000 A 
ATOM      6  C   UNL     1       5.343   5.410  18.017  0.00  0.00    +0.000 A 
ATOM      7  C   UNL     1       4.366   4.586  17.423  0.00  0.00    +0.000 A 
ATOM      8  C   UNL     1       4.557   4.250  16.071  0.00  0.00    +0.000 A 
ATOM      9  C   UNL     1       5.670   4.689  15.350  0.00  0.00    +0.000 A 
ATOM     10  C   UNL     1       6.642   5.464  15.977  0.00  0.00    +0.000 A 
BRANCH   7  11
ATOM     11  C   UNL     1       3.234   4.019  18.201  0.00  0.00    +0.000 A 
ATOM     12  C   UNL     1       2.791   2.699  17.973  0.00  0.00    +0.000 A 
ATOM     13  C   UNL     1       1.655   2.189  18.612  0.00  0.00    +0.000 A 
ATOM     14  C   UNL     1       0.941   2.993  19.489  0.00  0.00    +0.000 A 
ATOM     15  F   UNL     1      -0.169   2.518  20.068  0.00  0.00    +0.000 F 
ATOM     16  C   UNL     1       1.357   4.284  19.763  0.00  0.00    +0.000 A 
ATOM     17  C   UNL     1       2.498   4.778  19.134  0.00  0.00    +0.000 A 
ATOM     18  F   UNL     1       2.870   6.031  19.441  0.00  0.00    +0.000 F 
ENDBRANCH   7  11
BRANCH  10  19
ATOM     19  O   UNL     1       7.745   5.835  15.251  0.00  0.00    +0.000 OA
ATOM     20  H   UNL     1       8.527   5.791  15.832  0.00  0.00    +0.000 HD
ENDBRANCH  10  19
ENDBRANCH   2   5
BRANCH   3  21
ATOM     21  N   UNL     1       8.555   8.765  18.311  0.00  0.00    +0.000 NA
ATOM     22  C   UNL     1       8.465  10.015  17.991  0.00  0.00    +0.000 C 
BRANCH  22  23
ATOM     23  C   UNL     1       9.354  11.025  18.596  0.00  0.00    +0.000 A 
ATOM     24  C   UNL     1       9.764  10.866  19.920  0.00  0.00    +0.000 A 
ATOM     25  C   UNL     1      10.627  11.804  20.490  0.00  0.00    +0.000 A 
ATOM     26  C   UNL     1      11.073  12.895  19.739  0.00  0.00    +0.000 A 
ATOM     27  C   UNL     1      10.659  13.067  18.409  0.00  0.00    +0.000 A 
ATOM     28  C   UNL     1       9.792  12.120  17.843  0.00  0.00    +0.000 A 
BRANCH  27  29
ATOM     29  C   UNL     1      11.126  14.239  17.585  0.00  0.00    +0.000 C 
ATOM     30  F   UNL     1      12.127  14.952  18.178  0.00  0.00    +0.000 F 
ATOM     31  F   UNL     1      11.611  13.865  16.368  0.00  0.00    +0.000 F 
ATOM     32  F   UNL     1      10.132  15.136  17.335  0.00  0.00    +0.000 F 
ENDBRANCH  27  29
ENDBRANCH  22  23
ENDBRANCH   3  21
TORSDOF 6
ENDMDL
MODEL 3
REMARK VINA RESULT:      -9.8      1.157      1.511
REMARK  Name = 
REMARK  6 active torsions:
REMARK  status: ('A' for Active; 'I' for Inactive)
REMARK    1  A    between atoms: C_2  and  C_16
REMARK    2  A    between atoms: N_3  and  N_4
REMARK    3  A    between atoms: C_5  and  C_6
REMARK    4  A    between atoms: C_10  and  C_11
REMARK    5  A    between atoms: C_18  and  C_19
REMARK    6  A    between atoms: C_29  and  O_30
REMARK                            x       y       z     vdW  Elec       q    Type
REMARK                         _______ _______ _______ _____ _____    ______ ____
ROOT
ATOM      1  O   UNL     1       8.207   6.198  18.987  0.00  0.00    +0.000 OA
ATOM      2  C   UNL     1       7.579   6.688  18.051  0.00  0.00    +0.000 C 
ATOM      3  N   UNL     1       7.717   7.989  17.601  0.00  0.00    +0.000 N 
ATOM      4  H   UNL     1       7.147   8.297  16.818  0.00  0.00    +0.000 HD
ENDROOT
BRANCH   2   5
ATOM      5  C   UNL     1       6.597   5.840  17.296  0.00  0.00    +0.000 A 
ATOM      6  C   UNL     1       5.473   5.366  18.004  0.00  0.00    +0.000 A 
ATOM      7  C   UNL     1       4.531   4.493  17.425  0.00  0.00    +0.000 A 
ATOM      8  C   UNL     1       4.729   4.155  16.074  0.00  0.00    +0.000 A 
ATOM      9  C   UNL     1       5.815   4.639  15.341  0.00  0.00    +0.000 A 
ATOM     10  C   UNL     1       6.754   5.465  15.955  0.00  0.00    +0.000 A 
BRANCH   7  11
ATOM     11  C   UNL     1       3.433   3.880  18.215  0.00  0.00    +0.000 A 
ATOM     12  C   UNL     1       2.083   4.146  17.903  0.00  0.00    +0.000 A 
ATOM     13  C   UNL     1       1.039   3.672  18.706  0.00  0.00    +0.000 A 
ATOM     14  C   UNL     1       1.330   2.924  19.838  0.00  0.00    +0.000 A 
ATOM     15  F   UNL     1       0.333   2.506  20.628  0.00  0.00    +0.000 F 
ATOM     16  C   UNL     1       2.638   2.614  20.164  0.00  0.00    +0.000 A 
ATOM     17  C   UNL     1       3.670   3.077  19.350  0.00  0.00    +0.000 A 
ATOM     18  F   UNL     1       4.922   2.742  19.700  0.00  0.00    +0.000 F 
ENDBRANCH   7  11
BRANCH  10  19
ATOM     19  O   UNL     1       7.833   5.881  15.218  0.00  0.00    +0.000 OA
ATOM     20  H   UNL     1       7.776   5.480  14.331  0.00  0.00    +0.000 HD
ENDBRANCH  10  19
ENDBRANCH   2   5
BRANCH   3  21
ATOM     21  N   UNL     1       8.581   8.850  18.200  0.00  0.00    +0.000 NA
ATOM     22  C   UNL     1       8.448  10.089  17.851  0.00  0.00    +0.000 C 
BRANCH  22  23
ATOM     23  C   UNL     1       9.301  11.142  18.434  0.00  0.00    +0.000 A 
ATOM     24  C   UNL     1      10.116  10.834  19.524  0.00  0.00    +0.000 A 
ATOM     25  C   UNL     1      10.945  11.818  20.064  0.00  0.00    +0.000 A 
ATOM     26  C   UNL     1      10.954  13.105  19.517  0.00  0.00    +0.000 A 
ATOM     27  C   UNL     1      10.132  13.426  18.425  0.00  0.00    +0.000 A 
ATOM     28  C   UNL     1       9.302  12.430  17.889  0.00  0.00    +0.000 A 
BRANCH  27  29
ATOM     29  C   UNL     1      10.126  14.808  17.825  0.00  0.00    +0.000 C 
ATOM     30  F   UNL     1      10.887  14.910  16.697  0.00  0.00    +0.000 F 
ATOM     31  F   UNL     1       8.878  15.219  17.466  0.00  0.00    +0.000 F 
ATOM     32  F   UNL     1      10.604  15.755  18.679  0.00  0.00    +0.000 F 
ENDBRANCH  27  29
ENDBRANCH  22  23
ENDBRANCH   3  21
TORSDOF 6
ENDMDL
MODEL 4
REMARK VINA RESULT:      -9.8      0.805      1.210
REMARK  Name = 
REMARK  6 active torsions:
REMARK  status: ('A' for Active; 'I' for Inactive)
REMARK    1  A    between atoms: C_2  and  C_16
REMARK    2  A    between atoms: N_3  and  N_4
REMARK    3  A    between atoms: C_5  and  C_6
REMARK    4  A    between atoms: C_10  and  C_11
REMARK    5  A    between atoms: C_18  and  C_19
REMARK    6  A    between atoms: C_29  and  O_30
REMARK                            x       y       z     vdW  Elec       q    Type
REMARK                         _______ _______ _______ _____ _____    ______ ____
ROOT
ATOM      1  O   UNL     1       8.258   6.435  18.949  0.00  0.00    +0.000 OA
ATOM      2  C   UNL     1       7.546   6.812  18.021  0.00  0.00    +0.000 C 
ATOM      3  N   UNL     1       7.675   8.024  17.367  0.00  0.00    +0.000 N 
ATOM      4  H   UNL     1       7.031   8.241  16.610  0.00  0.00    +0.000 HD
ENDROOT
BRANCH   2   5
ATOM      5  C   UNL     1       6.459   5.911  17.511  0.00  0.00    +0.000 A 
ATOM      6  C   UNL     1       5.434   5.558  18.413  0.00  0.00    +0.000 A 
ATOM      7  C   UNL     1       4.411   4.651  18.073  0.00  0.00    +0.000 A 
ATOM      8  C   UNL     1       4.419   4.151  16.759  0.00  0.00    +0.000 A 
ATOM      9  C   UNL     1       5.404   4.513  15.836  0.00  0.00    +0.000 A 
ATOM     10  C   UNL     1       6.428   5.376  16.216  0.00  0.00    +0.000 A 
BRANCH   7  11
ATOM     11  C   UNL     1       3.421   4.168  19.070  0.00  0.00    +0.000 A 
ATOM     12  C   UNL     1       3.808   3.296  20.109  0.00  0.00    +0.000 A 
ATOM     13  C   UNL     1       2.869   2.741  20.986  0.00  0.00    +0.000 A 
ATOM     14  C   UNL     1       1.524   3.048  20.835  0.00  0.00    +0.000 A 
ATOM     15  F   UNL     1       0.622   2.483  21.648  0.00  0.00    +0.000 F 
ATOM     16  C   UNL     1       1.104   3.921  19.848  0.00  0.00    +0.000 A 
ATOM     17  C   UNL     1       2.048   4.481  18.990  0.00  0.00    +0.000 A 
ATOM     18  F   UNL     1       1.595   5.333  18.055  0.00  0.00    +0.000 F 
ENDBRANCH   7  11
BRANCH  10  19
ATOM     19  O   UNL     1       7.404   5.670  15.297  0.00  0.00    +0.000 OA
ATOM     20  H   UNL     1       8.194   5.139  15.506  0.00  0.00    +0.000 HD
ENDBRANCH  10  19
ENDBRANCH   2   5
BRANCH   3  21
ATOM     21  N   UNL     1       8.627   8.921  17.734  0.00  0.00    +0.000 NA
ATOM     22  C   UNL     1       8.182  10.096  18.045  0.00  0.00    +0.000 C 
BRANCH  22  23
ATOM     23  C   UNL     1       9.095  11.167  18.484  0.00  0.00    +0.000 A 
ATOM     24  C   UNL     1      10.191  10.843  19.285  0.00  0.00    +0.000 A 
ATOM     25  C   UNL     1      11.074  11.848  19.683  0.00  0.00    +0.000 A 
ATOM     26  C   UNL     1      10.859  13.170  19.283  0.00  0.00    +0.000 A 
ATOM     27  C   UNL     1       9.754  13.507  18.484  0.00  0.00    +0.000 A 
ATOM     28  C   UNL     1       8.872  12.490  18.089  0.00  0.00    +0.000 A 
BRANCH  27  29
ATOM     29  C   UNL     1       9.504  14.927  18.047  0.00  0.00    +0.000 C 
ATOM     30  F   UNL     1       9.637  15.835  19.056  0.00  0.00    +0.000 F 
ATOM     31  F   UNL     1      10.361  15.334  17.070  0.00  0.00    +0.000 F 
ATOM     32  F   UNL     1       8.249  15.109  17.549  0.00  0.00    +0.000 F 
ENDBRANCH  27  29
ENDBRANCH  22  23
ENDBRANCH   3  21
TORSDOF 6
ENDMDL
MODEL 5
REMARK VINA RESULT:      -9.7      1.891      2.360
REMARK  Name = 
REMARK  6 active torsions:
REMARK  status: ('A' for Active; 'I' for Inactive)
REMARK    1  A    between atoms: C_2  and  C_16
REMARK    2  A    between atoms: N_3  and  N_4
REMARK    3  A    between atoms: C_5  and  C_6
REMARK    4  A    between atoms: C_10  and  C_11
REMARK    5  A    between atoms: C_18  and  C_19
REMARK    6  A    between atoms: C_29  and  O_30
REMARK                            x       y       z     vdW  Elec       q    Type
REMARK                         _______ _______ _______ _____ _____    ______ ____
ROOT
ATOM      1  O   UNL     1       8.271   6.134  19.083  0.00  0.00    +0.000 OA
ATOM      2  C   UNL     1       7.577   6.658  18.214  0.00  0.00    +0.000 C 
ATOM      3  N   UNL     1       7.705   7.966  17.782  0.00  0.00    +0.000 N 
ATOM      4  H   UNL     1       7.077   8.304  17.057  0.00  0.00    +0.000 HD
ENDROOT
BRANCH   2   5
ATOM      5  C   UNL     1       6.517   5.847  17.525  0.00  0.00    +0.000 A 
ATOM      6  C   UNL     1       5.401   5.456  18.293  0.00  0.00    +0.000 A 
ATOM      7  C   UNL     1       4.388   4.622  17.779  0.00  0.00    +0.000 A 
ATOM      8  C   UNL     1       4.508   4.238  16.432  0.00  0.00    +0.000 A 
ATOM      9  C   UNL     1       5.587   4.640  15.641  0.00  0.00    +0.000 A 
ATOM     10  C   UNL     1       6.595   5.428  16.190  0.00  0.00    +0.000 A 
BRANCH   7  11
ATOM     11  C   UNL     1       3.293   4.093  18.632  0.00  0.00    +0.000 A 
ATOM     12  C   UNL     1       2.465   4.967  19.368  0.00  0.00    +0.000 A 
ATOM     13  C   UNL     1       1.506   4.483  20.265  0.00  0.00    +0.000 A 
ATOM     14  C   UNL     1       1.361   3.114  20.442  0.00  0.00    +0.000 A 
ATOM     15  F   UNL     1       0.471   2.653  21.330  0.00  0.00    +0.000 F 
ATOM     16  C   UNL     1       2.131   2.222  19.718  0.00  0.00    +0.000 A 
ATOM     17  C   UNL     1       3.073   2.712  18.816  0.00  0.00    +0.000 A 
ATOM     18  F   UNL     1       3.788   1.809  18.128  0.00  0.00    +0.000 F 
ENDBRANCH   7  11
BRANCH  10  19
ATOM     19  O   UNL     1       7.663   5.763  15.397  0.00  0.00    +0.000 OA
ATOM     20  H   UNL     1       8.428   5.218  15.661  0.00  0.00    +0.000 HD
ENDBRANCH  10  19
ENDBRANCH   2   5
BRANCH   3  21
ATOM     21  N   UNL     1       8.633   8.796  18.325  0.00  0.00    +0.000 NA
ATOM     22  C   UNL     1       8.553  10.031  17.945  0.00  0.00    +0.000 C 
BRANCH  22  23
ATOM     23  C   UNL     1       9.480  11.052  18.467  0.00  0.00    +0.000 A 
ATOM     24  C   UNL     1      10.632  11.360  17.745  0.00  0.00    +0.000 A 
ATOM     25  C   UNL     1      11.500  12.345  18.220  0.00  0.00    +0.000 A 
ATOM     26  C   UNL     1      11.216  13.014  19.414  0.00  0.00    +0.000 A 
ATOM     27  C   UNL     1      10.063  12.704  20.152  0.00  0.00    +0.000 A 
ATOM     28  C   UNL     1       9.196  11.714  19.666  0.00  0.00    +0.000 A 
BRANCH  27  29
ATOM     29  C   UNL     1       9.742  13.412  21.443  0.00  0.00    +0.000 C 
ATOM     30  F   UNL     1       8.521  14.023  21.435  0.00  0.00    +0.000 F 
ATOM     31  F   UNL     1       9.725  12.570  22.513  0.00  0.00    +0.000 F 
ATOM     32  F   UNL     1      10.641  14.389  21.744  0.00  0.00    +0.000 F 
ENDBRANCH  27  29
ENDBRANCH  22  23
ENDBRANCH   3  21
TORSDOF 6
ENDMDL
MODEL 6
REMARK VINA RESULT:      -9.5      1.416      1.904
REMARK  Name = 
REMARK  6 active torsions:
REMARK  status: ('A' for Active; 'I' for Inactive)
REMARK    1  A    between atoms: C_2  and  C_16
REMARK    2  A    between atoms: N_3  and  N_4
REMARK    3  A    between atoms: C_5  and  C_6
REMARK    4  A    between atoms: C_10  and  C_11
REMARK    5  A    between atoms: C_18  and  C_19
REMARK    6  A    between atoms: C_29  and  O_30
REMARK                            x       y       z     vdW  Elec       q    Type
REMARK                         _______ _______ _______ _____ _____    ______ ____
ROOT
ATOM      1  O   UNL     1       8.117   6.468  18.896  0.00  0.00    +0.000 OA
ATOM      2  C   UNL     1       7.361   6.597  17.936  0.00  0.00    +0.000 C 
ATOM      3  N   UNL     1       7.344   7.687  17.084  0.00  0.00    +0.000 N 
ATOM      4  H   UNL     1       6.676   7.697  16.318  0.00  0.00    +0.000 HD
ENDROOT
BRANCH   2   5
ATOM      5  C   UNL     1       6.386   5.503  17.610  0.00  0.00    +0.000 A 
ATOM      6  C   UNL     1       5.380   5.229  18.560  0.00  0.00    +0.000 A 
ATOM      7  C   UNL     1       4.464   4.169  18.403  0.00  0.00    +0.000 A 
ATOM      8  C   UNL     1       4.558   3.422  17.216  0.00  0.00    +0.000 A 
ATOM      9  C   UNL     1       5.524   3.696  16.244  0.00  0.00    +0.000 A 
ATOM     10  C   UNL     1       6.444   4.721  16.448  0.00  0.00    +0.000 A 
BRANCH   7  11
ATOM     11  C   UNL     1       3.504   3.792  19.472  0.00  0.00    +0.000 A 
ATOM     12  C   UNL     1       3.815   2.774  20.397  0.00  0.00    +0.000 A 
ATOM     13  C   UNL     1       2.879   2.326  21.335  0.00  0.00    +0.000 A 
ATOM     14  C   UNL     1       1.611   2.890  21.361  0.00  0.00    +0.000 A 
ATOM     15  F   UNL     1       0.702   2.432  22.232  0.00  0.00    +0.000 F 
ATOM     16  C   UNL     1       1.273   3.911  20.492  0.00  0.00    +0.000 A 
ATOM     17  C   UNL     1       2.217   4.361  19.572  0.00  0.00    +0.000 A 
ATOM     18  F   UNL     1       1.848   5.362  18.756  0.00  0.00    +0.000 F 
ENDBRANCH   7  11
BRANCH  10  19
ATOM     19  O   UNL     1       7.408   4.929  15.495  0.00  0.00    +0.000 OA
ATOM     20  H   UNL     1       7.150   5.701  14.957  0.00  0.00    +0.000 HD
ENDBRANCH  10  19
ENDBRANCH   2   5
BRANCH   3  21
ATOM     21  N   UNL     1       8.185   8.738  17.272  0.00  0.00    +0.000 NA
ATOM     22  C   UNL     1       7.613   9.834  17.654  0.00  0.00    +0.000 C 
BRANCH  22  23
ATOM     23  C   UNL     1       8.401  11.053  17.920  0.00  0.00    +0.000 A 
ATOM     24  C   UNL     1       8.040  12.248  17.296  0.00  0.00    +0.000 A 
ATOM     25  C   UNL     1       8.765  13.410  17.564  0.00  0.00    +0.000 A 
ATOM     26  C   UNL     1       9.847  13.374  18.448  0.00  0.00    +0.000 A 
ATOM     27  C   UNL     1      10.223  12.175  19.074  0.00  0.00    +0.000 A 
ATOM     28  C   UNL     1       9.488  11.011  18.799  0.00  0.00    +0.000 A 
BRANCH  27  29
ATOM     29  C   UNL     1      11.388  12.116  20.027  0.00  0.00    +0.000 C 
ATOM     30  F   UNL     1      12.068  13.295  20.123  0.00  0.00    +0.000 F 
ATOM     31  F   UNL     1      11.011  11.804  21.298  0.00  0.00    +0.000 F 
ATOM     32  F   UNL     1      12.314  11.184  19.668  0.00  0.00    +0.000 F 
ENDBRANCH  27  29
ENDBRANCH  22  23
ENDBRANCH   3  21
TORSDOF 6
ENDMDL
MODEL 7
REMARK VINA RESULT:      -9.4      1.607      2.003
REMARK  Name = 
REMARK  6 active torsions:
REMARK  status: ('A' for Active; 'I' for Inactive)
REMARK    1  A    between atoms: C_2  and  C_16
REMARK    2  A    between atoms: N_3  and  N_4
REMARK    3  A    between atoms: C_5  and  C_6
REMARK    4  A    between atoms: C_10  and  C_11
REMARK    5  A    between atoms: C_18  and  C_19
REMARK    6  A    between atoms: C_29  and  O_30
REMARK                            x       y       z     vdW  Elec       q    Type
REMARK                         _______ _______ _______ _____ _____    ______ ____
ROOT
ATOM      1  O   UNL     1       8.435   6.209  19.172  0.00  0.00    +0.000 OA
ATOM      2  C   UNL     1       7.658   6.717  18.367  0.00  0.00    +0.000 C 
ATOM      3  N   UNL     1       7.731   8.021  17.913  0.00  0.00    +0.000 N 
ATOM      4  H   UNL     1       7.035   8.345  17.246  0.00  0.00    +0.000 HD
ENDROOT
BRANCH   2   5
ATOM      5  C   UNL     1       6.548   5.888  17.788  0.00  0.00    +0.000 A 
ATOM      6  C   UNL     1       5.498   5.517  18.654  0.00  0.00    +0.000 A 
ATOM      7  C   UNL     1       4.449   4.670  18.246  0.00  0.00    +0.000 A 
ATOM      8  C   UNL     1       4.459   4.252  16.903  0.00  0.00    +0.000 A 
ATOM      9  C   UNL     1       5.469   4.635  16.017  0.00  0.00    +0.000 A 
ATOM     10  C   UNL     1       6.517   5.436  16.462  0.00  0.00    +0.000 A 
BRANCH   7  11
ATOM     11  C   UNL     1       3.429   4.162  19.199  0.00  0.00    +0.000 A 
ATOM     12  C   UNL     1       3.781   3.253  20.218  0.00  0.00    +0.000 A 
ATOM     13  C   UNL     1       2.814   2.676  21.050  0.00  0.00    +0.000 A 
ATOM     14  C   UNL     1       1.476   2.998  20.872  0.00  0.00    +0.000 A 
ATOM     15  F   UNL     1       0.548   2.414  21.641  0.00  0.00    +0.000 F 
ATOM     16  C   UNL     1       1.090   3.908  19.905  0.00  0.00    +0.000 A 
ATOM     17  C   UNL     1       2.061   4.489  19.092  0.00  0.00    +0.000 A 
ATOM     18  F   UNL     1       1.640   5.375  18.175  0.00  0.00    +0.000 F 
ENDBRANCH   7  11
BRANCH  10  19
ATOM     19  O   UNL     1       7.516   5.751  15.576  0.00  0.00    +0.000 OA
ATOM     20  H   UNL     1       8.024   6.501  15.937  0.00  0.00    +0.000 HD
ENDBRANCH  10  19
ENDBRANCH   2   5
BRANCH   3  21
ATOM     21  N   UNL     1       8.697   8.866  18.359  0.00  0.00    +0.000 NA
ATOM     22  C   UNL     1       8.538  10.106  18.023  0.00  0.00    +0.000 C 
BRANCH  22  23
ATOM     23  C   UNL     1       9.495  11.142  18.453  0.00  0.00    +0.000 A 
ATOM     24  C   UNL     1      10.643  11.368  17.694  0.00  0.00    +0.000 A 
ATOM     25  C   UNL     1      11.540  12.365  18.081  0.00  0.00    +0.000 A 
ATOM     26  C   UNL     1      11.289  13.129  19.224  0.00  0.00    +0.000 A 
ATOM     27  C   UNL     1      10.140  12.903  20.000  0.00  0.00    +0.000 A 
ATOM     28  C   UNL     1       9.244  11.899  19.603  0.00  0.00    +0.000 A 
BRANCH  27  29
ATOM     29  C   UNL     1       9.855  13.714  21.237  0.00  0.00    +0.000 C 
ATOM     30  F   UNL     1      10.835  14.617  21.530  0.00  0.00    +0.000 F 
ATOM     31  F   UNL     1       8.706  14.438  21.137  0.00  0.00    +0.000 F 
ATOM     32  F   UNL     1       9.718  12.942  22.351  0.00  0.00    +0.000 F 
ENDBRANCH  27  29
ENDBRANCH  22  23
ENDBRANCH   3  21
TORSDOF 6
ENDMDL
MODEL 8
REMARK VINA RESULT:      -9.3      1.926      2.364
REMARK  Name = 
REMARK  6 active torsions:
REMARK  status: ('A' for Active; 'I' for Inactive)
REMARK    1  A    between atoms: C_2  and  C_16
REMARK    2  A    between atoms: N_3  and  N_4
REMARK    3  A    between atoms: C_5  and  C_6
REMARK    4  A    between atoms: C_10  and  C_11
REMARK    5  A    between atoms: C_18  and  C_19
REMARK    6  A    between atoms: C_29  and  O_30
REMARK                            x       y       z     vdW  Elec       q    Type
REMARK                         _______ _______ _______ _____ _____    ______ ____
ROOT
ATOM      1  O   UNL     1       8.059   6.131  19.116  0.00  0.00    +0.000 OA
ATOM      2  C   UNL     1       7.499   6.648  18.152  0.00  0.00    +0.000 C 
ATOM      3  N   UNL     1       7.747   7.926  17.684  0.00  0.00    +0.000 N 
ATOM      4  H   UNL     1       7.226   8.260  16.878  0.00  0.00    +0.000 HD
ENDROOT
BRANCH   2   5
ATOM      5  C   UNL     1       6.480   5.860  17.380  0.00  0.00    +0.000 A 
ATOM      6  C   UNL     1       5.329   5.434  18.074  0.00  0.00    +0.000 A 
ATOM      7  C   UNL     1       4.349   4.617  17.477  0.00  0.00    +0.000 A 
ATOM      8  C   UNL     1       4.539   4.286  16.123  0.00  0.00    +0.000 A 
ATOM      9  C   UNL     1       5.654   4.725  15.404  0.00  0.00    +0.000 A 
ATOM     10  C   UNL     1       6.628   5.494  16.035  0.00  0.00    +0.000 A 
BRANCH   7  11
ATOM     11  C   UNL     1       3.215   4.050  18.251  0.00  0.00    +0.000 A 
ATOM     12  C   UNL     1       2.665   2.795  17.913  0.00  0.00    +0.000 A 
ATOM     13  C   UNL     1       1.525   2.299  18.556  0.00  0.00    +0.000 A 
ATOM     14  C   UNL     1       0.915   3.053  19.548  0.00  0.00    +0.000 A 
ATOM     15  F   UNL     1      -0.199   2.597  20.134  0.00  0.00    +0.000 F 
ATOM     16  C   UNL     1       1.438   4.275  19.932  0.00  0.00    +0.000 A 
ATOM     17  C   UNL     1       2.582   4.753  19.297  0.00  0.00    +0.000 A 
ATOM     18  F   UNL     1       3.061   5.938  19.711  0.00  0.00    +0.000 F 
ENDBRANCH   7  11
BRANCH  10  19
ATOM     19  O   UNL     1       7.733   5.865  15.311  0.00  0.00    +0.000 OA
ATOM     20  H   UNL     1       8.037   6.733  15.633  0.00  0.00    +0.000 HD
ENDBRANCH  10  19
ENDBRANCH   2   5
BRANCH   3  21
ATOM     21  N   UNL     1       8.652   8.733  18.297  0.00  0.00    +0.000 NA
ATOM     22  C   UNL     1       8.585   9.982  17.965  0.00  0.00    +0.000 C 
BRANCH  22  23
ATOM     23  C   UNL     1       9.490  10.981  18.565  0.00  0.00    +0.000 A 
ATOM     24  C   UNL     1      10.697  11.275  17.930  0.00  0.00    +0.000 A 
ATOM     25  C   UNL     1      11.545  12.239  18.478  0.00  0.00    +0.000 A 
ATOM     26  C   UNL     1      11.187  12.900  19.656  0.00  0.00    +0.000 A 
ATOM     27  C   UNL     1       9.979  12.605  20.306  0.00  0.00    +0.000 A 
ATOM     28  C   UNL     1       9.132  11.635  19.748  0.00  0.00    +0.000 A 
BRANCH  27  29
ATOM     29  C   UNL     1       9.578  13.305  21.579  0.00  0.00    +0.000 C 
ATOM     30  F   UNL     1       9.492  12.467  22.652  0.00  0.00    +0.000 F 
ATOM     31  F   UNL     1      10.458  14.279  21.941  0.00  0.00    +0.000 F 
ATOM     32  F   UNL     1       8.361  13.910  21.485  0.00  0.00    +0.000 F 
ENDBRANCH  27  29
ENDBRANCH  22  23
ENDBRANCH   3  21
TORSDOF 6
ENDMDL
MODEL 9
REMARK VINA RESULT:      -8.9      1.013      1.233
REMARK  Name = 
REMARK  6 active torsions:
REMARK  status: ('A' for Active; 'I' for Inactive)
REMARK    1  A    between atoms: C_2  and  C_16
REMARK    2  A    between atoms: N_3  and  N_4
REMARK    3  A    between atoms: C_5  and  C_6
REMARK    4  A    between atoms: C_10  and  C_11
REMARK    5  A    between atoms: C_18  and  C_19
REMARK    6  A    between atoms: C_29  and  O_30
REMARK                            x       y       z     vdW  Elec       q    Type
REMARK                         _______ _______ _______ _____ _____    ______ ____
ROOT
ATOM      1  O   UNL     1       8.293   7.365  16.242  0.00  0.00    +0.000 OA
ATOM      2  C   UNL     1       7.620   6.874  17.146  0.00  0.00    +0.000 C 
ATOM      3  N   UNL     1       7.720   7.217  18.482  0.00  0.00    +0.000 N 
ATOM      4  H   UNL     1       7.117   6.749  19.153  0.00  0.00    +0.000 HD
ENDROOT
BRANCH   2   5
ATOM      5  C   UNL     1       6.583   5.840  16.817  0.00  0.00    +0.000 A 
ATOM      6  C   UNL     1       5.625   5.545  17.809  0.00  0.00    +0.000 A 
ATOM      7  C   UNL     1       4.659   4.532  17.646  0.00  0.00    +0.000 A 
ATOM      8  C   UNL     1       4.650   3.859  16.412  0.00  0.00    +0.000 A 
ATOM      9  C   UNL     1       5.566   4.157  15.399  0.00  0.00    +0.000 A 
ATOM     10  C   UNL     1       6.538   5.132  15.608  0.00  0.00    +0.000 A 
BRANCH   7  11
ATOM     11  C   UNL     1       3.750   4.124  18.748  0.00  0.00    +0.000 A 
ATOM     12  C   UNL     1       3.300   2.791  18.857  0.00  0.00    +0.000 A 
ATOM     13  C   UNL     1       2.354   2.415  19.817  0.00  0.00    +0.000 A 
ATOM     14  C   UNL     1       1.839   3.369  20.683  0.00  0.00    +0.000 A 
ATOM     15  F   UNL     1       0.904   3.017  21.574  0.00  0.00    +0.000 F 
ATOM     16  C   UNL     1       2.274   4.681  20.631  0.00  0.00    +0.000 A 
ATOM     17  C   UNL     1       3.228   5.043  19.682  0.00  0.00    +0.000 A 
ATOM     18  F   UNL     1       3.629   6.325  19.676  0.00  0.00    +0.000 F 
ENDBRANCH   7  11
BRANCH  10  19
ATOM     19  O   UNL     1       7.451   5.363  14.610  0.00  0.00    +0.000 OA
ATOM     20  H   UNL     1       7.261   4.757  13.871  0.00  0.00    +0.000 HD
ENDBRANCH  10  19
ENDBRANCH   2   5
BRANCH   3  21
ATOM     21  N   UNL     1       8.619   8.147  18.902  0.00  0.00    +0.000 NA
ATOM     22  C   UNL     1       8.378   9.356  18.511  0.00  0.00    +0.000 C 
BRANCH  22  23
ATOM     23  C   UNL     1       9.254  10.475  18.906  0.00  0.00    +0.000 A 
ATOM     24  C   UNL     1       9.627  10.610  20.244  0.00  0.00    +0.000 A 
ATOM     25  C   UNL     1      10.477  11.651  20.620  0.00  0.00    +0.000 A 
ATOM     26  C   UNL     1      10.948  12.553  19.662  0.00  0.00    +0.000 A 
ATOM     27  C   UNL     1      10.571  12.431  18.315  0.00  0.00    +0.000 A 
ATOM     28  C   UNL     1       9.717  11.381  17.946  0.00  0.00    +0.000 A 
BRANCH  27  29
ATOM     29  C   UNL     1      11.066  13.396  17.269  0.00  0.00    +0.000 C 
ATOM     30  F   UNL     1      10.298  14.518  17.163  0.00  0.00    +0.000 F 
ATOM     31  F   UNL     1      12.330  13.838  17.519  0.00  0.00    +0.000 F 
ATOM     32  F   UNL     1      11.096  12.849  16.022  0.00  0.00    +0.000 F 
ENDBRANCH  27  29
ENDBRANCH  22  23
ENDBRANCH   3  21
TORSDOF 6
ENDMDL
