MODEL 1
REMARK VINA RESULT:      -6.8      0.000      0.000
REMARK  Name = 
REMARK  8 active torsions:
REMARK  status: ('A' for Active; 'I' for Inactive)
REMARK    1  A    between atoms: C_1  and  C_2
REMARK    2  A    between atoms: C_2  and  C_3
REMARK    3  A    between atoms: C_2  and  C_4
REMARK    4  A    between atoms: C_8  and  C_9
REMARK    5  A    between atoms: C_9  and  C_10
REMARK    6  A    between atoms: C_9  and  C_11
REMARK    7  A    between atoms: C_12  and  N_13
REMARK    8  A    between atoms: N_16  and  C_17
REMARK                            x       y       z     vdW  Elec       q    Type
REMARK                         _______ _______ _______ _____ _____    ______ ____
ROOT
ATOM      1  C   UNL     1       4.716   4.952  18.342  0.00  0.00    +0.000 A 
ATOM      2  C   UNL     1       5.053   3.975  17.378  0.00  0.00    +0.000 A 
ATOM      3  C   UNL     1       4.251   2.866  17.159  0.00  0.00    +0.000 A 
ATOM      4  C   UNL     1       3.084   2.718  17.887  0.00  0.00    +0.000 A 
ATOM      5  C   UNL     1       2.669   3.671  18.851  0.00  0.00    +0.000 A 
ATOM      6  C   UNL     1       3.516   4.790  19.097  0.00  0.00    +0.000 A 
ENDROOT
BRANCH   6   7
ATOM      7  N   UNL     1       3.126   5.755  20.063  0.00  0.00    +0.000 N 
ATOM      8  C   UNL     1       2.191   6.753  19.818  0.00  0.00    +0.000 C 
ATOM      9  O   UNL     1       1.517   6.844  18.803  0.00  0.00    +0.000 OA
ATOM     10  N   UNL     1       2.140   7.679  20.859  0.00  0.00    +0.000 N 
ATOM     11  H   UNL     1       3.783   5.956  20.791  0.00  0.00    +0.000 HD
ATOM     12  H   UNL     1       3.036   7.882  21.274  0.00  0.00    +0.000 HD
BRANCH  10  13
ATOM     13  C   UNL     1       1.242   8.774  20.772  0.00  0.00    +0.000 A 
ATOM     14  C   UNL     1       1.274   9.651  19.690  0.00  0.00    +0.000 A 
ATOM     15  C   UNL     1       0.455  10.765  19.725  0.00  0.00    +0.000 A 
ATOM     16  N   UNL     1      -0.377  11.050  20.750  0.00  0.00    +0.000 NA
ATOM     17  C   UNL     1      -0.403  10.168  21.772  0.00  0.00    +0.000 A 
ATOM     18  C   UNL     1       0.351   9.006  21.818  0.00  0.00    +0.000 A 
ENDBRANCH  10  13
ENDBRANCH   6   7
BRANCH   1  20
ATOM     19  C   UNL     1       7.038   5.698  19.019  0.00  0.00    +0.000 C 
ATOM     20  C   UNL     1       5.676   6.141  18.462  0.00  0.00    +0.000 C 
ATOM     21  C   UNL     1       5.870   6.874  17.128  0.00  0.00    +0.000 C 
ENDBRANCH   1  20
BRANCH   5  22
ATOM     22  C   UNL     1       1.398   3.254  19.604  0.00  0.00    +0.000 C 
ATOM     23  C   UNL     1       0.588   2.234  18.795  0.00  0.00    +0.000 C 
ATOM     24  C   UNL     1       1.514   2.816  21.062  0.00  0.00    +0.000 C 
ENDBRANCH   5  22
TORSDOF 4
ENDMDL
MODEL 2
REMARK VINA RESULT:      -6.7      1.494      2.172
REMARK  Name = 
REMARK  8 active torsions:
REMARK  status: ('A' for Active; 'I' for Inactive)
REMARK    1  A    between atoms: C_1  and  C_2
REMARK    2  A    between atoms: C_2  and  C_3
REMARK    3  A    between atoms: C_2  and  C_4
REMARK    4  A    between atoms: C_8  and  C_9
REMARK    5  A    between atoms: C_9  and  C_10
REMARK    6  A    between atoms: C_9  and  C_11
REMARK    7  A    between atoms: C_12  and  N_13
REMARK    8  A    between atoms: N_16  and  C_17
REMARK                            x       y       z     vdW  Elec       q    Type
REMARK                         _______ _______ _______ _____ _____    ______ ____
ROOT
ATOM      1  C   UNL     1       6.095   5.354  17.571  0.00  0.00    +0.000 A 
ATOM      2  C   UNL     1       6.785   4.839  16.452  0.00  0.00    +0.000 A 
ATOM      3  C   UNL     1       6.223   3.870  15.635  0.00  0.00    +0.000 A 
ATOM      4  C   UNL     1       4.948   3.408  15.911  0.00  0.00    +0.000 A 
ATOM      5  C   UNL     1       4.185   3.898  17.000  0.00  0.00    +0.000 A 
ATOM      6  C   UNL     1       4.783   4.868  17.856  0.00  0.00    +0.000 A 
ENDROOT
BRANCH   6   7
ATOM      7  N   UNL     1       4.042   5.370  18.959  0.00  0.00    +0.000 N 
ATOM      8  C   UNL     1       3.166   6.444  18.870  0.00  0.00    +0.000 C 
ATOM      9  O   UNL     1       2.843   6.998  17.830  0.00  0.00    +0.000 OA
ATOM     10  N   UNL     1       2.725   6.855  20.127  0.00  0.00    +0.000 N 
ATOM     11  H   UNL     1       4.420   5.202  19.870  0.00  0.00    +0.000 HD
ATOM     12  H   UNL     1       3.428   6.802  20.848  0.00  0.00    +0.000 HD
BRANCH  10  13
ATOM     13  C   UNL     1       1.828   7.950  20.225  0.00  0.00    +0.000 A 
ATOM     14  C   UNL     1       1.025   8.129  21.349  0.00  0.00    +0.000 A 
ATOM     15  C   UNL     1       0.087   9.145  21.330  0.00  0.00    +0.000 A 
ATOM     16  N   UNL     1      -0.092   9.978  20.281  0.00  0.00    +0.000 NA
ATOM     17  C   UNL     1       0.719   9.795  19.217  0.00  0.00    +0.000 A 
ATOM     18  C   UNL     1       1.711   8.830  19.150  0.00  0.00    +0.000 A 
ENDBRANCH  10  13
ENDBRANCH   6   7
BRANCH   1  20
ATOM     19  C   UNL     1       7.844   5.824  19.339  0.00  0.00    +0.000 C 
ATOM     20  C   UNL     1       6.821   6.441  18.372  0.00  0.00    +0.000 C 
ATOM     21  C   UNL     1       7.511   7.471  17.468  0.00  0.00    +0.000 C 
ENDBRANCH   1  20
BRANCH   5  22
ATOM     22  C   UNL     1       2.843   3.175  17.172  0.00  0.00    +0.000 C 
ATOM     23  C   UNL     1       2.962   2.022  18.176  0.00  0.00    +0.000 C 
ATOM     24  C   UNL     1       1.589   4.002  17.448  0.00  0.00    +0.000 C 
ENDBRANCH   5  22
TORSDOF 4
ENDMDL
MODEL 3
REMARK VINA RESULT:      -6.7      1.453      1.896
REMARK  Name = 
REMARK  8 active torsions:
REMARK  status: ('A' for Active; 'I' for Inactive)
REMARK    1  A    between atoms: C_1  and  C_2
REMARK    2  A    between atoms: C_2  and  C_3
REMARK    3  A    between atoms: C_2  and  C_4
REMARK    4  A    between atoms: C_8  and  C_9
REMARK    5  A    between atoms: C_9  and  C_10
REMARK    6  A    between atoms: C_9  and  C_11
REMARK    7  A    between atoms: C_12  and  N_13
REMARK    8  A    between atoms: N_16  and  C_17
REMARK                            x       y       z     vdW  Elec       q    Type
REMARK                         _______ _______ _______ _____ _____    ______ ____
ROOT
ATOM      1  C   UNL     1       6.069   5.353  17.564  0.00  0.00    +0.000 A 
ATOM      2  C   UNL     1       6.749   4.837  16.438  0.00  0.00    +0.000 A 
ATOM      3  C   UNL     1       6.186   3.855  15.638  0.00  0.00    +0.000 A 
ATOM      4  C   UNL     1       4.920   3.381  15.936  0.00  0.00    +0.000 A 
ATOM      5  C   UNL     1       4.168   3.872  17.033  0.00  0.00    +0.000 A 
ATOM      6  C   UNL     1       4.768   4.855  17.872  0.00  0.00    +0.000 A 
ENDROOT
BRANCH   6   7
ATOM      7  N   UNL     1       4.038   5.358  18.982  0.00  0.00    +0.000 N 
ATOM      8  C   UNL     1       3.130   6.404  18.892  0.00  0.00    +0.000 C 
ATOM      9  O   UNL     1       2.768   6.928  17.850  0.00  0.00    +0.000 OA
ATOM     10  N   UNL     1       2.705   6.828  20.151  0.00  0.00    +0.000 N 
ATOM     11  H   UNL     1       4.441   5.218  19.887  0.00  0.00    +0.000 HD
ATOM     12  H   UNL     1       3.425   6.809  20.857  0.00  0.00    +0.000 HD
BRANCH  10  13
ATOM     13  C   UNL     1       1.779   7.899  20.249  0.00  0.00    +0.000 A 
ATOM     14  C   UNL     1       1.702   8.881  19.265  0.00  0.00    +0.000 A 
ATOM     15  C   UNL     1       0.865   9.961  19.479  0.00  0.00    +0.000 A 
ATOM     16  N   UNL     1       0.113  10.114  20.591  0.00  0.00    +0.000 NA
ATOM     17  C   UNL     1       0.191   9.134  21.516  0.00  0.00    +0.000 A 
ATOM     18  C   UNL     1       0.972   7.996  21.381  0.00  0.00    +0.000 A 
ENDBRANCH  10  13
ENDBRANCH   6   7
BRANCH   1  20
ATOM     19  C   UNL     1       7.817   5.855  19.324  0.00  0.00    +0.000 C 
ATOM     20  C   UNL     1       6.796   6.454  18.345  0.00  0.00    +0.000 C 
ATOM     21  C   UNL     1       7.488   7.467  17.423  0.00  0.00    +0.000 C 
ENDBRANCH   1  20
BRANCH   5  22
ATOM     22  C   UNL     1       2.836   3.135  17.230  0.00  0.00    +0.000 C 
ATOM     23  C   UNL     1       2.961   2.052  18.309  0.00  0.00    +0.000 C 
ATOM     24  C   UNL     1       1.563   3.953  17.433  0.00  0.00    +0.000 C 
ENDBRANCH   5  22
TORSDOF 4
ENDMDL
MODEL 4
REMARK VINA RESULT:      -6.7      0.541      1.132
REMARK  Name = 
REMARK  8 active torsions:
REMARK  status: ('A' for Active; 'I' for Inactive)
REMARK    1  A    between atoms: C_1  and  C_2
REMARK    2  A    between atoms: C_2  and  C_3
REMARK    3  A    between atoms: C_2  and  C_4
REMARK    4  A    between atoms: C_8  and  C_9
REMARK    5  A    between atoms: C_9  and  C_10
REMARK    6  A    between atoms: C_9  and  C_11
REMARK    7  A    between atoms: C_12  and  N_13
REMARK    8  A    between atoms: N_16  and  C_17
REMARK                            x       y       z     vdW  Elec       q    Type
REMARK                         _______ _______ _______ _____ _____    ______ ____
ROOT
ATOM      1  C   UNL     1       4.700   4.914  18.336  0.00  0.00    +0.000 A 
ATOM      2  C   UNL     1       5.088   3.853  17.489  0.00  0.00    +0.000 A 
ATOM      3  C   UNL     1       4.317   2.708  17.361  0.00  0.00    +0.000 A 
ATOM      4  C   UNL     1       3.130   2.607  18.067  0.00  0.00    +0.000 A 
ATOM      5  C   UNL     1       2.665   3.643  18.915  0.00  0.00    +0.000 A 
ATOM      6  C   UNL     1       3.480   4.802  19.069  0.00  0.00    +0.000 A 
ENDROOT
BRANCH   6   7
ATOM      7  N   UNL     1       3.040   5.852  19.918  0.00  0.00    +0.000 N 
ATOM      8  C   UNL     1       2.216   6.887  19.496  0.00  0.00    +0.000 C 
ATOM      9  O   UNL     1       1.685   6.954  18.398  0.00  0.00    +0.000 OA
ATOM     10  N   UNL     1       2.099   7.881  20.466  0.00  0.00    +0.000 N 
ATOM     11  H   UNL     1       3.611   6.058  20.713  0.00  0.00    +0.000 HD
ATOM     12  H   UNL     1       2.947   8.055  20.983  0.00  0.00    +0.000 HD
BRANCH  10  13
ATOM     13  C   UNL     1       1.299   9.023  20.199  0.00  0.00    +0.000 A 
ATOM     14  C   UNL     1       0.249   9.384  21.039  0.00  0.00    +0.000 A 
ATOM     15  C   UNL     1      -0.565  10.435  20.657  0.00  0.00    +0.000 A 
ATOM     16  N   UNL     1      -0.397  11.134  19.514  0.00  0.00    +0.000 NA
ATOM     17  C   UNL     1       0.644  10.776  18.732  0.00  0.00    +0.000 A 
ATOM     18  C   UNL     1       1.538   9.762  19.041  0.00  0.00    +0.000 A 
ENDBRANCH  10  13
ENDBRANCH   6   7
BRANCH   1  20
ATOM     19  C   UNL     1       7.062   5.726  18.745  0.00  0.00    +0.000 C 
ATOM     20  C   UNL     1       5.631   6.132  18.362  0.00  0.00    +0.000 C 
ATOM     21  C   UNL     1       5.641   6.889  17.027  0.00  0.00    +0.000 C 
ENDBRANCH   1  20
BRANCH   5  22
ATOM     22  C   UNL     1       1.380   3.276  19.669  0.00  0.00    +0.000 C 
ATOM     23  C   UNL     1       0.547   2.260  18.877  0.00  0.00    +0.000 C 
ATOM     24  C   UNL     1       1.478   2.865  21.136  0.00  0.00    +0.000 C 
ENDBRANCH   5  22
TORSDOF 4
ENDMDL
MODEL 5
REMARK VINA RESULT:      -6.7      0.099      3.627
REMARK  Name = 
REMARK  8 active torsions:
REMARK  status: ('A' for Active; 'I' for Inactive)
REMARK    1  A    between atoms: C_1  and  C_2
REMARK    2  A    between atoms: C_2  and  C_3
REMARK    3  A    between atoms: C_2  and  C_4
REMARK    4  A    between atoms: C_8  and  C_9
REMARK    5  A    between atoms: C_9  and  C_10
REMARK    6  A    between atoms: C_9  and  C_11
REMARK    7  A    between atoms: C_12  and  N_13
REMARK    8  A    between atoms: N_16  and  C_17
REMARK                            x       y       z     vdW  Elec       q    Type
REMARK                         _______ _______ _______ _____ _____    ______ ____
ROOT
ATOM      1  C   UNL     1       2.728   3.564  18.910  0.00  0.00    +0.000 A 
ATOM      2  C   UNL     1       3.160   2.603  17.968  0.00  0.00    +0.000 A 
ATOM      3  C   UNL     1       4.327   2.775  17.240  0.00  0.00    +0.000 A 
ATOM      4  C   UNL     1       5.098   3.904  17.451  0.00  0.00    +0.000 A 
ATOM      5  C   UNL     1       4.742   4.897  18.399  0.00  0.00    +0.000 A 
ATOM      6  C   UNL     1       3.522   4.732  19.117  0.00  0.00    +0.000 A 
ENDROOT
BRANCH   6   7
ATOM      7  N   UNL     1       3.139   5.716  20.067  0.00  0.00    +0.000 N 
ATOM      8  C   UNL     1       2.198   6.704  19.811  0.00  0.00    +0.000 C 
ATOM      9  O   UNL     1       1.513   6.773  18.802  0.00  0.00    +0.000 OA
ATOM     10  N   UNL     1       2.155   7.652  20.833  0.00  0.00    +0.000 N 
ATOM     11  H   UNL     1       3.803   5.934  20.783  0.00  0.00    +0.000 HD
ATOM     12  H   UNL     1       3.055   7.867  21.234  0.00  0.00    +0.000 HD
BRANCH  10  13
ATOM     13  C   UNL     1       1.252   8.742  20.732  0.00  0.00    +0.000 A 
ATOM     14  C   UNL     1       1.270   9.597  19.633  0.00  0.00    +0.000 A 
ATOM     15  C   UNL     1       0.448  10.709  19.653  0.00  0.00    +0.000 A 
ATOM     16  N   UNL     1      -0.376  11.011  20.680  0.00  0.00    +0.000 NA
ATOM     17  C   UNL     1      -0.389  10.151  21.720  0.00  0.00    +0.000 A 
ATOM     18  C   UNL     1       0.370   8.992  21.783  0.00  0.00    +0.000 A 
ENDBRANCH  10  13
ENDBRANCH   6   7
BRANCH   1  20
ATOM     19  C   UNL     1       0.553   2.270  18.858  0.00  0.00    +0.000 C 
ATOM     20  C   UNL     1       1.435   3.236  19.665  0.00  0.00    +0.000 C 
ATOM     21  C   UNL     1       1.703   2.658  21.060  0.00  0.00    +0.000 C 
ENDBRANCH   1  20
BRANCH   5  22
ATOM     22  C   UNL     1       5.689   6.104  18.394  0.00  0.00    +0.000 C 
ATOM     23  C   UNL     1       7.064   5.728  18.961  0.00  0.00    +0.000 C 
ATOM     24  C   UNL     1       5.840   6.920  17.112  0.00  0.00    +0.000 C 
ENDBRANCH   5  22
TORSDOF 4
ENDMDL
MODEL 6
REMARK VINA RESULT:      -6.7      1.260      1.643
REMARK  Name = 
REMARK  8 active torsions:
REMARK  status: ('A' for Active; 'I' for Inactive)
REMARK    1  A    between atoms: C_1  and  C_2
REMARK    2  A    between atoms: C_2  and  C_3
REMARK    3  A    between atoms: C_2  and  C_4
REMARK    4  A    between atoms: C_8  and  C_9
REMARK    5  A    between atoms: C_9  and  C_10
REMARK    6  A    between atoms: C_9  and  C_11
REMARK    7  A    between atoms: C_12  and  N_13
REMARK    8  A    between atoms: N_16  and  C_17
REMARK                            x       y       z     vdW  Elec       q    Type
REMARK                         _______ _______ _______ _____ _____    ______ ____
ROOT
ATOM      1  C   UNL     1       4.420   5.413  17.355  0.00  0.00    +0.000 A 
ATOM      2  C   UNL     1       5.155   4.210  17.267  0.00  0.00    +0.000 A 
ATOM      3  C   UNL     1       4.631   3.006  17.711  0.00  0.00    +0.000 A 
ATOM      4  C   UNL     1       3.351   2.975  18.236  0.00  0.00    +0.000 A 
ATOM      5  C   UNL     1       2.545   4.137  18.330  0.00  0.00    +0.000 A 
ATOM      6  C   UNL     1       3.103   5.378  17.906  0.00  0.00    +0.000 A 
ENDROOT
BRANCH   6   7
ATOM      7  N   UNL     1       2.318   6.558  17.996  0.00  0.00    +0.000 N 
ATOM      8  C   UNL     1       2.210   7.321  19.151  0.00  0.00    +0.000 C 
ATOM      9  O   UNL     1       2.857   7.140  20.172  0.00  0.00    +0.000 OA
ATOM     10  N   UNL     1       1.229   8.305  19.030  0.00  0.00    +0.000 N 
ATOM     11  H   UNL     1       1.553   6.641  17.357  0.00  0.00    +0.000 HD
ATOM     12  H   UNL     1       0.417   8.015  18.507  0.00  0.00    +0.000 HD
BRANCH  10  13
ATOM     13  C   UNL     1       0.977   9.174  20.122  0.00  0.00    +0.000 A 
ATOM     14  C   UNL     1       0.542   8.684  21.351  0.00  0.00    +0.000 A 
ATOM     15  C   UNL     1       0.198   9.593  22.336  0.00  0.00    +0.000 A 
ATOM     16  N   UNL     1       0.264  10.932  22.173  0.00  0.00    +0.000 NA
ATOM     17  C   UNL     1       0.713  11.376  20.979  0.00  0.00    +0.000 A 
ATOM     18  C   UNL     1       1.114  10.550  19.941  0.00  0.00    +0.000 A 
ENDBRANCH  10  13
ENDBRANCH   6   7
BRANCH   1  20
ATOM     19  C   UNL     1       6.516   6.831  17.394  0.00  0.00    +0.000 C 
ATOM     20  C   UNL     1       5.107   6.667  16.802  0.00  0.00    +0.000 C 
ATOM     21  C   UNL     1       5.181   6.666  15.270  0.00  0.00    +0.000 C 
ENDBRANCH   1  20
BRANCH   5  22
ATOM     22  C   UNL     1       1.204   3.887  19.033  0.00  0.00    +0.000 C 
ATOM     23  C   UNL     1       0.682   2.475  18.738  0.00  0.00    +0.000 C 
ATOM     24  C   UNL     1       1.079   4.207  20.520  0.00  0.00    +0.000 C 
ENDBRANCH   5  22
TORSDOF 4
ENDMDL
MODEL 7
REMARK VINA RESULT:      -6.6      1.284      1.393
REMARK  Name = 
REMARK  8 active torsions:
REMARK  status: ('A' for Active; 'I' for Inactive)
REMARK    1  A    between atoms: C_1  and  C_2
REMARK    2  A    between atoms: C_2  and  C_3
REMARK    3  A    between atoms: C_2  and  C_4
REMARK    4  A    between atoms: C_8  and  C_9
REMARK    5  A    between atoms: C_9  and  C_10
REMARK    6  A    between atoms: C_9  and  C_11
REMARK    7  A    between atoms: C_12  and  N_13
REMARK    8  A    between atoms: N_16  and  C_17
REMARK                            x       y       z     vdW  Elec       q    Type
REMARK                         _______ _______ _______ _____ _____    ______ ____
ROOT
ATOM      1  C   UNL     1       4.543   5.474  17.516  0.00  0.00    +0.000 A 
ATOM      2  C   UNL     1       5.298   4.280  17.551  0.00  0.00    +0.000 A 
ATOM      3  C   UNL     1       4.767   3.101  18.048  0.00  0.00    +0.000 A 
ATOM      4  C   UNL     1       3.461   3.085  18.506  0.00  0.00    +0.000 A 
ATOM      5  C   UNL     1       2.636   4.236  18.476  0.00  0.00    +0.000 A 
ATOM      6  C   UNL     1       3.200   5.455  17.997  0.00  0.00    +0.000 A 
ENDROOT
BRANCH   6   7
ATOM      7  N   UNL     1       2.396   6.625  17.964  0.00  0.00    +0.000 N 
ATOM      8  C   UNL     1       2.210   7.460  19.058  0.00  0.00    +0.000 C 
ATOM      9  O   UNL     1       2.798   7.357  20.124  0.00  0.00    +0.000 OA
ATOM     10  N   UNL     1       1.225   8.417  18.815  0.00  0.00    +0.000 N 
ATOM     11  H   UNL     1       1.668   6.653  17.277  0.00  0.00    +0.000 HD
ATOM     12  H   UNL     1       0.449   8.080  18.267  0.00  0.00    +0.000 HD
BRANCH  10  13
ATOM     13  C   UNL     1       0.898   9.351  19.832  0.00  0.00    +0.000 A 
ATOM     14  C   UNL     1       1.142  10.712  19.670  0.00  0.00    +0.000 A 
ATOM     15  C   UNL     1       0.912  11.553  20.744  0.00  0.00    +0.000 A 
ATOM     16  N   UNL     1       0.458  11.126  21.943  0.00  0.00    +0.000 NA
ATOM     17  C   UNL     1       0.207   9.805  22.061  0.00  0.00    +0.000 A 
ATOM     18  C   UNL     1       0.372   8.885  21.036  0.00  0.00    +0.000 A 
ENDBRANCH  10  13
ENDBRANCH   6   7
BRANCH   1  20
ATOM     19  C   UNL     1       6.695   6.803  17.408  0.00  0.00    +0.000 C 
ATOM     20  C   UNL     1       5.243   6.699  16.916  0.00  0.00    +0.000 C 
ATOM     21  C   UNL     1       5.211   6.697  15.381  0.00  0.00    +0.000 C 
ENDBRANCH   1  20
BRANCH   5  22
ATOM     22  C   UNL     1       1.262   4.012  19.122  0.00  0.00    +0.000 C 
ATOM     23  C   UNL     1       0.697   2.636  18.751  0.00  0.00    +0.000 C 
ATOM     24  C   UNL     1       1.096   4.277  20.617  0.00  0.00    +0.000 C 
ENDBRANCH   5  22
TORSDOF 4
ENDMDL
MODEL 8
REMARK VINA RESULT:      -6.6      0.346      3.777
REMARK  Name = 
REMARK  8 active torsions:
REMARK  status: ('A' for Active; 'I' for Inactive)
REMARK    1  A    between atoms: C_1  and  C_2
REMARK    2  A    between atoms: C_2  and  C_3
REMARK    3  A    between atoms: C_2  and  C_4
REMARK    4  A    between atoms: C_8  and  C_9
REMARK    5  A    between atoms: C_9  and  C_10
REMARK    6  A    between atoms: C_9  and  C_11
REMARK    7  A    between atoms: C_12  and  N_13
REMARK    8  A    between atoms: N_16  and  C_17
REMARK                            x       y       z     vdW  Elec       q    Type
REMARK                         _______ _______ _______ _____ _____    ______ ____
ROOT
ATOM      1  C   UNL     1       2.704   3.566  18.975  0.00  0.00    +0.000 A 
ATOM      2  C   UNL     1       3.160   2.561  18.093  0.00  0.00    +0.000 A 
ATOM      3  C   UNL     1       4.340   2.703  17.379  0.00  0.00    +0.000 A 
ATOM      4  C   UNL     1       5.100   3.848  17.546  0.00  0.00    +0.000 A 
ATOM      5  C   UNL     1       4.720   4.885  18.433  0.00  0.00    +0.000 A 
ATOM      6  C   UNL     1       3.487   4.749  19.136  0.00  0.00    +0.000 A 
ENDROOT
BRANCH   6   7
ATOM      7  N   UNL     1       3.080   5.778  20.026  0.00  0.00    +0.000 N 
ATOM      8  C   UNL     1       2.198   6.792  19.675  0.00  0.00    +0.000 C 
ATOM      9  O   UNL     1       1.587   6.852  18.619  0.00  0.00    +0.000 OA
ATOM     10  N   UNL     1       2.123   7.775  20.662  0.00  0.00    +0.000 N 
ATOM     11  H   UNL     1       3.702   5.995  20.780  0.00  0.00    +0.000 HD
ATOM     12  H   UNL     1       3.002   7.969  21.117  0.00  0.00    +0.000 HD
BRANCH  10  13
ATOM     13  C   UNL     1       1.274   8.894  20.465  0.00  0.00    +0.000 A 
ATOM     14  C   UNL     1       0.310   9.246  21.407  0.00  0.00    +0.000 A 
ATOM     15  C   UNL     1      -0.564  10.272  21.099  0.00  0.00    +0.000 A 
ATOM     16  N   UNL     1      -0.534  10.956  19.934  0.00  0.00    +0.000 NA
ATOM     17  C   UNL     1       0.427  10.608  19.052  0.00  0.00    +0.000 A 
ATOM     18  C   UNL     1       1.372   9.619  19.278  0.00  0.00    +0.000 A 
ENDBRANCH  10  13
ENDBRANCH   6   7
BRANCH   1  20
ATOM     19  C   UNL     1       0.528   2.276  18.937  0.00  0.00    +0.000 C 
ATOM     20  C   UNL     1       1.399   3.269  19.721  0.00  0.00    +0.000 C 
ATOM     21  C   UNL     1       1.644   2.742  21.141  0.00  0.00    +0.000 C 
ENDBRANCH   1  20
BRANCH   5  22
ATOM     22  C   UNL     1       5.659   6.097  18.384  0.00  0.00    +0.000 C 
ATOM     23  C   UNL     1       7.036   5.751  18.964  0.00  0.00    +0.000 C 
ATOM     24  C   UNL     1       5.805   6.866  17.072  0.00  0.00    +0.000 C 
ENDBRANCH   5  22
TORSDOF 4
ENDMDL
MODEL 9
REMARK VINA RESULT:      -6.5      1.228      3.920
REMARK  Name = 
REMARK  8 active torsions:
REMARK  status: ('A' for Active; 'I' for Inactive)
REMARK    1  A    between atoms: C_1  and  C_2
REMARK    2  A    between atoms: C_2  and  C_3
REMARK    3  A    between atoms: C_2  and  C_4
REMARK    4  A    between atoms: C_8  and  C_9
REMARK    5  A    between atoms: C_9  and  C_10
REMARK    6  A    between atoms: C_9  and  C_11
REMARK    7  A    between atoms: C_12  and  N_13
REMARK    8  A    between atoms: N_16  and  C_17
REMARK                            x       y       z     vdW  Elec       q    Type
REMARK                         _______ _______ _______ _____ _____    ______ ____
ROOT
ATOM      1  C   UNL     1       2.600   4.163  18.588  0.00  0.00    +0.000 A 
ATOM      2  C   UNL     1       3.425   3.017  18.537  0.00  0.00    +0.000 A 
ATOM      3  C   UNL     1       4.695   3.061  17.985  0.00  0.00    +0.000 A 
ATOM      4  C   UNL     1       5.177   4.260  17.486  0.00  0.00    +0.000 A 
ATOM      5  C   UNL     1       4.417   5.455  17.528  0.00  0.00    +0.000 A 
ATOM      6  C   UNL     1       3.098   5.394  18.064  0.00  0.00    +0.000 A 
ENDROOT
BRANCH   6   7
ATOM      7  N   UNL     1       2.313   6.577  18.111  0.00  0.00    +0.000 N 
ATOM      8  C   UNL     1       2.175   7.363  19.247  0.00  0.00    +0.000 C 
ATOM      9  O   UNL     1       2.795   7.201  20.288  0.00  0.00    +0.000 OA
ATOM     10  N   UNL     1       1.201   8.346  19.080  0.00  0.00    +0.000 N 
ATOM     11  H   UNL     1       1.565   6.648  17.449  0.00  0.00    +0.000 HD
ATOM     12  H   UNL     1       0.402   8.046  18.542  0.00  0.00    +0.000 HD
BRANCH  10  13
ATOM     13  C   UNL     1       0.921   9.236  20.148  0.00  0.00    +0.000 A 
ATOM     14  C   UNL     1       0.437   8.773  21.369  0.00  0.00    +0.000 A 
ATOM     15  C   UNL     1       0.071   9.703  22.326  0.00  0.00    +0.000 A 
ATOM     16  N   UNL     1       0.159  11.038  22.142  0.00  0.00    +0.000 NA
ATOM     17  C   UNL     1       0.655  11.456  20.958  0.00  0.00    +0.000 A 
ATOM     18  C   UNL     1       1.081  10.607  19.949  0.00  0.00    +0.000 A 
ENDBRANCH  10  13
ENDBRANCH   6   7
BRANCH   1  20
ATOM     19  C   UNL     1       0.574   2.662  18.808  0.00  0.00    +0.000 C 
ATOM     20  C   UNL     1       1.230   3.980  19.249  0.00  0.00    +0.000 C 
ATOM     21  C   UNL     1       1.307   4.039  20.781  0.00  0.00    +0.000 C 
ENDBRANCH   1  20
BRANCH   5  22
ATOM     22  C   UNL     1       5.108   6.636  16.833  0.00  0.00    +0.000 C 
ATOM     23  C   UNL     1       6.493   6.898  17.440  0.00  0.00    +0.000 C 
ATOM     24  C   UNL     1       5.177   6.657  15.308  0.00  0.00    +0.000 C 
ENDBRANCH   5  22
TORSDOF 4
ENDMDL
