MODEL 1
REMARK VINA RESULT:      -7.3      0.000      0.000
REMARK  Name = 
REMARK  6 active torsions:
REMARK  status: ('A' for Active; 'I' for Inactive)
REMARK    1  A    between atoms: C_1  and  C_2
REMARK    2  A    between atoms: C_2  and  O_3
REMARK    3  A    between atoms: O_3  and  C_4
REMARK    4  A    between atoms: C_11  and  N_12
REMARK    5  A    between atoms: C_13  and  C_15
REMARK    6  A    between atoms: C_19  and  C_20
REMARK                            x       y       z     vdW  Elec       q    Type
REMARK                         _______ _______ _______ _____ _____    ______ ____
ROOT
ATOM      1  C   UNL     1      -0.385   9.804  22.487  0.00  0.00    +0.000 C 
ATOM      2  O   UNL     1       0.118   9.079  23.332  0.00  0.00    +0.000 OA
ATOM      3  N   UNL     1      -0.112   9.865  21.152  0.00  0.00    +0.000 N 
ATOM      4  C   UNL     1       0.716   8.957  20.492  0.00  0.00    +0.000 A 
ATOM      5  C   UNL     1       1.151   9.256  19.218  0.00  0.00    +0.000 A 
ATOM      6  C   UNL     1       2.074   8.397  18.621  0.00  0.00    +0.000 A 
ATOM      7  C   UNL     1       2.499   7.231  19.262  0.00  0.00    +0.000 A 
ATOM      8  C   UNL     1       1.905   6.965  20.505  0.00  0.00    +0.000 A 
ATOM      9  N   UNL     1       1.065   7.821  21.107  0.00  0.00    +0.000 NA
ATOM     10  N   UNL     1       3.450   6.348  18.698  0.00  0.00    +0.000 NA
ATOM     11  C   UNL     1       4.009   6.740  17.593  0.00  0.00    +0.000 C 
ATOM     12  C   UNL     1       3.625   8.056  16.910  0.00  0.00    +0.000 C 
ATOM     13  O   UNL     1       2.504   8.779  17.379  0.00  0.00    +0.000 OA
ATOM     14  H   UNL     1      -0.533  10.626  20.647  0.00  0.00    +0.000 HD
ENDROOT
BRANCH  11  15
ATOM     15  C   UNL     1       5.076   5.923  16.946  0.00  0.00    +0.000 A 
ATOM     16  C   UNL     1       6.096   5.369  17.725  0.00  0.00    +0.000 A 
ATOM     17  C   UNL     1       7.108   4.617  17.120  0.00  0.00    +0.000 A 
ATOM     18  C   UNL     1       7.110   4.426  15.738  0.00  0.00    +0.000 A 
ATOM     19  C   UNL     1       6.097   4.975  14.958  0.00  0.00    +0.000 A 
ATOM     20  C   UNL     1       5.080   5.721  15.558  0.00  0.00    +0.000 A 
ENDBRANCH  11  15
BRANCH   8  21
ATOM     21  N   UNL     1       2.221   5.757  21.150  0.00  0.00    +0.000 N 
ATOM     22  C   UNL     1       1.620   4.543  20.856  0.00  0.00    +0.000 C 
ATOM     23  O   UNL     1       0.770   4.325  19.998  0.00  0.00    +0.000 OA
ATOM     24  H   UNL     1       3.082   5.773  21.683  0.00  0.00    +0.000 HD
BRANCH  22  25
ATOM     25  C   UNL     1       2.118   3.405  21.715  0.00  0.00    +0.000 C 
ATOM     26 BR   UNL     1       3.441   2.403  20.704  0.00  0.00    +0.000 Br
ENDBRANCH  22  25
ENDBRANCH   8  21
BRANCH   1  27
ATOM     27  O   UNL     1      -1.341  10.730  22.778  0.00  0.00    +0.000 OA
BRANCH  27  29
ATOM     28  C   UNL     1      -0.923  13.076  22.629  0.00  0.00    +0.000 C 
ATOM     29  C   UNL     1      -1.367  11.841  21.868  0.00  0.00    +0.000 C 
ENDBRANCH  27  29
ENDBRANCH   1  27
TORSDOF 5
ENDMDL
MODEL 2
REMARK VINA RESULT:      -6.9      2.286      7.659
REMARK  Name = 
REMARK  6 active torsions:
REMARK  status: ('A' for Active; 'I' for Inactive)
REMARK    1  A    between atoms: C_1  and  C_2
REMARK    2  A    between atoms: C_2  and  O_3
REMARK    3  A    between atoms: O_3  and  C_4
REMARK    4  A    between atoms: C_11  and  N_12
REMARK    5  A    between atoms: C_13  and  C_15
REMARK    6  A    between atoms: C_19  and  C_20
REMARK                            x       y       z     vdW  Elec       q    Type
REMARK                         _______ _______ _______ _____ _____    ______ ____
ROOT
ATOM      1  C   UNL     1       5.231   4.175  15.897  0.00  0.00    +0.000 C 
ATOM      2  O   UNL     1       4.802   3.312  16.648  0.00  0.00    +0.000 OA
ATOM      3  N   UNL     1       4.996   5.519  15.929  0.00  0.00    +0.000 N 
ATOM      4  C   UNL     1       4.319   6.158  16.967  0.00  0.00    +0.000 A 
ATOM      5  C   UNL     1       3.889   7.456  16.782  0.00  0.00    +0.000 A 
ATOM      6  C   UNL     1       3.109   8.038  17.782  0.00  0.00    +0.000 A 
ATOM      7  C   UNL     1       2.823   7.355  18.967  0.00  0.00    +0.000 A 
ATOM      8  C   UNL     1       3.406   6.086  19.099  0.00  0.00    +0.000 A 
ATOM      9  N   UNL     1       4.104   5.502  18.113  0.00  0.00    +0.000 NA
ATOM     10  N   UNL     1       2.017   7.904  19.993  0.00  0.00    +0.000 NA
ATOM     11  C   UNL     1       1.447   9.040  19.726  0.00  0.00    +0.000 C 
ATOM     12  C   UNL     1       1.674   9.772  18.400  0.00  0.00    +0.000 C 
ATOM     13  O   UNL     1       2.672   9.306  17.514  0.00  0.00    +0.000 OA
ATOM     14  H   UNL     1       5.327   6.046  15.139  0.00  0.00    +0.000 HD
ENDROOT
BRANCH  11  15
ATOM     15  C   UNL     1       0.520   9.677  20.706  0.00  0.00    +0.000 A 
ATOM     16  C   UNL     1       0.415   9.161  22.001  0.00  0.00    +0.000 A 
ATOM     17  C   UNL     1      -0.465   9.745  22.917  0.00  0.00    +0.000 A 
ATOM     18  C   UNL     1      -1.249  10.836  22.540  0.00  0.00    +0.000 A 
ATOM     19  C   UNL     1      -1.148  11.354  21.252  0.00  0.00    +0.000 A 
ATOM     20  C   UNL     1      -0.265  10.779  20.336  0.00  0.00    +0.000 A 
ENDBRANCH  11  15
BRANCH   8  21
ATOM     21  N   UNL     1       3.234   5.396  20.310  0.00  0.00    +0.000 N 
ATOM     22  C   UNL     1       2.269   4.422  20.515  0.00  0.00    +0.000 C 
ATOM     23  O   UNL     1       1.458   3.997  19.697  0.00  0.00    +0.000 OA
ATOM     24  H   UNL     1       4.007   5.478  20.960  0.00  0.00    +0.000 HD
BRANCH  22  25
ATOM     25  C   UNL     1       2.276   3.857  21.916  0.00  0.00    +0.000 C 
ATOM     26 BR   UNL     1       1.358   2.144  21.894  0.00  0.00    +0.000 Br
ENDBRANCH  22  25
ENDBRANCH   8  21
BRANCH   1  27
ATOM     27  O   UNL     1       6.045   3.902  14.839  0.00  0.00    +0.000 OA
BRANCH  27  29
ATOM     28  C   UNL     1       6.416   3.694  12.489  0.00  0.00    +0.000 C 
ATOM     29  C   UNL     1       5.381   3.963  13.567  0.00  0.00    +0.000 C 
ENDBRANCH  27  29
ENDBRANCH   1  27
TORSDOF 5
ENDMDL
MODEL 3
REMARK VINA RESULT:      -6.9      2.303      7.662
REMARK  Name = 
REMARK  6 active torsions:
REMARK  status: ('A' for Active; 'I' for Inactive)
REMARK    1  A    between atoms: C_1  and  C_2
REMARK    2  A    between atoms: C_2  and  O_3
REMARK    3  A    between atoms: O_3  and  C_4
REMARK    4  A    between atoms: C_11  and  N_12
REMARK    5  A    between atoms: C_13  and  C_15
REMARK    6  A    between atoms: C_19  and  C_20
REMARK                            x       y       z     vdW  Elec       q    Type
REMARK                         _______ _______ _______ _____ _____    ______ ____
ROOT
ATOM      1  C   UNL     1       5.292   4.085  15.825  0.00  0.00    +0.000 C 
ATOM      2  O   UNL     1       4.882   3.217  16.581  0.00  0.00    +0.000 OA
ATOM      3  N   UNL     1       5.043   5.426  15.862  0.00  0.00    +0.000 N 
ATOM      4  C   UNL     1       4.373   6.057  16.909  0.00  0.00    +0.000 A 
ATOM      5  C   UNL     1       3.928   7.351  16.731  0.00  0.00    +0.000 A 
ATOM      6  C   UNL     1       3.155   7.924  17.741  0.00  0.00    +0.000 A 
ATOM      7  C   UNL     1       2.892   7.237  18.930  0.00  0.00    +0.000 A 
ATOM      8  C   UNL     1       3.489   5.974  19.053  0.00  0.00    +0.000 A 
ATOM      9  N   UNL     1       4.181   5.398  18.057  0.00  0.00    +0.000 NA
ATOM     10  N   UNL     1       2.093   7.777  19.967  0.00  0.00    +0.000 NA
ATOM     11  C   UNL     1       1.508   8.907  19.708  0.00  0.00    +0.000 C 
ATOM     12  C   UNL     1       1.711   9.642  18.380  0.00  0.00    +0.000 C 
ATOM     13  O   UNL     1       2.701   9.188  17.480  0.00  0.00    +0.000 OA
ATOM     14  H   UNL     1       5.359   5.957  15.068  0.00  0.00    +0.000 HD
ENDROOT
BRANCH  11  15
ATOM     15  C   UNL     1       0.588   9.534  20.700  0.00  0.00    +0.000 A 
ATOM     16  C   UNL     1      -0.068  10.727  20.383  0.00  0.00    +0.000 A 
ATOM     17  C   UNL     1      -0.919  11.327  21.317  0.00  0.00    +0.000 A 
ATOM     18  C   UNL     1      -1.108  10.745  22.570  0.00  0.00    +0.000 A 
ATOM     19  C   UNL     1      -0.457   9.557  22.892  0.00  0.00    +0.000 A 
ATOM     20  C   UNL     1       0.387   8.950  21.960  0.00  0.00    +0.000 A 
ENDBRANCH  11  15
BRANCH   8  21
ATOM     21  N   UNL     1       3.340   5.281  20.265  0.00  0.00    +0.000 N 
ATOM     22  C   UNL     1       2.386   4.300  20.484  0.00  0.00    +0.000 C 
ATOM     23  O   UNL     1       1.567   3.869  19.677  0.00  0.00    +0.000 OA
ATOM     24  H   UNL     1       4.122   5.369  20.904  0.00  0.00    +0.000 HD
BRANCH  22  25
ATOM     25  C   UNL     1       2.418   3.734  21.883  0.00  0.00    +0.000 C 
ATOM     26 BR   UNL     1       1.215   2.209  21.959  0.00  0.00    +0.000 Br
ENDBRANCH  22  25
ENDBRANCH   8  21
BRANCH   1  27
ATOM     27  O   UNL     1       6.094   3.821  14.757  0.00  0.00    +0.000 OA
BRANCH  27  29
ATOM     28  C   UNL     1       7.192   4.715  12.834  0.00  0.00    +0.000 C 
ATOM     29  C   UNL     1       6.828   4.962  14.286  0.00  0.00    +0.000 C 
ENDBRANCH  27  29
ENDBRANCH   1  27
TORSDOF 5
ENDMDL
MODEL 4
REMARK VINA RESULT:      -6.8      2.617      7.825
REMARK  Name = 
REMARK  6 active torsions:
REMARK  status: ('A' for Active; 'I' for Inactive)
REMARK    1  A    between atoms: C_1  and  C_2
REMARK    2  A    between atoms: C_2  and  O_3
REMARK    3  A    between atoms: O_3  and  C_4
REMARK    4  A    between atoms: C_11  and  N_12
REMARK    5  A    between atoms: C_13  and  C_15
REMARK    6  A    between atoms: C_19  and  C_20
REMARK                            x       y       z     vdW  Elec       q    Type
REMARK                         _______ _______ _______ _____ _____    ______ ____
ROOT
ATOM      1  C   UNL     1       5.811   3.952  15.278  0.00  0.00    +0.000 C 
ATOM      2  O   UNL     1       5.374   3.028  15.947  0.00  0.00    +0.000 OA
ATOM      3  N   UNL     1       5.559   5.287  15.412  0.00  0.00    +0.000 N 
ATOM      4  C   UNL     1       4.851   5.834  16.482  0.00  0.00    +0.000 A 
ATOM      5  C   UNL     1       4.411   7.139  16.391  0.00  0.00    +0.000 A 
ATOM      6  C   UNL     1       3.602   7.631  17.415  0.00  0.00    +0.000 A 
ATOM      7  C   UNL     1       3.297   6.853  18.535  0.00  0.00    +0.000 A 
ATOM      8  C   UNL     1       3.891   5.583  18.579  0.00  0.00    +0.000 A 
ATOM      9  N   UNL     1       4.618   5.086  17.566  0.00  0.00    +0.000 NA
ATOM     10  N   UNL     1       2.461   7.310  19.582  0.00  0.00    +0.000 NA
ATOM     11  C   UNL     1       1.884   8.458  19.393  0.00  0.00    +0.000 C 
ATOM     12  C   UNL     1       2.133   9.296  18.136  0.00  0.00    +0.000 C 
ATOM     13  O   UNL     1       3.157   8.912  17.239  0.00  0.00    +0.000 OA
ATOM     14  H   UNL     1       5.903   5.879  14.675  0.00  0.00    +0.000 HD
ENDROOT
BRANCH  11  15
ATOM     15  C   UNL     1       0.928   9.006  20.398  0.00  0.00    +0.000 A 
ATOM     16  C   UNL     1       0.695   8.310  21.588  0.00  0.00    +0.000 A 
ATOM     17  C   UNL     1      -0.214   8.811  22.525  0.00  0.00    +0.000 A 
ATOM     18  C   UNL     1      -0.898  10.000  22.273  0.00  0.00    +0.000 A 
ATOM     19  C   UNL     1      -0.670  10.697  21.090  0.00  0.00    +0.000 A 
ATOM     20  C   UNL     1       0.242  10.205  20.155  0.00  0.00    +0.000 A 
ENDBRANCH  11  15
BRANCH   8  21
ATOM     21  N   UNL     1       3.699   4.796  19.726  0.00  0.00    +0.000 N 
ATOM     22  C   UNL     1       3.437   3.435  19.696  0.00  0.00    +0.000 C 
ATOM     23  O   UNL     1       3.364   2.716  18.705  0.00  0.00    +0.000 OA
ATOM     24  H   UNL     1       3.994   5.229  20.593  0.00  0.00    +0.000 HD
BRANCH  22  25
ATOM     25  C   UNL     1       3.241   2.832  21.067  0.00  0.00    +0.000 C 
ATOM     26 BR   UNL     1       1.342   2.851  21.482  0.00  0.00    +0.000 Br
ENDBRANCH  22  25
ENDBRANCH   8  21
BRANCH   1  27
ATOM     27  O   UNL     1       6.651   3.773  14.222  0.00  0.00    +0.000 OA
BRANCH  27  29
ATOM     28  C   UNL     1       6.967   3.823  11.856  0.00  0.00    +0.000 C 
ATOM     29  C   UNL     1       5.975   3.558  12.973  0.00  0.00    +0.000 C 
ENDBRANCH  27  29
ENDBRANCH   1  27
TORSDOF 5
ENDMDL
MODEL 5
REMARK VINA RESULT:      -6.8      3.518      9.341
REMARK  Name = 
REMARK  6 active torsions:
REMARK  status: ('A' for Active; 'I' for Inactive)
REMARK    1  A    between atoms: C_1  and  C_2
REMARK    2  A    between atoms: C_2  and  O_3
REMARK    3  A    between atoms: O_3  and  C_4
REMARK    4  A    between atoms: C_11  and  N_12
REMARK    5  A    between atoms: C_13  and  C_15
REMARK    6  A    between atoms: C_19  and  C_20
REMARK                            x       y       z     vdW  Elec       q    Type
REMARK                         _______ _______ _______ _____ _____    ______ ____
ROOT
ATOM      1  C   UNL     1       2.751   7.672  18.266  0.00  0.00    +0.000 C 
ATOM      2  O   UNL     1       2.633   8.382  17.279  0.00  0.00    +0.000 OA
ATOM      3  N   UNL     1       2.159   7.813  19.487  0.00  0.00    +0.000 N 
ATOM      4  C   UNL     1       1.162   8.751  19.756  0.00  0.00    +0.000 A 
ATOM      5  C   UNL     1       0.825   9.007  21.069  0.00  0.00    +0.000 A 
ATOM      6  C   UNL     1      -0.085  10.033  21.325  0.00  0.00    +0.000 A 
ATOM      7  C   UNL     1      -0.692  10.740  20.284  0.00  0.00    +0.000 A 
ATOM      8  C   UNL     1      -0.364  10.320  18.986  0.00  0.00    +0.000 A 
ATOM      9  N   UNL     1       0.558   9.376  18.739  0.00  0.00    +0.000 NA
ATOM     10  N   UNL     1      -1.602  11.801  20.505  0.00  0.00    +0.000 NA
ATOM     11  C   UNL     1      -1.757  12.173  21.740  0.00  0.00    +0.000 C 
ATOM     12  C   UNL     1      -1.039  11.472  22.896  0.00  0.00    +0.000 C 
ATOM     13  O   UNL     1      -0.336  10.270  22.649  0.00  0.00    +0.000 OA
ATOM     14  H   UNL     1       2.492   7.205  20.215  0.00  0.00    +0.000 HD
ENDROOT
BRANCH  11  15
ATOM     15  C   UNL     1      -2.637  13.327  22.084  0.00  0.00    +0.000 A 
ATOM     16  C   UNL     1      -3.814  13.111  22.807  0.00  0.00    +0.000 A 
ATOM     17  C   UNL     1      -4.651  14.188  23.117  0.00  0.00    +0.000 A 
ATOM     18  C   UNL     1      -4.321  15.477  22.699  0.00  0.00    +0.000 A 
ATOM     19  C   UNL     1      -3.150  15.697  21.979  0.00  0.00    +0.000 A 
ATOM     20  C   UNL     1      -2.307  14.627  21.674  0.00  0.00    +0.000 A 
ENDBRANCH  11  15
BRANCH   8  21
ATOM     21  N   UNL     1      -1.019  10.929  17.903  0.00  0.00    +0.000 N 
ATOM     22  C   UNL     1      -2.223  10.486  17.378  0.00  0.00    +0.000 C 
ATOM     23  O   UNL     1      -2.904   9.546  17.776  0.00  0.00    +0.000 OA
ATOM     24  H   UNL     1      -0.683  11.856  17.670  0.00  0.00    +0.000 HD
BRANCH  22  25
ATOM     25  C   UNL     1      -2.696  11.298  16.196  0.00  0.00    +0.000 C 
ATOM     26 BR   UNL     1      -3.130  10.079  14.746  0.00  0.00    +0.000 Br
ENDBRANCH  22  25
ENDBRANCH   8  21
BRANCH   1  27
ATOM     27  O   UNL     1       3.557   6.575  18.300  0.00  0.00    +0.000 OA
BRANCH  27  29
ATOM     28  C   UNL     1       2.070   4.761  17.852  0.00  0.00    +0.000 C 
ATOM     29  C   UNL     1       2.945   5.423  18.900  0.00  0.00    +0.000 C 
ENDBRANCH  27  29
ENDBRANCH   1  27
TORSDOF 5
ENDMDL
MODEL 6
REMARK VINA RESULT:      -6.7      3.699      6.109
REMARK  Name = 
REMARK  6 active torsions:
REMARK  status: ('A' for Active; 'I' for Inactive)
REMARK    1  A    between atoms: C_1  and  C_2
REMARK    2  A    between atoms: C_2  and  O_3
REMARK    3  A    between atoms: O_3  and  C_4
REMARK    4  A    between atoms: C_11  and  N_12
REMARK    5  A    between atoms: C_13  and  C_15
REMARK    6  A    between atoms: C_19  and  C_20
REMARK                            x       y       z     vdW  Elec       q    Type
REMARK                         _______ _______ _______ _____ _____    ______ ____
ROOT
ATOM      1  C   UNL     1      -4.214  13.365  22.934  0.00  0.00    +0.000 C 
ATOM      2  O   UNL     1      -4.727  13.319  21.826  0.00  0.00    +0.000 OA
ATOM      3  N   UNL     1      -3.058  12.777  23.358  0.00  0.00    +0.000 N 
ATOM      4  C   UNL     1      -2.167  12.126  22.506  0.00  0.00    +0.000 A 
ATOM      5  C   UNL     1      -1.182  11.331  23.053  0.00  0.00    +0.000 A 
ATOM      6  C   UNL     1      -0.377  10.593  22.185  0.00  0.00    +0.000 A 
ATOM      7  C   UNL     1      -0.515  10.702  20.799  0.00  0.00    +0.000 A 
ATOM      8  C   UNL     1      -1.470  11.626  20.350  0.00  0.00    +0.000 A 
ATOM      9  N   UNL     1      -2.286  12.289  21.183  0.00  0.00    +0.000 NA
ATOM     10  N   UNL     1       0.268   9.952  19.889  0.00  0.00    +0.000 NA
ATOM     11  C   UNL     1       1.049   9.055  20.410  0.00  0.00    +0.000 C 
ATOM     12  C   UNL     1       1.159   8.854  21.924  0.00  0.00    +0.000 C 
ATOM     13  O   UNL     1       0.545   9.785  22.793  0.00  0.00    +0.000 OA
ATOM     14  H   UNL     1      -2.877  12.817  24.347  0.00  0.00    +0.000 HD
ENDROOT
BRANCH  11  15
ATOM     15  C   UNL     1       1.868   8.160  19.543  0.00  0.00    +0.000 A 
ATOM     16  C   UNL     1       2.252   6.900  20.011  0.00  0.00    +0.000 A 
ATOM     17  C   UNL     1       3.034   6.064  19.208  0.00  0.00    +0.000 A 
ATOM     18  C   UNL     1       3.442   6.487  17.943  0.00  0.00    +0.000 A 
ATOM     19  C   UNL     1       3.061   7.740  17.471  0.00  0.00    +0.000 A 
ATOM     20  C   UNL     1       2.275   8.575  18.266  0.00  0.00    +0.000 A 
ENDBRANCH  11  15
BRANCH   8  21
ATOM     21  N   UNL     1      -1.583  11.849  18.968  0.00  0.00    +0.000 N 
ATOM     22  C   UNL     1      -2.394  11.103  18.127  0.00  0.00    +0.000 C 
ATOM     23  O   UNL     1      -3.140  10.181  18.443  0.00  0.00    +0.000 OA
ATOM     24  H   UNL     1      -1.219  12.739  18.650  0.00  0.00    +0.000 HD
BRANCH  22  25
ATOM     25  C   UNL     1      -2.310  11.528  16.680  0.00  0.00    +0.000 C 
ATOM     26 BR   UNL     1      -3.021  10.096  15.575  0.00  0.00    +0.000 Br
ENDBRANCH  22  25
ENDBRANCH   8  21
BRANCH   1  27
ATOM     27  O   UNL     1      -4.766  14.040  23.980  0.00  0.00    +0.000 OA
BRANCH  27  29
ATOM     28  C   UNL     1      -6.663  15.465  23.709  0.00  0.00    +0.000 C 
ATOM     29  C   UNL     1      -5.148  15.388  23.664  0.00  0.00    +0.000 C 
ENDBRANCH  27  29
ENDBRANCH   1  27
TORSDOF 5
ENDMDL
MODEL 7
REMARK VINA RESULT:      -6.7      2.669      7.943
REMARK  Name = 
REMARK  6 active torsions:
REMARK  status: ('A' for Active; 'I' for Inactive)
REMARK    1  A    between atoms: C_1  and  C_2
REMARK    2  A    between atoms: C_2  and  O_3
REMARK    3  A    between atoms: O_3  and  C_4
REMARK    4  A    between atoms: C_11  and  N_12
REMARK    5  A    between atoms: C_13  and  C_15
REMARK    6  A    between atoms: C_19  and  C_20
REMARK                            x       y       z     vdW  Elec       q    Type
REMARK                         _______ _______ _______ _____ _____    ______ ____
ROOT
ATOM      1  C   UNL     1       5.926   3.977  14.953  0.00  0.00    +0.000 C 
ATOM      2  O   UNL     1       5.558   3.028  15.629  0.00  0.00    +0.000 OA
ATOM      3  N   UNL     1       5.623   5.298  15.112  0.00  0.00    +0.000 N 
ATOM      4  C   UNL     1       4.937   5.804  16.215  0.00  0.00    +0.000 A 
ATOM      5  C   UNL     1       4.437   7.089  16.158  0.00  0.00    +0.000 A 
ATOM      6  C   UNL     1       3.650   7.535  17.219  0.00  0.00    +0.000 A 
ATOM      7  C   UNL     1       3.425   6.734  18.342  0.00  0.00    +0.000 A 
ATOM      8  C   UNL     1       4.075   5.491  18.347  0.00  0.00    +0.000 A 
ATOM      9  N   UNL     1       4.781   5.036  17.300  0.00  0.00    +0.000 NA
ATOM     10  N   UNL     1       2.614   7.144  19.427  0.00  0.00    +0.000 NA
ATOM     11  C   UNL     1       1.981   8.268  19.275  0.00  0.00    +0.000 C 
ATOM     12  C   UNL     1       2.142   9.128  18.018  0.00  0.00    +0.000 C 
ATOM     13  O   UNL     1       3.142   8.798  17.076  0.00  0.00    +0.000 OA
ATOM     14  H   UNL     1       5.909   5.912  14.368  0.00  0.00    +0.000 HD
ENDROOT
BRANCH  11  15
ATOM     15  C   UNL     1       1.044   8.764  20.324  0.00  0.00    +0.000 A 
ATOM     16  C   UNL     1       0.407   9.997  20.161  0.00  0.00    +0.000 A 
ATOM     17  C   UNL     1      -0.459  10.474  21.150  0.00  0.00    +0.000 A 
ATOM     18  C   UNL     1      -0.682   9.726  22.307  0.00  0.00    +0.000 A 
ATOM     19  C   UNL     1      -0.050   8.497  22.475  0.00  0.00    +0.000 A 
ATOM     20  C   UNL     1       0.809   8.014  21.486  0.00  0.00    +0.000 A 
ENDBRANCH  11  15
BRANCH   8  21
ATOM     21  N   UNL     1       3.965   4.686  19.492  0.00  0.00    +0.000 N 
ATOM     22  C   UNL     1       3.349   3.444  19.509  0.00  0.00    +0.000 C 
ATOM     23  O   UNL     1       2.846   2.853  18.559  0.00  0.00    +0.000 OA
ATOM     24  H   UNL     1       4.568   4.955  20.261  0.00  0.00    +0.000 HD
BRANCH  22  25
ATOM     25  C   UNL     1       3.339   2.799  20.875  0.00  0.00    +0.000 C 
ATOM     26 BR   UNL     1       1.514   2.800  21.543  0.00  0.00    +0.000 Br
ENDBRANCH  22  25
ENDBRANCH   8  21
BRANCH   1  27
ATOM     27  O   UNL     1       6.729   3.845  13.861  0.00  0.00    +0.000 OA
BRANCH  27  29
ATOM     28  C   UNL     1       6.847   2.657  11.793  0.00  0.00    +0.000 C 
ATOM     29  C   UNL     1       6.013   3.599  12.641  0.00  0.00    +0.000 C 
ENDBRANCH  27  29
ENDBRANCH   1  27
TORSDOF 5
ENDMDL
MODEL 8
REMARK VINA RESULT:      -6.7      3.351      9.281
REMARK  Name = 
REMARK  6 active torsions:
REMARK  status: ('A' for Active; 'I' for Inactive)
REMARK    1  A    between atoms: C_1  and  C_2
REMARK    2  A    between atoms: C_2  and  O_3
REMARK    3  A    between atoms: O_3  and  C_4
REMARK    4  A    between atoms: C_11  and  N_12
REMARK    5  A    between atoms: C_13  and  C_15
REMARK    6  A    between atoms: C_19  and  C_20
REMARK                            x       y       z     vdW  Elec       q    Type
REMARK                         _______ _______ _______ _____ _____    ______ ____
ROOT
ATOM      1  C   UNL     1       2.953   7.577  17.923  0.00  0.00    +0.000 C 
ATOM      2  O   UNL     1       2.790   8.476  17.112  0.00  0.00    +0.000 OA
ATOM      3  N   UNL     1       2.442   7.472  19.184  0.00  0.00    +0.000 N 
ATOM      4  C   UNL     1       1.488   8.345  19.704  0.00  0.00    +0.000 A 
ATOM      5  C   UNL     1       1.241   8.330  21.062  0.00  0.00    +0.000 A 
ATOM      6  C   UNL     1       0.374   9.291  21.582  0.00  0.00    +0.000 A 
ATOM      7  C   UNL     1      -0.280  10.203  20.750  0.00  0.00    +0.000 A 
ATOM      8  C   UNL     1      -0.045  10.055  19.375  0.00  0.00    +0.000 A 
ATOM      9  N   UNL     1       0.836   9.172  18.879  0.00  0.00    +0.000 NA
ATOM     10  N   UNL     1      -1.148  11.207  21.243  0.00  0.00    +0.000 NA
ATOM     11  C   UNL     1      -1.216  11.319  22.535  0.00  0.00    +0.000 C 
ATOM     12  C   UNL     1      -0.444  10.387  23.474  0.00  0.00    +0.000 C 
ATOM     13  O   UNL     1       0.213   9.255  22.940  0.00  0.00    +0.000 OA
ATOM     14  H   UNL     1       2.806   6.723  19.748  0.00  0.00    +0.000 HD
ENDROOT
BRANCH  11  15
ATOM     15  C   UNL     1      -2.044  12.387  23.166  0.00  0.00    +0.000 A 
ATOM     16  C   UNL     1      -1.481  13.638  23.432  0.00  0.00    +0.000 A 
ATOM     17  C   UNL     1      -2.249  14.637  24.039  0.00  0.00    +0.000 A 
ATOM     18  C   UNL     1      -3.575  14.385  24.390  0.00  0.00    +0.000 A 
ATOM     19  C   UNL     1      -4.142  13.141  24.127  0.00  0.00    +0.000 A 
ATOM     20  C   UNL     1      -3.381  12.144  23.515  0.00  0.00    +0.000 A 
ENDBRANCH  11  15
BRANCH   8  21
ATOM     21  N   UNL     1      -0.752  10.881  18.485  0.00  0.00    +0.000 N 
ATOM     22  C   UNL     1      -1.921  10.504  17.841  0.00  0.00    +0.000 C 
ATOM     23  O   UNL     1      -2.524   9.442  17.962  0.00  0.00    +0.000 OA
ATOM     24  H   UNL     1      -0.491  11.859  18.515  0.00  0.00    +0.000 HD
BRANCH  22  25
ATOM     25  C   UNL     1      -2.463  11.565  16.914  0.00  0.00    +0.000 C 
ATOM     26 BR   UNL     1      -4.404  11.538  17.015  0.00  0.00    +0.000 Br
ENDBRANCH  22  25
ENDBRANCH   8  21
BRANCH   1  27
ATOM     27  O   UNL     1       3.732   6.488  17.678  0.00  0.00    +0.000 OA
BRANCH  27  29
ATOM     28  C   UNL     1       5.295   6.303  15.882  0.00  0.00    +0.000 C 
ATOM     29  C   UNL     1       5.078   6.812  17.295  0.00  0.00    +0.000 C 
ENDBRANCH  27  29
ENDBRANCH   1  27
TORSDOF 5
ENDMDL
MODEL 9
REMARK VINA RESULT:      -6.6      3.585      5.412
REMARK  Name = 
REMARK  6 active torsions:
REMARK  status: ('A' for Active; 'I' for Inactive)
REMARK    1  A    between atoms: C_1  and  C_2
REMARK    2  A    between atoms: C_2  and  O_3
REMARK    3  A    between atoms: O_3  and  C_4
REMARK    4  A    between atoms: C_11  and  N_12
REMARK    5  A    between atoms: C_13  and  C_15
REMARK    6  A    between atoms: C_19  and  C_20
REMARK                            x       y       z     vdW  Elec       q    Type
REMARK                         _______ _______ _______ _____ _____    ______ ____
ROOT
ATOM      1  C   UNL     1       2.345  13.514  18.435  0.00  0.00    +0.000 C 
ATOM      2  O   UNL     1       1.989  13.627  19.598  0.00  0.00    +0.000 OA
ATOM      3  N   UNL     1       2.540  12.370  17.717  0.00  0.00    +0.000 N 
ATOM      4  C   UNL     1       2.197  11.101  18.181  0.00  0.00    +0.000 A 
ATOM      5  C   UNL     1       2.680   9.995  17.513  0.00  0.00    +0.000 A 
ATOM      6  C   UNL     1       2.429   8.736  18.059  0.00  0.00    +0.000 A 
ATOM      7  C   UNL     1       1.655   8.589  19.213  0.00  0.00    +0.000 A 
ATOM      8  C   UNL     1       1.118   9.771  19.745  0.00  0.00    +0.000 A 
ATOM      9  N   UNL     1       1.410  10.986  19.256  0.00  0.00    +0.000 NA
ATOM     10  N   UNL     1       1.398   7.331  19.809  0.00  0.00    +0.000 NA
ATOM     11  C   UNL     1       2.024   6.316  19.295  0.00  0.00    +0.000 C 
ATOM     12  C   UNL     1       2.947   6.460  18.082  0.00  0.00    +0.000 C 
ATOM     13  O   UNL     1       2.979   7.686  17.377  0.00  0.00    +0.000 OA
ATOM     14  H   UNL     1       2.971  12.482  16.815  0.00  0.00    +0.000 HD
ENDROOT
BRANCH  11  15
ATOM     15  C   UNL     1       1.884   4.954  19.886  0.00  0.00    +0.000 A 
ATOM     16  C   UNL     1       2.265   4.729  21.212  0.00  0.00    +0.000 A 
ATOM     17  C   UNL     1       2.152   3.449  21.765  0.00  0.00    +0.000 A 
ATOM     18  C   UNL     1       1.667   2.392  20.994  0.00  0.00    +0.000 A 
ATOM     19  C   UNL     1       1.285   2.611  19.673  0.00  0.00    +0.000 A 
ATOM     20  C   UNL     1       1.390   3.888  19.120  0.00  0.00    +0.000 A 
ENDBRANCH  11  15
BRANCH   8  21
ATOM     21  N   UNL     1       0.252   9.673  20.847  0.00  0.00    +0.000 N 
ATOM     22  C   UNL     1       0.676   9.658  22.166  0.00  0.00    +0.000 C 
ATOM     23  O   UNL     1       1.829   9.756  22.575  0.00  0.00    +0.000 OA
ATOM     24  H   UNL     1      -0.724   9.850  20.638  0.00  0.00    +0.000 HD
BRANCH  22  25
ATOM     25  C   UNL     1      -0.454   9.514  23.158  0.00  0.00    +0.000 C 
ATOM     26 BR   UNL     1      -1.515  11.142  23.124  0.00  0.00    +0.000 Br
ENDBRANCH  22  25
ENDBRANCH   8  21
BRANCH   1  27
ATOM     27  O   UNL     1       2.637  14.581  17.641  0.00  0.00    +0.000 OA
BRANCH  27  29
ATOM     28  C   UNL     1       2.673  16.853  18.375  0.00  0.00    +0.000 C 
ATOM     29  C   UNL     1       3.470  15.565  18.274  0.00  0.00    +0.000 C 
ENDBRANCH  27  29
ENDBRANCH   1  27
TORSDOF 5
ENDMDL
