MODEL 1
REMARK VINA RESULT:      -7.8      0.000      0.000
REMARK  Name = 
REMARK  9 active torsions:
REMARK  status: ('A' for Active; 'I' for Inactive)
REMARK    1  A    between atoms: C_1  and  C_2
REMARK    2  A    between atoms: C_2  and  C_3
REMARK    3  A    between atoms: C_3  and  N_4
REMARK    4  A    between atoms: N_6  and  C_7
REMARK    5  A    between atoms: C_16  and  C_17
REMARK    6  A    between atoms: C_17  and  O_19
REMARK    7  A    between atoms: N_21  and  C_22
REMARK    8  A    between atoms: N_27  and  O_28
REMARK    9  A    between atoms: O_28  and  C_29
REMARK                            x       y       z     vdW  Elec       q    Type
REMARK                         _______ _______ _______ _____ _____    ______ ____
ROOT
ATOM      1  C   UNL     1       1.931   7.569  19.428  0.00  0.00    +0.000 A 
ATOM      2  N   UNL     1       1.637   8.874  19.171  0.00  0.00    +0.000 NA
ATOM      3  C   UNL     1       1.032   9.648  20.117  0.00  0.00    +0.000 A 
ATOM      4  C   UNL     1       0.682   9.117  21.363  0.00  0.00    +0.000 A 
ATOM      5  C   UNL     1       0.948   7.779  21.639  0.00  0.00    +0.000 A 
ATOM      6  C   UNL     1       1.569   7.013  20.665  0.00  0.00    +0.000 A 
ATOM      7  F   UNL     1       1.797   5.721  20.944  0.00  0.00    +0.000 F 
ATOM      8  C   UNL     1       0.019   9.962  22.375  0.00  0.00    +0.000 A 
ATOM      9  O   UNL     1      -0.265   9.527  23.488  0.00  0.00    +0.000 OA
ATOM     10  C   UNL     1      -0.312  11.359  22.024  0.00  0.00    +0.000 A 
ATOM     11  C   UNL     1       0.053  11.774  20.804  0.00  0.00    +0.000 A 
ATOM     12  N   UNL     1       0.733  11.023  19.865  0.00  0.00    +0.000 N 
ENDROOT
BRANCH   1  16
ATOM     13  C   UNL     1       5.584   5.970  16.492  0.00  0.00    +0.000 C 
ATOM     14  C   UNL     1       4.673   5.914  17.721  0.00  0.00    +0.000 C 
ATOM     15  C   UNL     1       3.898   7.232  17.938  0.00  0.00    +0.000 C 
ATOM     16  N   UNL     1       2.585   6.847  18.458  0.00  0.00    +0.000 N 
ATOM     17  C   UNL     1       2.214   5.496  18.046  0.00  0.00    +0.000 C 
ATOM     18  C   UNL     1       3.517   4.951  17.497  0.00  0.00    +0.000 C 
ATOM     19  N   UNL     1       3.702   3.797  16.929  0.00  0.00    +0.000 NA
BRANCH  14  20
ATOM     20  C   UNL     1       5.436   5.477  18.987  0.00  0.00    +0.000 C 
BRANCH  20  21
ATOM     21  N   UNL     1       5.854   4.073  18.968  0.00  0.00    +0.000 NA
ATOM     22  H   UNL     1       6.560   3.903  19.683  0.00  0.00    +0.000 HD
ATOM     23  H   UNL     1       6.311   3.872  18.077  0.00  0.00    +0.000 HD
ENDBRANCH  20  21
ENDBRANCH  14  20
BRANCH  19  24
ATOM     24  O   UNL     1       2.494   3.086  16.835  0.00  0.00    +0.000 OA
BRANCH  24  25
ATOM     25  C   UNL     1       2.485   2.057  17.824  0.00  0.00    +0.000 C 
ATOM     26  F   UNL     1       3.684   1.419  17.748  0.00  0.00    +0.000 F 
ENDBRANCH  24  25
ENDBRANCH  19  24
ENDBRANCH   1  16
BRANCH  12  27
ATOM     27  C   UNL     1       1.017  11.591  18.532  0.00  0.00    +0.000 C 
ATOM     28  C   UNL     1       1.222  13.062  18.255  0.00  0.00    +0.000 C 
ATOM     29  C   UNL     1       2.388  12.125  18.202  0.00  0.00    +0.000 C 
ENDBRANCH  12  27
BRANCH  10  30
ATOM     30  C   UNL     1      -1.011  12.291  22.933  0.00  0.00    +0.000 C 
ATOM     31  O   UNL     1      -0.520  13.338  23.330  0.00  0.00    +0.000 OA
BRANCH  30  32
ATOM     32  O   UNL     1      -2.250  11.897  23.298  0.00  0.00    +0.000 OA
ATOM     33  H   UNL     1      -2.685  12.486  23.963  0.00  0.00    +0.000 HD
ENDBRANCH  30  32
ENDBRANCH  10  30
TORSDOF 8
ENDMDL
MODEL 2
REMARK VINA RESULT:      -7.7      0.874      1.112
REMARK  Name = 
REMARK  9 active torsions:
REMARK  status: ('A' for Active; 'I' for Inactive)
REMARK    1  A    between atoms: C_1  and  C_2
REMARK    2  A    between atoms: C_2  and  C_3
REMARK    3  A    between atoms: C_3  and  N_4
REMARK    4  A    between atoms: N_6  and  C_7
REMARK    5  A    between atoms: C_16  and  C_17
REMARK    6  A    between atoms: C_17  and  O_19
REMARK    7  A    between atoms: N_21  and  C_22
REMARK    8  A    between atoms: N_27  and  O_28
REMARK    9  A    between atoms: O_28  and  C_29
REMARK                            x       y       z     vdW  Elec       q    Type
REMARK                         _______ _______ _______ _____ _____    ______ ____
ROOT
ATOM      1  C   UNL     1       1.832   7.588  19.447  0.00  0.00    +0.000 A 
ATOM      2  N   UNL     1       1.136   8.708  19.102  0.00  0.00    +0.000 NA
ATOM      3  C   UNL     1       0.577   9.500  20.060  0.00  0.00    +0.000 A 
ATOM      4  C   UNL     1       0.686   9.173  21.415  0.00  0.00    +0.000 A 
ATOM      5  C   UNL     1       1.368   8.019  21.792  0.00  0.00    +0.000 A 
ATOM      6  C   UNL     1       1.934   7.232  20.801  0.00  0.00    +0.000 A 
ATOM      7  F   UNL     1       2.569   6.114  21.183  0.00  0.00    +0.000 F 
ATOM      8  C   UNL     1       0.068  10.033  22.444  0.00  0.00    +0.000 A 
ATOM      9  O   UNL     1       0.181   9.784  23.641  0.00  0.00    +0.000 OA
ATOM     10  C   UNL     1      -0.708  11.212  22.006  0.00  0.00    +0.000 A 
ATOM     11  C   UNL     1      -0.765  11.438  20.686  0.00  0.00    +0.000 A 
ATOM     12  N   UNL     1      -0.140  10.686  19.710  0.00  0.00    +0.000 N 
ENDROOT
BRANCH   1  16
ATOM     13  C   UNL     1       5.251   5.990  16.242  0.00  0.00    +0.000 C 
ATOM     14  C   UNL     1       4.457   5.952  17.549  0.00  0.00    +0.000 C 
ATOM     15  C   UNL     1       3.665   7.255  17.795  0.00  0.00    +0.000 C 
ATOM     16  N   UNL     1       2.417   6.851  18.445  0.00  0.00    +0.000 N 
ATOM     17  C   UNL     1       2.052   5.477  18.112  0.00  0.00    +0.000 C 
ATOM     18  C   UNL     1       3.317   4.950  17.464  0.00  0.00    +0.000 C 
ATOM     19  N   UNL     1       3.485   3.783  16.918  0.00  0.00    +0.000 NA
BRANCH  14  20
ATOM     20  C   UNL     1       5.346   5.580  18.754  0.00  0.00    +0.000 C 
BRANCH  20  21
ATOM     21  N   UNL     1       5.783   4.182  18.754  0.00  0.00    +0.000 NA
ATOM     22  H   UNL     1       5.089   3.593  19.212  0.00  0.00    +0.000 HD
ATOM     23  H   UNL     1       6.630   4.097  19.317  0.00  0.00    +0.000 HD
ENDBRANCH  20  21
ENDBRANCH  14  20
BRANCH  19  24
ATOM     24  O   UNL     1       2.295   3.035  16.957  0.00  0.00    +0.000 OA
BRANCH  24  25
ATOM     25  C   UNL     1       2.447   1.976  17.903  0.00  0.00    +0.000 C 
ATOM     26  F   UNL     1       3.705   1.484  17.755  0.00  0.00    +0.000 F 
ENDBRANCH  24  25
ENDBRANCH  19  24
ENDBRANCH   1  16
BRANCH  12  27
ATOM     27  C   UNL     1      -0.341  11.015  18.286  0.00  0.00    +0.000 C 
ATOM     28  C   UNL     1      -1.483  10.498  17.441  0.00  0.00    +0.000 C 
ATOM     29  C   UNL     1      -1.459  11.934  17.861  0.00  0.00    +0.000 C 
ENDBRANCH  12  27
BRANCH  10  30
ATOM     30  C   UNL     1      -1.408  12.125  22.933  0.00  0.00    +0.000 C 
ATOM     31  O   UNL     1      -1.040  13.270  23.154  0.00  0.00    +0.000 OA
BRANCH  30  32
ATOM     32  O   UNL     1      -2.499  11.595  23.528  0.00  0.00    +0.000 OA
ATOM     33  H   UNL     1      -2.489  11.646  24.516  0.00  0.00    +0.000 HD
ENDBRANCH  30  32
ENDBRANCH  10  30
TORSDOF 8
ENDMDL
MODEL 3
REMARK VINA RESULT:      -7.7      3.154      8.556
REMARK  Name = 
REMARK  9 active torsions:
REMARK  status: ('A' for Active; 'I' for Inactive)
REMARK    1  A    between atoms: C_1  and  C_2
REMARK    2  A    between atoms: C_2  and  C_3
REMARK    3  A    between atoms: C_3  and  N_4
REMARK    4  A    between atoms: N_6  and  C_7
REMARK    5  A    between atoms: C_16  and  C_17
REMARK    6  A    between atoms: C_17  and  O_19
REMARK    7  A    between atoms: N_21  and  C_22
REMARK    8  A    between atoms: N_27  and  O_28
REMARK    9  A    between atoms: O_28  and  C_29
REMARK                            x       y       z     vdW  Elec       q    Type
REMARK                         _______ _______ _______ _____ _____    ______ ____
ROOT
ATOM      1  C   UNL     1       1.281   8.920  19.268  0.00  0.00    +0.000 A 
ATOM      2  N   UNL     1       1.554   7.672  19.741  0.00  0.00    +0.000 NA
ATOM      3  C   UNL     1       2.527   6.909  19.166  0.00  0.00    +0.000 A 
ATOM      4  C   UNL     1       3.252   7.381  18.067  0.00  0.00    +0.000 A 
ATOM      5  C   UNL     1       2.973   8.641  17.548  0.00  0.00    +0.000 A 
ATOM      6  C   UNL     1       1.984   9.402  18.152  0.00  0.00    +0.000 A 
ATOM      7  F   UNL     1       1.716  10.605  17.624  0.00  0.00    +0.000 F 
ATOM      8  C   UNL     1       4.297   6.541  17.446  0.00  0.00    +0.000 A 
ATOM      9  O   UNL     1       4.970   6.948  16.503  0.00  0.00    +0.000 OA
ATOM     10  C   UNL     1       4.520   5.181  17.978  0.00  0.00    +0.000 A 
ATOM     11  C   UNL     1       3.769   4.815  19.026  0.00  0.00    +0.000 A 
ATOM     12  N   UNL     1       2.833   5.605  19.665  0.00  0.00    +0.000 N 
ENDROOT
BRANCH   1  16
ATOM     13  C   UNL     1      -0.806  11.896  22.630  0.00  0.00    +0.000 C 
ATOM     14  C   UNL     1      -0.130  11.580  21.294  0.00  0.00    +0.000 C 
ATOM     15  C   UNL     1       0.505  10.172  21.276  0.00  0.00    +0.000 C 
ATOM     16  N   UNL     1       0.324   9.666  19.914  0.00  0.00    +0.000 N 
ATOM     17  C   UNL     1      -0.825  10.281  19.256  0.00  0.00    +0.000 C 
ATOM     18  C   UNL     1      -1.160  11.430  20.185  0.00  0.00    +0.000 C 
ATOM     19  N   UNL     1      -2.164  12.248  20.084  0.00  0.00    +0.000 NA
BRANCH  14  20
ATOM     20  C   UNL     1       0.877  12.673  20.883  0.00  0.00    +0.000 C 
BRANCH  20  21
ATOM     21  N   UNL     1       0.446  13.466  19.729  0.00  0.00    +0.000 NA
ATOM     22  H   UNL     1       0.048  12.862  19.012  0.00  0.00    +0.000 HD
ATOM     23  H   UNL     1       1.263  13.902  19.299  0.00  0.00    +0.000 HD
ENDBRANCH  20  21
ENDBRANCH  14  20
BRANCH  19  24
ATOM     24  O   UNL     1      -2.975  11.913  18.986  0.00  0.00    +0.000 OA
BRANCH  24  25
ATOM     25  C   UNL     1      -4.339  12.155  19.329  0.00  0.00    +0.000 C 
ATOM     26  F   UNL     1      -5.077  11.163  18.764  0.00  0.00    +0.000 F 
ENDBRANCH  24  25
ENDBRANCH  19  24
ENDBRANCH   1  16
BRANCH  12  27
ATOM     27  C   UNL     1       2.031   5.049  20.772  0.00  0.00    +0.000 C 
ATOM     28  C   UNL     1       0.978   3.978  20.612  0.00  0.00    +0.000 C 
ATOM     29  C   UNL     1       2.280   3.647  21.270  0.00  0.00    +0.000 C 
ENDBRANCH  12  27
BRANCH  10  30
ATOM     30  C   UNL     1       5.504   4.232  17.419  0.00  0.00    +0.000 C 
ATOM     31  O   UNL     1       5.348   3.652  16.354  0.00  0.00    +0.000 OA
BRANCH  30  32
ATOM     32  O   UNL     1       6.603   4.047  18.182  0.00  0.00    +0.000 OA
ATOM     33  H   UNL     1       7.145   4.864  18.320  0.00  0.00    +0.000 HD
ENDBRANCH  30  32
ENDBRANCH  10  30
TORSDOF 8
ENDMDL
MODEL 4
REMARK VINA RESULT:      -7.5      2.257      8.044
REMARK  Name = 
REMARK  9 active torsions:
REMARK  status: ('A' for Active; 'I' for Inactive)
REMARK    1  A    between atoms: C_1  and  C_2
REMARK    2  A    between atoms: C_2  and  C_3
REMARK    3  A    between atoms: C_3  and  N_4
REMARK    4  A    between atoms: N_6  and  C_7
REMARK    5  A    between atoms: C_16  and  C_17
REMARK    6  A    between atoms: C_17  and  O_19
REMARK    7  A    between atoms: N_21  and  C_22
REMARK    8  A    between atoms: N_27  and  O_28
REMARK    9  A    between atoms: O_28  and  C_29
REMARK                            x       y       z     vdW  Elec       q    Type
REMARK                         _______ _______ _______ _____ _____    ______ ____
ROOT
ATOM      1  C   UNL     1       1.648   8.222  19.980  0.00  0.00    +0.000 A 
ATOM      2  N   UNL     1       2.522   7.719  19.064  0.00  0.00    +0.000 NA
ATOM      3  C   UNL     1       2.827   6.390  19.051  0.00  0.00    +0.000 A 
ATOM      4  C   UNL     1       2.266   5.517  19.989  0.00  0.00    +0.000 A 
ATOM      5  C   UNL     1       1.392   6.011  20.952  0.00  0.00    +0.000 A 
ATOM      6  C   UNL     1       1.092   7.364  20.942  0.00  0.00    +0.000 A 
ATOM      7  F   UNL     1       0.263   7.824  21.892  0.00  0.00    +0.000 F 
ATOM      8  C   UNL     1       2.611   4.081  19.972  0.00  0.00    +0.000 A 
ATOM      9  O   UNL     1       2.104   3.290  20.763  0.00  0.00    +0.000 OA
ATOM     10  C   UNL     1       3.596   3.602  18.980  0.00  0.00    +0.000 A 
ATOM     11  C   UNL     1       4.086   4.515  18.130  0.00  0.00    +0.000 A 
ATOM     12  N   UNL     1       3.729   5.849  18.084  0.00  0.00    +0.000 N 
ENDROOT
BRANCH   1  16
ATOM     13  C   UNL     1       0.202  12.577  18.121  0.00  0.00    +0.000 C 
ATOM     14  C   UNL     1       0.000  11.260  18.873  0.00  0.00    +0.000 C 
ATOM     15  C   UNL     1       1.166  10.272  18.650  0.00  0.00    +0.000 C 
ATOM     16  N   UNL     1       1.338   9.559  19.918  0.00  0.00    +0.000 N 
ATOM     17  C   UNL     1       0.867  10.349  21.052  0.00  0.00    +0.000 C 
ATOM     18  C   UNL     1       0.103  11.470  20.376  0.00  0.00    +0.000 C 
ATOM     19  N   UNL     1      -0.453  12.493  20.952  0.00  0.00    +0.000 NA
BRANCH  14  20
ATOM     20  C   UNL     1      -1.367  10.620  18.561  0.00  0.00    +0.000 C 
BRANCH  20  21
ATOM     21  N   UNL     1      -1.526  10.224  17.159  0.00  0.00    +0.000 NA
ATOM     22  H   UNL     1      -0.615  10.126  16.713  0.00  0.00    +0.000 HD
ATOM     23  H   UNL     1      -2.002  10.971  16.653  0.00  0.00    +0.000 HD
ENDBRANCH  20  21
ENDBRANCH  14  20
BRANCH  19  24
ATOM     24  O   UNL     1      -0.224  12.473  22.339  0.00  0.00    +0.000 OA
BRANCH  24  25
ATOM     25  C   UNL     1      -1.472  12.298  23.009  0.00  0.00    +0.000 C 
ATOM     26  F   UNL     1      -1.532  11.001  23.414  0.00  0.00    +0.000 F 
ENDBRANCH  24  25
ENDBRANCH  19  24
ENDBRANCH   1  16
BRANCH  12  27
ATOM     27  C   UNL     1       4.398   6.758  17.132  0.00  0.00    +0.000 C 
ATOM     28  C   UNL     1       5.892   6.968  17.057  0.00  0.00    +0.000 C 
ATOM     29  C   UNL     1       5.193   6.207  15.975  0.00  0.00    +0.000 C 
ENDBRANCH  12  27
BRANCH  10  30
ATOM     30  C   UNL     1       4.054   2.201  18.888  0.00  0.00    +0.000 C 
ATOM     31  O   UNL     1       3.676   1.425  18.022  0.00  0.00    +0.000 OA
BRANCH  30  32
ATOM     32  O   UNL     1       4.934   1.834  19.845  0.00  0.00    +0.000 OA
ATOM     33  H   UNL     1       4.815   0.908  20.174  0.00  0.00    +0.000 HD
ENDBRANCH  30  32
ENDBRANCH  10  30
TORSDOF 8
ENDMDL
MODEL 5
REMARK VINA RESULT:      -7.5      3.133      8.080
REMARK  Name = 
REMARK  9 active torsions:
REMARK  status: ('A' for Active; 'I' for Inactive)
REMARK    1  A    between atoms: C_1  and  C_2
REMARK    2  A    between atoms: C_2  and  C_3
REMARK    3  A    between atoms: C_3  and  N_4
REMARK    4  A    between atoms: N_6  and  C_7
REMARK    5  A    between atoms: C_16  and  C_17
REMARK    6  A    between atoms: C_17  and  O_19
REMARK    7  A    between atoms: N_21  and  C_22
REMARK    8  A    between atoms: N_27  and  O_28
REMARK    9  A    between atoms: O_28  and  C_29
REMARK                            x       y       z     vdW  Elec       q    Type
REMARK                         _______ _______ _______ _____ _____    ______ ____
ROOT
ATOM      1  C   UNL     1       1.755   8.427  19.105  0.00  0.00    +0.000 A 
ATOM      2  N   UNL     1       2.622   7.708  18.339  0.00  0.00    +0.000 NA
ATOM      3  C   UNL     1       2.973   6.438  18.693  0.00  0.00    +0.000 A 
ATOM      4  C   UNL     1       2.468   5.853  19.859  0.00  0.00    +0.000 A 
ATOM      5  C   UNL     1       1.602   6.577  20.672  0.00  0.00    +0.000 A 
ATOM      6  C   UNL     1       1.254   7.863  20.290  0.00  0.00    +0.000 A 
ATOM      7  F   UNL     1       0.434   8.552  21.098  0.00  0.00    +0.000 F 
ATOM      8  C   UNL     1       2.862   4.481  20.237  0.00  0.00    +0.000 A 
ATOM      9  O   UNL     1       2.404   3.934  21.237  0.00  0.00    +0.000 OA
ATOM     10  C   UNL     1       3.838   3.767  19.388  0.00  0.00    +0.000 A 
ATOM     11  C   UNL     1       4.273   4.413  18.298  0.00  0.00    +0.000 A 
ATOM     12  N   UNL     1       3.869   5.669  17.888  0.00  0.00    +0.000 N 
ENDROOT
BRANCH   1  16
ATOM     13  C   UNL     1      -1.014  12.456  18.320  0.00  0.00    +0.000 C 
ATOM     14  C   UNL     1       0.024  11.616  19.068  0.00  0.00    +0.000 C 
ATOM     15  C   UNL     1       0.004  10.134  18.634  0.00  0.00    +0.000 C 
ATOM     16  N   UNL     1       1.397   9.683  18.678  0.00  0.00    +0.000 N 
ATOM     17  C   UNL     1       2.331  10.790  18.500  0.00  0.00    +0.000 C 
ATOM     18  C   UNL     1       1.436  12.003  18.656  0.00  0.00    +0.000 C 
ATOM     19  N   UNL     1       1.777  13.248  18.508  0.00  0.00    +0.000 NA
BRANCH  14  20
ATOM     20  C   UNL     1      -0.100  11.772  20.597  0.00  0.00    +0.000 C 
BRANCH  20  21
ATOM     21  N   UNL     1       1.151  12.165  21.252  0.00  0.00    +0.000 NA
ATOM     22  H   UNL     1       0.956  12.672  22.114  0.00  0.00    +0.000 HD
ATOM     23  H   UNL     1       1.650  12.823  20.652  0.00  0.00    +0.000 HD
ENDBRANCH  20  21
ENDBRANCH  14  20
BRANCH  19  24
ATOM     24  O   UNL     1       3.126  13.357  18.127  0.00  0.00    +0.000 OA
BRANCH  24  25
ATOM     25  C   UNL     1       3.557  14.701  18.337  0.00  0.00    +0.000 C 
ATOM     26  F   UNL     1       3.644  15.290  17.115  0.00  0.00    +0.000 F 
ENDBRANCH  24  25
ENDBRANCH  19  24
ENDBRANCH   1  16
BRANCH  12  27
ATOM     27  C   UNL     1       4.481   6.287  16.696  0.00  0.00    +0.000 C 
ATOM     28  C   UNL     1       5.923   6.730  16.607  0.00  0.00    +0.000 C 
ATOM     29  C   UNL     1       5.470   5.518  15.855  0.00  0.00    +0.000 C 
ENDBRANCH  12  27
BRANCH  10  30
ATOM     30  C   UNL     1       4.343   2.410  19.681  0.00  0.00    +0.000 C 
ATOM     31  O   UNL     1       5.016   2.141  20.666  0.00  0.00    +0.000 OA
BRANCH  30  32
ATOM     32  O   UNL     1       4.002   1.474  18.769  0.00  0.00    +0.000 OA
ATOM     33  H   UNL     1       4.169   1.739  17.831  0.00  0.00    +0.000 HD
ENDBRANCH  30  32
ENDBRANCH  10  30
TORSDOF 8
ENDMDL
MODEL 6
REMARK VINA RESULT:      -7.4      2.504      3.626
REMARK  Name = 
REMARK  9 active torsions:
REMARK  status: ('A' for Active; 'I' for Inactive)
REMARK    1  A    between atoms: C_1  and  C_2
REMARK    2  A    between atoms: C_2  and  C_3
REMARK    3  A    between atoms: C_3  and  N_4
REMARK    4  A    between atoms: N_6  and  C_7
REMARK    5  A    between atoms: C_16  and  C_17
REMARK    6  A    between atoms: C_17  and  O_19
REMARK    7  A    between atoms: N_21  and  C_22
REMARK    8  A    between atoms: N_27  and  O_28
REMARK    9  A    between atoms: O_28  and  C_29
REMARK                            x       y       z     vdW  Elec       q    Type
REMARK                         _______ _______ _______ _____ _____    ______ ____
ROOT
ATOM      1  C   UNL     1       1.939   7.832  18.970  0.00  0.00    +0.000 A 
ATOM      2  N   UNL     1       1.165   8.425  19.922  0.00  0.00    +0.000 NA
ATOM      3  C   UNL     1       0.904   9.762  19.871  0.00  0.00    +0.000 A 
ATOM      4  C   UNL     1       1.439  10.559  18.853  0.00  0.00    +0.000 A 
ATOM      5  C   UNL     1       2.255   9.983  17.885  0.00  0.00    +0.000 A 
ATOM      6  C   UNL     1       2.502   8.620  17.953  0.00  0.00    +0.000 A 
ATOM      7  F   UNL     1       3.308   8.087  17.022  0.00  0.00    +0.000 F 
ATOM      8  C   UNL     1       1.157  12.008  18.814  0.00  0.00    +0.000 A 
ATOM      9  O   UNL     1       1.587  12.721  17.911  0.00  0.00    +0.000 OA
ATOM     10  C   UNL     1       0.345  12.600  19.896  0.00  0.00    +0.000 A 
ATOM     11  C   UNL     1      -0.115  11.758  20.832  0.00  0.00    +0.000 A 
ATOM     12  N   UNL     1       0.080  10.391  20.854  0.00  0.00    +0.000 N 
ENDROOT
BRANCH   1  16
ATOM     13  C   UNL     1       3.584   3.304  17.825  0.00  0.00    +0.000 C 
ATOM     14  C   UNL     1       3.607   4.632  18.586  0.00  0.00    +0.000 C 
ATOM     15  C   UNL     1       2.698   5.698  17.935  0.00  0.00    +0.000 C 
ATOM     16  N   UNL     1       2.131   6.473  19.041  0.00  0.00    +0.000 N 
ATOM     17  C   UNL     1       2.077   5.696  20.276  0.00  0.00    +0.000 C 
ATOM     18  C   UNL     1       2.936   4.492  19.944  0.00  0.00    +0.000 C 
ATOM     19  N   UNL     1       3.147   3.454  20.696  0.00  0.00    +0.000 NA
BRANCH  14  20
ATOM     20  C   UNL     1       5.043   5.150  18.801  0.00  0.00    +0.000 C 
BRANCH  20  21
ATOM     21  N   UNL     1       6.008   4.095  19.122  0.00  0.00    +0.000 NA
ATOM     22  H   UNL     1       6.434   3.733  18.270  0.00  0.00    +0.000 HD
ATOM     23  H   UNL     1       5.514   3.306  19.540  0.00  0.00    +0.000 HD
ENDBRANCH  20  21
ENDBRANCH  14  20
BRANCH  19  24
ATOM     24  O   UNL     1       2.423   3.550  21.897  0.00  0.00    +0.000 OA
BRANCH  24  25
ATOM     25  C   UNL     1       1.434   2.521  21.923  0.00  0.00    +0.000 C 
ATOM     26  F   UNL     1       0.702   2.641  20.783  0.00  0.00    +0.000 F 
ENDBRANCH  24  25
ENDBRANCH  19  24
ENDBRANCH   1  16
BRANCH  12  27
ATOM     27  C   UNL     1      -0.434   9.592  21.984  0.00  0.00    +0.000 C 
ATOM     28  C   UNL     1       0.275   9.428  23.308  0.00  0.00    +0.000 C 
ATOM     29  C   UNL     1      -0.960  10.268  23.226  0.00  0.00    +0.000 C 
ENDBRANCH  12  27
BRANCH  10  30
ATOM     30  C   UNL     1       0.029  14.040  19.992  0.00  0.00    +0.000 C 
ATOM     31  O   UNL     1       0.351  14.737  20.944  0.00  0.00    +0.000 OA
BRANCH  30  32
ATOM     32  O   UNL     1      -0.653  14.538  18.938  0.00  0.00    +0.000 OA
ATOM     33  H   UNL     1      -1.356  15.191  19.179  0.00  0.00    +0.000 HD
ENDBRANCH  30  32
ENDBRANCH  10  30
TORSDOF 8
ENDMDL
MODEL 7
REMARK VINA RESULT:      -7.4      3.363      8.490
REMARK  Name = 
REMARK  9 active torsions:
REMARK  status: ('A' for Active; 'I' for Inactive)
REMARK    1  A    between atoms: C_1  and  C_2
REMARK    2  A    between atoms: C_2  and  C_3
REMARK    3  A    between atoms: C_3  and  N_4
REMARK    4  A    between atoms: N_6  and  C_7
REMARK    5  A    between atoms: C_16  and  C_17
REMARK    6  A    between atoms: C_17  and  O_19
REMARK    7  A    between atoms: N_21  and  C_22
REMARK    8  A    between atoms: N_27  and  O_28
REMARK    9  A    between atoms: O_28  and  C_29
REMARK                            x       y       z     vdW  Elec       q    Type
REMARK                         _______ _______ _______ _____ _____    ______ ____
ROOT
ATOM      1  C   UNL     1       1.306   9.040  18.948  0.00  0.00    +0.000 A 
ATOM      2  N   UNL     1       1.509   7.816  19.511  0.00  0.00    +0.000 NA
ATOM      3  C   UNL     1       2.560   7.039  19.121  0.00  0.00    +0.000 A 
ATOM      4  C   UNL     1       3.440   7.470  18.123  0.00  0.00    +0.000 A 
ATOM      5  C   UNL     1       3.237   8.705  17.514  0.00  0.00    +0.000 A 
ATOM      6  C   UNL     1       2.166   9.480  17.930  0.00  0.00    +0.000 A 
ATOM      7  F   UNL     1       1.976  10.658  17.316  0.00  0.00    +0.000 F 
ATOM      8  C   UNL     1       4.569   6.616  17.703  0.00  0.00    +0.000 A 
ATOM      9  O   UNL     1       5.375   6.990  16.854  0.00  0.00    +0.000 OA
ATOM     10  C   UNL     1       4.715   5.282  18.321  0.00  0.00    +0.000 A 
ATOM     11  C   UNL     1       3.817   4.954  19.260  0.00  0.00    +0.000 A 
ATOM     12  N   UNL     1       2.793   5.761  19.716  0.00  0.00    +0.000 N 
ENDROOT
BRANCH   1  16
ATOM     13  C   UNL     1      -1.122  12.727  21.191  0.00  0.00    +0.000 C 
ATOM     14  C   UNL     1      -0.512  12.004  19.988  0.00  0.00    +0.000 C 
ATOM     15  C   UNL     1       0.436  10.860  20.409  0.00  0.00    +0.000 C 
ATOM     16  N   UNL     1       0.260   9.803  19.411  0.00  0.00    +0.000 N 
ATOM     17  C   UNL     1      -1.057   9.864  18.783  0.00  0.00    +0.000 C 
ATOM     18  C   UNL     1      -1.571  11.217  19.232  0.00  0.00    +0.000 C 
ATOM     19  N   UNL     1      -2.746  11.720  19.000  0.00  0.00    +0.000 NA
BRANCH  14  20
ATOM     20  C   UNL     1       0.164  12.983  19.007  0.00  0.00    +0.000 C 
BRANCH  20  21
ATOM     21  N   UNL     1      -0.654  13.299  17.833  0.00  0.00    +0.000 NA
ATOM     22  H   UNL     1      -0.850  14.298  17.795  0.00  0.00    +0.000 HD
ATOM     23  H   UNL     1      -1.563  12.844  17.926  0.00  0.00    +0.000 HD
ENDBRANCH  20  21
ENDBRANCH  14  20
BRANCH  19  24
ATOM     24  O   UNL     1      -3.549  10.812  18.287  0.00  0.00    +0.000 OA
BRANCH  24  25
ATOM     25  C   UNL     1      -4.395  11.543  17.400  0.00  0.00    +0.000 C 
ATOM     26  F   UNL     1      -5.651  11.502  17.919  0.00  0.00    +0.000 F 
ENDBRANCH  24  25
ENDBRANCH  19  24
ENDBRANCH   1  16
BRANCH  12  27
ATOM     27  C   UNL     1       1.837   5.244  20.715  0.00  0.00    +0.000 C 
ATOM     28  C   UNL     1       0.905   4.077  20.483  0.00  0.00    +0.000 C 
ATOM     29  C   UNL     1       2.080   3.920  21.396  0.00  0.00    +0.000 C 
ENDBRANCH  12  27
BRANCH  10  30
ATOM     30  C   UNL     1       5.775   4.320  17.957  0.00  0.00    +0.000 C 
ATOM     31  O   UNL     1       6.903   4.353  18.427  0.00  0.00    +0.000 OA
BRANCH  30  32
ATOM     32  O   UNL     1       5.402   3.388  17.053  0.00  0.00    +0.000 OA
ATOM     33  H   UNL     1       5.027   3.759  16.216  0.00  0.00    +0.000 HD
ENDBRANCH  30  32
ENDBRANCH  10  30
TORSDOF 8
ENDMDL
MODEL 8
REMARK VINA RESULT:      -7.3      2.603      3.938
REMARK  Name = 
REMARK  9 active torsions:
REMARK  status: ('A' for Active; 'I' for Inactive)
REMARK    1  A    between atoms: C_1  and  C_2
REMARK    2  A    between atoms: C_2  and  C_3
REMARK    3  A    between atoms: C_3  and  N_4
REMARK    4  A    between atoms: N_6  and  C_7
REMARK    5  A    between atoms: C_16  and  C_17
REMARK    6  A    between atoms: C_17  and  O_19
REMARK    7  A    between atoms: N_21  and  C_22
REMARK    8  A    between atoms: N_27  and  O_28
REMARK    9  A    between atoms: O_28  and  C_29
REMARK                            x       y       z     vdW  Elec       q    Type
REMARK                         _______ _______ _______ _____ _____    ______ ____
ROOT
ATOM      1  C   UNL     1       2.258   7.530  19.341  0.00  0.00    +0.000 A 
ATOM      2  N   UNL     1       1.416   8.061  20.272  0.00  0.00    +0.000 NA
ATOM      3  C   UNL     1       0.768   9.236  20.031  0.00  0.00    +0.000 A 
ATOM      4  C   UNL     1       0.967   9.933  18.835  0.00  0.00    +0.000 A 
ATOM      5  C   UNL     1       1.843   9.426  17.881  0.00  0.00    +0.000 A 
ATOM      6  C   UNL     1       2.486   8.227  18.143  0.00  0.00    +0.000 A 
ATOM      7  F   UNL     1       3.342   7.766  17.219  0.00  0.00    +0.000 F 
ATOM      8  C   UNL     1       0.267  11.210  18.590  0.00  0.00    +0.000 A 
ATOM      9  O   UNL     1       0.399  11.822  17.534  0.00  0.00    +0.000 OA
ATOM     10  C   UNL     1      -0.602  11.756  19.654  0.00  0.00    +0.000 A 
ATOM     11  C   UNL     1      -0.722  11.021  20.768  0.00  0.00    +0.000 A 
ATOM     12  N   UNL     1      -0.130   9.793  20.993  0.00  0.00    +0.000 N 
ENDROOT
BRANCH   1  16
ATOM     13  C   UNL     1       2.743   2.661  20.100  0.00  0.00    +0.000 C 
ATOM     14  C   UNL     1       2.798   3.942  19.264  0.00  0.00    +0.000 C 
ATOM     15  C   UNL     1       2.075   5.122  19.950  0.00  0.00    +0.000 C 
ATOM     16  N   UNL     1       2.849   6.319  19.613  0.00  0.00    +0.000 N 
ATOM     17  C   UNL     1       4.244   5.999  19.325  0.00  0.00    +0.000 C 
ATOM     18  C   UNL     1       4.216   4.489  19.200  0.00  0.00    +0.000 C 
ATOM     19  N   UNL     1       5.234   3.702  19.020  0.00  0.00    +0.000 NA
BRANCH  14  20
ATOM     20  C   UNL     1       2.295   3.715  17.824  0.00  0.00    +0.000 C 
BRANCH  20  21
ATOM     21  N   UNL     1       2.120   2.302  17.478  0.00  0.00    +0.000 NA
ATOM     22  H   UNL     1       1.130   2.063  17.451  0.00  0.00    +0.000 HD
ATOM     23  H   UNL     1       2.523   1.724  18.216  0.00  0.00    +0.000 HD
ENDBRANCH  20  21
ENDBRANCH  14  20
BRANCH  19  24
ATOM     24  O   UNL     1       6.434   4.434  18.994  0.00  0.00    +0.000 OA
BRANCH  24  25
ATOM     25  C   UNL     1       6.918   4.477  17.652  0.00  0.00    +0.000 C 
ATOM     26  F   UNL     1       8.248   4.198  17.697  0.00  0.00    +0.000 F 
ENDBRANCH  24  25
ENDBRANCH  19  24
ENDBRANCH   1  16
BRANCH  12  27
ATOM     27  C   UNL     1      -0.299   9.122  22.297  0.00  0.00    +0.000 C 
ATOM     28  C   UNL     1       0.563   9.381  23.511  0.00  0.00    +0.000 C 
ATOM     29  C   UNL     1      -0.848   9.876  23.482  0.00  0.00    +0.000 C 
ENDBRANCH  12  27
BRANCH  10  30
ATOM     30  C   UNL     1      -1.322  13.041  19.547  0.00  0.00    +0.000 C 
ATOM     31  O   UNL     1      -2.366  13.278  20.139  0.00  0.00    +0.000 OA
BRANCH  30  32
ATOM     32  O   UNL     1      -0.736  13.949  18.737  0.00  0.00    +0.000 OA
ATOM     33  H   UNL     1      -0.315  13.562  17.929  0.00  0.00    +0.000 HD
ENDBRANCH  30  32
ENDBRANCH  10  30
TORSDOF 8
ENDMDL
MODEL 9
REMARK VINA RESULT:      -7.0      2.683      8.249
REMARK  Name = 
REMARK  9 active torsions:
REMARK  status: ('A' for Active; 'I' for Inactive)
REMARK    1  A    between atoms: C_1  and  C_2
REMARK    2  A    between atoms: C_2  and  C_3
REMARK    3  A    between atoms: C_3  and  N_4
REMARK    4  A    between atoms: N_6  and  C_7
REMARK    5  A    between atoms: C_16  and  C_17
REMARK    6  A    between atoms: C_17  and  O_19
REMARK    7  A    between atoms: N_21  and  C_22
REMARK    8  A    between atoms: N_27  and  O_28
REMARK    9  A    between atoms: O_28  and  C_29
REMARK                            x       y       z     vdW  Elec       q    Type
REMARK                         _______ _______ _______ _____ _____    ______ ____
ROOT
ATOM      1  C   UNL     1       1.534   8.395  19.754  0.00  0.00    +0.000 A 
ATOM      2  N   UNL     1       2.435   7.836  18.899  0.00  0.00    +0.000 NA
ATOM      3  C   UNL     1       2.768   6.518  19.005  0.00  0.00    +0.000 A 
ATOM      4  C   UNL     1       2.209   5.716  20.005  0.00  0.00    +0.000 A 
ATOM      5  C   UNL     1       1.307   6.270  20.908  0.00  0.00    +0.000 A 
ATOM      6  C   UNL     1       0.978   7.611  20.777  0.00  0.00    +0.000 A 
ATOM      7  F   UNL     1       0.123   8.131  21.670  0.00  0.00    +0.000 F 
ATOM      8  C   UNL     1       2.584   4.292  20.117  0.00  0.00    +0.000 A 
ATOM      9  O   UNL     1       2.079   3.560  20.965  0.00  0.00    +0.000 OA
ATOM     10  C   UNL     1       3.597   3.752  19.187  0.00  0.00    +0.000 A 
ATOM     11  C   UNL     1       4.083   4.600  18.270  0.00  0.00    +0.000 A 
ATOM     12  N   UNL     1       3.699   5.917  18.103  0.00  0.00    +0.000 N 
ENDROOT
BRANCH   1  16
ATOM     13  C   UNL     1      -0.485  12.443  17.740  0.00  0.00    +0.000 C 
ATOM     14  C   UNL     1      -0.425  11.271  18.722  0.00  0.00    +0.000 C 
ATOM     15  C   UNL     1       0.633  10.221  18.319  0.00  0.00    +0.000 C 
ATOM     16  N   UNL     1       1.198   9.715  19.572  0.00  0.00    +0.000 N 
ATOM     17  C   UNL     1       1.082  10.693  20.651  0.00  0.00    +0.000 C 
ATOM     18  C   UNL     1       0.130  11.716  20.066  0.00  0.00    +0.000 C 
ATOM     19  N   UNL     1      -0.241  12.836  20.610  0.00  0.00    +0.000 NA
BRANCH  14  20
ATOM     20  C   UNL     1      -1.811  10.636  18.950  0.00  0.00    +0.000 C 
BRANCH  20  21
ATOM     21  N   UNL     1      -2.910  11.606  18.955  0.00  0.00    +0.000 NA
ATOM     22  H   UNL     1      -3.142  11.883  18.002  0.00  0.00    +0.000 HD
ATOM     23  H   UNL     1      -2.600  12.459  19.422  0.00  0.00    +0.000 HD
ENDBRANCH  20  21
ENDBRANCH  14  20
BRANCH  19  24
ATOM     24  O   UNL     1       0.401  13.031  21.845  0.00  0.00    +0.000 OA
BRANCH  24  25
ATOM     25  C   UNL     1       0.796  14.398  21.950  0.00  0.00    +0.000 C 
ATOM     26  F   UNL     1       0.873  14.891  20.685  0.00  0.00    +0.000 F 
ENDBRANCH  24  25
ENDBRANCH  19  24
ENDBRANCH   1  16
BRANCH  12  27
ATOM     27  C   UNL     1       4.367   6.756  17.089  0.00  0.00    +0.000 C 
ATOM     28  C   UNL     1       5.856   7.006  17.030  0.00  0.00    +0.000 C 
ATOM     29  C   UNL     1       5.209   6.127  16.007  0.00  0.00    +0.000 C 
ENDBRANCH  12  27
BRANCH  10  30
ATOM     30  C   UNL     1       4.086   2.359  19.223  0.00  0.00    +0.000 C 
ATOM     31  O   UNL     1       3.698   1.490  18.456  0.00  0.00    +0.000 OA
BRANCH  30  32
ATOM     32  O   UNL     1       5.007   2.111  20.180  0.00  0.00    +0.000 OA
ATOM     33  H   UNL     1       5.491   1.256  20.068  0.00  0.00    +0.000 HD
ENDBRANCH  30  32
ENDBRANCH  10  30
TORSDOF 8
ENDMDL
