MODEL 1
REMARK VINA RESULT:      -6.9      0.000      0.000
REMARK  Name = 
REMARK  11 active torsions:
REMARK  status: ('A' for Active; 'I' for Inactive)
REMARK    1  A    between atoms: C_1  and  N_2
REMARK    2  A    between atoms: C_3  and  O_5
REMARK    3  A    between atoms: O_5  and  C_6
REMARK    4  A    between atoms: C_6  and  C_7
REMARK    5  A    between atoms: C_8  and  C_9
REMARK    6  A    between atoms: C_9  and  O_10
REMARK    7  A    between atoms: O_10  and  C_11
REMARK    8  A    between atoms: N_13  and  C_14
REMARK    9  A    between atoms: C_15  and  C_16
REMARK   10  A    between atoms: C_21  and  O_22
REMARK   11  A    between atoms: O_22  and  C_23
REMARK                            x       y       z     vdW  Elec       q    Type
REMARK                         _______ _______ _______ _____ _____    ______ ____
ROOT
ATOM      1  C   UNL     1      -1.841  12.192  21.485  0.00  0.00    +0.000 A 
ATOM      2  C   UNL     1      -3.023  12.989  21.742  0.00  0.00    +0.000 A 
ATOM      3  C   UNL     1      -3.872  12.952  20.607  0.00  0.00    +0.000 A 
ATOM      4  N   UNL     1      -3.200  12.174  19.682  0.00  0.00    +0.000 N 
ATOM      5  C   UNL     1      -1.987  11.760  20.186  0.00  0.00    +0.000 A 
ATOM      6  C   UNL     1      -1.268  10.910  19.189  0.00  0.00    +0.000 C 
ATOM      7  C   UNL     1      -2.264  10.895  18.052  0.00  0.00    +0.000 A 
ATOM      8  C   UNL     1      -2.175  10.267  16.819  0.00  0.00    +0.000 A 
ATOM      9  C   UNL     1      -3.248  10.401  15.932  0.00  0.00    +0.000 A 
ATOM     10  C   UNL     1      -4.398  11.120  16.300  0.00  0.00    +0.000 A 
ATOM     11  C   UNL     1      -4.499  11.716  17.559  0.00  0.00    +0.000 A 
ATOM     12  C   UNL     1      -3.412  11.631  18.403  0.00  0.00    +0.000 A 
ENDROOT
BRANCH   3  13
ATOM     13  C   UNL     1      -5.259  13.470  20.465  0.00  0.00    +0.000 A 
ATOM     14  C   UNL     1      -5.397  14.841  20.179  0.00  0.00    +0.000 A 
ATOM     15  C   UNL     1      -6.643  15.450  20.056  0.00  0.00    +0.000 A 
ATOM     16  C   UNL     1      -7.789  14.711  20.295  0.00  0.00    +0.000 A 
ATOM     17  C   UNL     1      -7.686  13.350  20.582  0.00  0.00    +0.000 A 
ATOM     18  C   UNL     1      -6.437  12.704  20.616  0.00  0.00    +0.000 A 
BRANCH  18  19
ATOM     19  O   UNL     1      -6.308  11.347  20.799  0.00  0.00    +0.000 OA
ATOM     20  C   UNL     1      -7.357  10.517  20.312  0.00  0.00    +0.000 C 
ENDBRANCH  18  19
ENDBRANCH   3  13
BRANCH   1  21
ATOM     21  C   UNL     1      -0.743  11.820  22.453  0.00  0.00    +0.000 C 
BRANCH  21  22
ATOM     22  O   UNL     1      -0.951  10.557  23.104  0.00  0.00    +0.000 OA
BRANCH  22  25
ATOM     23  C   UNL     1       1.042   8.141  21.357  0.00  0.00    +0.000 C 
ATOM     24  N   UNL     1      -0.010   9.009  21.811  0.00  0.00    +0.000 N 
ATOM     25  C   UNL     1       0.058   9.649  23.019  0.00  0.00    +0.000 C 
ATOM     26  O   UNL     1       0.922   9.465  23.862  0.00  0.00    +0.000 OA
ATOM     27  H   UNL     1      -0.610   9.479  21.141  0.00  0.00    +0.000 HD
ENDBRANCH  22  25
ENDBRANCH  21  22
ENDBRANCH   1  21
BRANCH   2  28
ATOM     28  C   UNL     1      -3.288  13.709  23.040  0.00  0.00    +0.000 C 
BRANCH  28  29
ATOM     29  O   UNL     1      -2.719  15.021  23.079  0.00  0.00    +0.000 OA
BRANCH  29  30
ATOM     30  C   UNL     1      -1.679  15.157  23.931  0.00  0.00    +0.000 C 
ATOM     31  O   UNL     1      -0.492  15.078  23.649  0.00  0.00    +0.000 OA
ATOM     32  N   UNL     1      -2.146  15.403  25.181  0.00  0.00    +0.000 N 
ATOM     33  C   UNL     1      -1.268  15.680  26.284  0.00  0.00    +0.000 C 
ATOM     34  H   UNL     1      -3.150  15.431  25.288  0.00  0.00    +0.000 HD
ENDBRANCH  29  30
ENDBRANCH  28  29
ENDBRANCH   2  28
TORSDOF 8
ENDMDL
MODEL 2
REMARK VINA RESULT:      -6.7      1.793      2.577
REMARK  Name = 
REMARK  11 active torsions:
REMARK  status: ('A' for Active; 'I' for Inactive)
REMARK    1  A    between atoms: C_1  and  N_2
REMARK    2  A    between atoms: C_3  and  O_5
REMARK    3  A    between atoms: O_5  and  C_6
REMARK    4  A    between atoms: C_6  and  C_7
REMARK    5  A    between atoms: C_8  and  C_9
REMARK    6  A    between atoms: C_9  and  O_10
REMARK    7  A    between atoms: O_10  and  C_11
REMARK    8  A    between atoms: N_13  and  C_14
REMARK    9  A    between atoms: C_15  and  C_16
REMARK   10  A    between atoms: C_21  and  O_22
REMARK   11  A    between atoms: O_22  and  C_23
REMARK                            x       y       z     vdW  Elec       q    Type
REMARK                         _______ _______ _______ _____ _____    ______ ____
ROOT
ATOM      1  C   UNL     1      -1.428  12.001  21.069  0.00  0.00    +0.000 A 
ATOM      2  C   UNL     1      -2.615  12.730  21.470  0.00  0.00    +0.000 A 
ATOM      3  C   UNL     1      -3.568  12.692  20.421  0.00  0.00    +0.000 A 
ATOM      4  N   UNL     1      -2.954  11.982  19.405  0.00  0.00    +0.000 N 
ATOM      5  C   UNL     1      -1.680  11.611  19.773  0.00  0.00    +0.000 A 
ATOM      6  C   UNL     1      -1.022  10.835  18.678  0.00  0.00    +0.000 C 
ATOM      7  C   UNL     1      -2.122  10.812  17.642  0.00  0.00    +0.000 A 
ATOM      8  C   UNL     1      -2.126  10.235  16.381  0.00  0.00    +0.000 A 
ATOM      9  C   UNL     1      -3.284  10.347  15.606  0.00  0.00    +0.000 A 
ATOM     10  C   UNL     1      -4.425  10.994  16.112  0.00  0.00    +0.000 A 
ATOM     11  C   UNL     1      -4.431  11.538  17.398  0.00  0.00    +0.000 A 
ATOM     12  C   UNL     1      -3.264  11.477  18.130  0.00  0.00    +0.000 A 
ENDROOT
BRANCH   3  13
ATOM     13  C   UNL     1      -4.985  13.145  20.433  0.00  0.00    +0.000 A 
ATOM     14  C   UNL     1      -5.970  12.141  20.474  0.00  0.00    +0.000 A 
ATOM     15  C   UNL     1      -7.331  12.438  20.455  0.00  0.00    +0.000 A 
ATOM     16  C   UNL     1      -7.738  13.754  20.314  0.00  0.00    +0.000 A 
ATOM     17  C   UNL     1      -6.786  14.772  20.269  0.00  0.00    +0.000 A 
ATOM     18  C   UNL     1      -5.412  14.491  20.383  0.00  0.00    +0.000 A 
BRANCH  18  19
ATOM     19  O   UNL     1      -4.455  15.477  20.440  0.00  0.00    +0.000 OA
ATOM     20  C   UNL     1      -4.800  16.688  21.105  0.00  0.00    +0.000 C 
ENDBRANCH  18  19
ENDBRANCH   3  13
BRANCH   1  21
ATOM     21  C   UNL     1      -0.225  11.650  21.912  0.00  0.00    +0.000 C 
BRANCH  21  22
ATOM     22  O   UNL     1      -0.298  10.343  22.504  0.00  0.00    +0.000 OA
BRANCH  22  25
ATOM     23  C   UNL     1       1.546   7.955  20.566  0.00  0.00    +0.000 C 
ATOM     24  N   UNL     1       0.523   8.774  21.156  0.00  0.00    +0.000 N 
ATOM     25  C   UNL     1       0.755   9.511  22.286  0.00  0.00    +0.000 C 
ATOM     26  O   UNL     1       1.773   9.461  22.958  0.00  0.00    +0.000 OA
ATOM     27  H   UNL     1      -0.231   9.142  20.585  0.00  0.00    +0.000 HD
ENDBRANCH  22  25
ENDBRANCH  21  22
ENDBRANCH   1  21
BRANCH   2  28
ATOM     28  C   UNL     1      -2.786  13.387  22.816  0.00  0.00    +0.000 C 
BRANCH  28  29
ATOM     29  O   UNL     1      -3.700  12.691  23.667  0.00  0.00    +0.000 OA
BRANCH  29  30
ATOM     30  C   UNL     1      -4.855  13.350  23.911  0.00  0.00    +0.000 C 
ATOM     31  O   UNL     1      -4.995  14.561  24.008  0.00  0.00    +0.000 OA
ATOM     32  N   UNL     1      -5.869  12.457  24.036  0.00  0.00    +0.000 N 
ATOM     33  C   UNL     1      -7.233  12.871  24.213  0.00  0.00    +0.000 C 
ATOM     34  H   UNL     1      -5.621  11.482  23.950  0.00  0.00    +0.000 HD
ENDBRANCH  29  30
ENDBRANCH  28  29
ENDBRANCH   2  28
TORSDOF 8
ENDMDL
MODEL 3
REMARK VINA RESULT:      -6.7      7.516     11.225
REMARK  Name = 
REMARK  11 active torsions:
REMARK  status: ('A' for Active; 'I' for Inactive)
REMARK    1  A    between atoms: C_1  and  N_2
REMARK    2  A    between atoms: C_3  and  O_5
REMARK    3  A    between atoms: O_5  and  C_6
REMARK    4  A    between atoms: C_6  and  C_7
REMARK    5  A    between atoms: C_8  and  C_9
REMARK    6  A    between atoms: C_9  and  O_10
REMARK    7  A    between atoms: O_10  and  C_11
REMARK    8  A    between atoms: N_13  and  C_14
REMARK    9  A    between atoms: C_15  and  C_16
REMARK   10  A    between atoms: C_21  and  O_22
REMARK   11  A    between atoms: O_22  and  C_23
REMARK                            x       y       z     vdW  Elec       q    Type
REMARK                         _______ _______ _______ _____ _____    ______ ____
ROOT
ATOM      1  C   UNL     1       5.644   5.209  17.079  0.00  0.00    +0.000 A 
ATOM      2  C   UNL     1       5.043   6.504  17.326  0.00  0.00    +0.000 A 
ATOM      3  C   UNL     1       3.710   6.326  17.776  0.00  0.00    +0.000 A 
ATOM      4  N   UNL     1       3.509   4.958  17.770  0.00  0.00    +0.000 N 
ATOM      5  C   UNL     1       4.635   4.304  17.322  0.00  0.00    +0.000 A 
ATOM      6  C   UNL     1       4.421   2.825  17.327  0.00  0.00    +0.000 C 
ATOM      7  C   UNL     1       3.008   2.742  17.859  0.00  0.00    +0.000 A 
ATOM      8  C   UNL     1       2.226   1.622  18.095  0.00  0.00    +0.000 A 
ATOM      9  C   UNL     1       0.937   1.812  18.603  0.00  0.00    +0.000 A 
ATOM     10  C   UNL     1       0.466   3.102  18.900  0.00  0.00    +0.000 A 
ATOM     11  C   UNL     1       1.272   4.224  18.699  0.00  0.00    +0.000 A 
ATOM     12  C   UNL     1       2.518   4.032  18.140  0.00  0.00    +0.000 A 
ENDROOT
BRANCH   3  13
ATOM     13  C   UNL     1       2.765   7.342  18.312  0.00  0.00    +0.000 A 
ATOM     14  C   UNL     1       2.269   8.290  17.398  0.00  0.00    +0.000 A 
ATOM     15  C   UNL     1       1.404   9.310  17.786  0.00  0.00    +0.000 A 
ATOM     16  C   UNL     1       1.076   9.453  19.124  0.00  0.00    +0.000 A 
ATOM     17  C   UNL     1       1.553   8.531  20.055  0.00  0.00    +0.000 A 
ATOM     18  C   UNL     1       2.350   7.441  19.659  0.00  0.00    +0.000 A 
BRANCH  18  19
ATOM     19  O   UNL     1       2.756   6.462  20.535  0.00  0.00    +0.000 OA
ATOM     20  C   UNL     1       1.741   5.742  21.229  0.00  0.00    +0.000 C 
ENDBRANCH  18  19
ENDBRANCH   3  13
BRANCH   1  21
ATOM     21  C   UNL     1       7.083   4.903  16.738  0.00  0.00    +0.000 C 
BRANCH  21  22
ATOM     22  O   UNL     1       7.235   3.959  15.667  0.00  0.00    +0.000 OA
BRANCH  22  25
ATOM     23  C   UNL     1       5.634   3.637  12.473  0.00  0.00    +0.000 C 
ATOM     24  N   UNL     1       6.264   3.399  13.743  0.00  0.00    +0.000 N 
ATOM     25  C   UNL     1       6.921   4.393  14.417  0.00  0.00    +0.000 C 
ATOM     26  O   UNL     1       7.142   5.510  13.976  0.00  0.00    +0.000 OA
ATOM     27  H   UNL     1       5.929   2.657  14.349  0.00  0.00    +0.000 HD
ENDBRANCH  22  25
ENDBRANCH  21  22
ENDBRANCH   1  21
BRANCH   2  28
ATOM     28  C   UNL     1       5.765   7.816  17.150  0.00  0.00    +0.000 C 
BRANCH  28  29
ATOM     29  O   UNL     1       7.167   7.656  16.921  0.00  0.00    +0.000 OA
BRANCH  29  30
ATOM     30  C   UNL     1       7.953   8.036  17.954  0.00  0.00    +0.000 C 
ATOM     31  O   UNL     1       8.419   7.309  18.819  0.00  0.00    +0.000 OA
ATOM     32  N   UNL     1       8.160   9.376  17.897  0.00  0.00    +0.000 N 
ATOM     33  C   UNL     1       9.029  10.054  18.817  0.00  0.00    +0.000 C 
ATOM     34  H   UNL     1       7.707   9.868  17.139  0.00  0.00    +0.000 HD
ENDBRANCH  29  30
ENDBRANCH  28  29
ENDBRANCH   2  28
TORSDOF 8
ENDMDL
MODEL 4
REMARK VINA RESULT:      -6.6      7.295     11.323
REMARK  Name = 
REMARK  11 active torsions:
REMARK  status: ('A' for Active; 'I' for Inactive)
REMARK    1  A    between atoms: C_1  and  N_2
REMARK    2  A    between atoms: C_3  and  O_5
REMARK    3  A    between atoms: O_5  and  C_6
REMARK    4  A    between atoms: C_6  and  C_7
REMARK    5  A    between atoms: C_8  and  C_9
REMARK    6  A    between atoms: C_9  and  O_10
REMARK    7  A    between atoms: O_10  and  C_11
REMARK    8  A    between atoms: N_13  and  C_14
REMARK    9  A    between atoms: C_15  and  C_16
REMARK   10  A    between atoms: C_21  and  O_22
REMARK   11  A    between atoms: O_22  and  C_23
REMARK                            x       y       z     vdW  Elec       q    Type
REMARK                         _______ _______ _______ _____ _____    ______ ____
ROOT
ATOM      1  C   UNL     1       4.187   6.593  17.170  0.00  0.00    +0.000 A 
ATOM      2  C   UNL     1       4.067   5.356  17.917  0.00  0.00    +0.000 A 
ATOM      3  C   UNL     1       3.108   5.520  18.948  0.00  0.00    +0.000 A 
ATOM      4  N   UNL     1       2.685   6.832  18.838  0.00  0.00    +0.000 N 
ATOM      5  C   UNL     1       3.349   7.473  17.817  0.00  0.00    +0.000 A 
ATOM      6  C   UNL     1       2.883   8.888  17.693  0.00  0.00    +0.000 C 
ATOM      7  C   UNL     1       1.844   8.944  18.790  0.00  0.00    +0.000 A 
ATOM      8  C   UNL     1       1.045  10.007  19.185  0.00  0.00    +0.000 A 
ATOM      9  C   UNL     1       0.146   9.801  20.236  0.00  0.00    +0.000 A 
ATOM     10  C   UNL     1       0.031   8.540  20.845  0.00  0.00    +0.000 A 
ATOM     11  C   UNL     1       0.809   7.462  20.416  0.00  0.00    +0.000 A 
ATOM     12  C   UNL     1       1.736   7.690  19.422  0.00  0.00    +0.000 A 
ENDROOT
BRANCH   3  13
ATOM     13  C   UNL     1       2.527   4.491  19.852  0.00  0.00    +0.000 A 
ATOM     14  C   UNL     1       2.767   4.651  21.229  0.00  0.00    +0.000 A 
ATOM     15  C   UNL     1       2.304   3.736  22.172  0.00  0.00    +0.000 A 
ATOM     16  C   UNL     1       1.654   2.590  21.747  0.00  0.00    +0.000 A 
ATOM     17  C   UNL     1       1.403   2.401  20.388  0.00  0.00    +0.000 A 
ATOM     18  C   UNL     1       1.782   3.365  19.436  0.00  0.00    +0.000 A 
BRANCH  18  19
ATOM     19  O   UNL     1       1.464   3.255  18.102  0.00  0.00    +0.000 OA
ATOM     20  C   UNL     1       2.122   2.238  17.353  0.00  0.00    +0.000 C 
ENDBRANCH  18  19
ENDBRANCH   3  13
BRANCH   1  21
ATOM     21  C   UNL     1       4.967   6.838  15.900  0.00  0.00    +0.000 C 
BRANCH  21  22
ATOM     22  O   UNL     1       6.335   6.406  15.971  0.00  0.00    +0.000 OA
BRANCH  22  25
ATOM     23  C   UNL     1       5.853   3.901  13.450  0.00  0.00    +0.000 C 
ATOM     24  N   UNL     1       5.750   4.746  14.609  0.00  0.00    +0.000 N 
ATOM     25  C   UNL     1       6.769   5.579  14.983  0.00  0.00    +0.000 C 
ATOM     26  O   UNL     1       7.877   5.605  14.469  0.00  0.00    +0.000 OA
ATOM     27  H   UNL     1       4.840   5.051  14.940  0.00  0.00    +0.000 HD
ENDBRANCH  22  25
ENDBRANCH  21  22
ENDBRANCH   1  21
BRANCH   2  28
ATOM     28  C   UNL     1       4.838   4.101  17.598  0.00  0.00    +0.000 C 
BRANCH  28  29
ATOM     29  O   UNL     1       5.855   3.809  18.560  0.00  0.00    +0.000 OA
BRANCH  29  30
ATOM     30  C   UNL     1       7.021   4.466  18.363  0.00  0.00    +0.000 C 
ATOM     31  O   UNL     1       7.979   4.069  17.717  0.00  0.00    +0.000 OA
ATOM     32  N   UNL     1       6.980   5.664  19.000  0.00  0.00    +0.000 N 
ATOM     33  C   UNL     1       8.047   6.620  18.897  0.00  0.00    +0.000 C 
ATOM     34  H   UNL     1       6.135   5.870  19.514  0.00  0.00    +0.000 HD
ENDBRANCH  29  30
ENDBRANCH  28  29
ENDBRANCH   2  28
TORSDOF 8
ENDMDL
MODEL 5
REMARK VINA RESULT:      -6.6      2.249      7.316
REMARK  Name = 
REMARK  11 active torsions:
REMARK  status: ('A' for Active; 'I' for Inactive)
REMARK    1  A    between atoms: C_1  and  N_2
REMARK    2  A    between atoms: C_3  and  O_5
REMARK    3  A    between atoms: O_5  and  C_6
REMARK    4  A    between atoms: C_6  and  C_7
REMARK    5  A    between atoms: C_8  and  C_9
REMARK    6  A    between atoms: C_9  and  O_10
REMARK    7  A    between atoms: O_10  and  C_11
REMARK    8  A    between atoms: N_13  and  C_14
REMARK    9  A    between atoms: C_15  and  C_16
REMARK   10  A    between atoms: C_21  and  O_22
REMARK   11  A    between atoms: O_22  and  C_23
REMARK                            x       y       z     vdW  Elec       q    Type
REMARK                         _______ _______ _______ _____ _____    ______ ____
ROOT
ATOM      1  C   UNL     1      -5.113  13.032  20.397  0.00  0.00    +0.000 A 
ATOM      2  C   UNL     1      -3.957  12.576  19.650  0.00  0.00    +0.000 A 
ATOM      3  C   UNL     1      -2.777  12.895  20.368  0.00  0.00    +0.000 A 
ATOM      4  N   UNL     1      -3.215  13.552  21.504  0.00  0.00    +0.000 N 
ATOM      5  C   UNL     1      -4.587  13.667  21.500  0.00  0.00    +0.000 A 
ATOM      6  C   UNL     1      -5.059  14.367  22.733  0.00  0.00    +0.000 C 
ATOM      7  C   UNL     1      -3.746  14.618  23.440  0.00  0.00    +0.000 A 
ATOM      8  C   UNL     1      -3.512  15.245  24.655  0.00  0.00    +0.000 A 
ATOM      9  C   UNL     1      -2.191  15.346  25.101  0.00  0.00    +0.000 A 
ATOM     10  C   UNL     1      -1.137  14.794  24.354  0.00  0.00    +0.000 A 
ATOM     11  C   UNL     1      -1.382  14.128  23.151  0.00  0.00    +0.000 A 
ATOM     12  C   UNL     1      -2.680  14.087  22.689  0.00  0.00    +0.000 A 
ENDROOT
BRANCH   3  13
ATOM     13  C   UNL     1      -1.376  12.480  20.088  0.00  0.00    +0.000 A 
ATOM     14  C   UNL     1      -0.716  13.146  19.039  0.00  0.00    +0.000 A 
ATOM     15  C   UNL     1       0.585  12.825  18.660  0.00  0.00    +0.000 A 
ATOM     16  C   UNL     1       1.231  11.766  19.276  0.00  0.00    +0.000 A 
ATOM     17  C   UNL     1       0.603  11.084  20.318  0.00  0.00    +0.000 A 
ATOM     18  C   UNL     1      -0.674  11.463  20.772  0.00  0.00    +0.000 A 
BRANCH  18  19
ATOM     19  O   UNL     1      -1.279  10.875  21.858  0.00  0.00    +0.000 OA
ATOM     20  C   UNL     1      -0.440  10.204  22.793  0.00  0.00    +0.000 C 
ENDBRANCH  18  19
ENDBRANCH   3  13
BRANCH   1  21
ATOM     21  C   UNL     1      -6.571  12.777  20.098  0.00  0.00    +0.000 C 
BRANCH  21  22
ATOM     22  O   UNL     1      -7.139  11.706  20.869  0.00  0.00    +0.000 OA
BRANCH  22  25
ATOM     23  C   UNL     1      -7.916   8.205  20.810  0.00  0.00    +0.000 C 
ATOM     24  N   UNL     1      -7.571   9.547  21.194  0.00  0.00    +0.000 N 
ATOM     25  C   UNL     1      -7.206  10.488  20.270  0.00  0.00    +0.000 C 
ATOM     26  O   UNL     1      -7.021  10.268  19.082  0.00  0.00    +0.000 OA
ATOM     27  H   UNL     1      -7.949   9.948  22.047  0.00  0.00    +0.000 HD
ENDBRANCH  22  25
ENDBRANCH  21  22
ENDBRANCH   1  21
BRANCH   2  28
ATOM     28  C   UNL     1      -4.039  11.851  18.331  0.00  0.00    +0.000 C 
BRANCH  28  29
ATOM     29  O   UNL     1      -3.395  10.574  18.353  0.00  0.00    +0.000 OA
BRANCH  29  30
ATOM     30  C   UNL     1      -2.659  10.297  17.254  0.00  0.00    +0.000 C 
ATOM     31  O   UNL     1      -1.488   9.945  17.231  0.00  0.00    +0.000 OA
ATOM     32  N   UNL     1      -3.421  10.465  16.143  0.00  0.00    +0.000 N 
ATOM     33  C   UNL     1      -2.932  10.158  14.828  0.00  0.00    +0.000 C 
ATOM     34  H   UNL     1      -4.372  10.773  16.294  0.00  0.00    +0.000 HD
ENDBRANCH  29  30
ENDBRANCH  28  29
ENDBRANCH   2  28
TORSDOF 8
ENDMDL
MODEL 6
REMARK VINA RESULT:      -6.5      2.864      6.107
REMARK  Name = 
REMARK  11 active torsions:
REMARK  status: ('A' for Active; 'I' for Inactive)
REMARK    1  A    between atoms: C_1  and  N_2
REMARK    2  A    between atoms: C_3  and  O_5
REMARK    3  A    between atoms: O_5  and  C_6
REMARK    4  A    between atoms: C_6  and  C_7
REMARK    5  A    between atoms: C_8  and  C_9
REMARK    6  A    between atoms: C_9  and  O_10
REMARK    7  A    between atoms: O_10  and  C_11
REMARK    8  A    between atoms: N_13  and  C_14
REMARK    9  A    between atoms: C_15  and  C_16
REMARK   10  A    between atoms: C_21  and  O_22
REMARK   11  A    between atoms: O_22  and  C_23
REMARK                            x       y       z     vdW  Elec       q    Type
REMARK                         _______ _______ _______ _____ _____    ______ ____
ROOT
ATOM      1  C   UNL     1      -4.154  11.496  18.231  0.00  0.00    +0.000 A 
ATOM      2  C   UNL     1      -5.005  12.255  19.126  0.00  0.00    +0.000 A 
ATOM      3  C   UNL     1      -4.206  12.890  20.111  0.00  0.00    +0.000 A 
ATOM      4  N   UNL     1      -2.910  12.496  19.829  0.00  0.00    +0.000 N 
ATOM      5  C   UNL     1      -2.886  11.645  18.747  0.00  0.00    +0.000 A 
ATOM      6  C   UNL     1      -1.484  11.230  18.437  0.00  0.00    +0.000 C 
ATOM      7  C   UNL     1      -0.719  11.986  19.499  0.00  0.00    +0.000 A 
ATOM      8  C   UNL     1       0.646  12.014  19.743  0.00  0.00    +0.000 A 
ATOM      9  C   UNL     1       1.112  12.809  20.794  0.00  0.00    +0.000 A 
ATOM     10  C   UNL     1       0.223  13.586  21.555  0.00  0.00    +0.000 A 
ATOM     11  C   UNL     1      -1.147  13.586  21.281  0.00  0.00    +0.000 A 
ATOM     12  C   UNL     1      -1.604  12.752  20.282  0.00  0.00    +0.000 A 
ENDROOT
BRANCH   3  13
ATOM     13  C   UNL     1      -4.607  13.899  21.127  0.00  0.00    +0.000 A 
ATOM     14  C   UNL     1      -4.899  15.191  20.654  0.00  0.00    +0.000 A 
ATOM     15  C   UNL     1      -5.254  16.231  21.510  0.00  0.00    +0.000 A 
ATOM     16  C   UNL     1      -5.247  16.018  22.879  0.00  0.00    +0.000 A 
ATOM     17  C   UNL     1      -4.959  14.748  23.379  0.00  0.00    +0.000 A 
ATOM     18  C   UNL     1      -4.693  13.669  22.518  0.00  0.00    +0.000 A 
BRANCH  18  19
ATOM     19  O   UNL     1      -4.502  12.385  22.975  0.00  0.00    +0.000 OA
ATOM     20  C   UNL     1      -3.410  12.160  23.861  0.00  0.00    +0.000 C 
ENDBRANCH  18  19
ENDBRANCH   3  13
BRANCH   1  21
ATOM     21  C   UNL     1      -4.545  10.790  16.956  0.00  0.00    +0.000 C 
BRANCH  21  22
ATOM     22  O   UNL     1      -3.869  11.287  15.790  0.00  0.00    +0.000 OA
BRANCH  22  25
ATOM     23  C   UNL     1      -3.974   9.653  12.599  0.00  0.00    +0.000 C 
ATOM     24  N   UNL     1      -4.284  10.378  13.801  0.00  0.00    +0.000 N 
ATOM     25  C   UNL     1      -3.447  10.365  14.884  0.00  0.00    +0.000 C 
ATOM     26  O   UNL     1      -2.451   9.667  14.991  0.00  0.00    +0.000 OA
ATOM     27  H   UNL     1      -4.878  11.200  13.763  0.00  0.00    +0.000 HD
ENDBRANCH  22  25
ENDBRANCH  21  22
ENDBRANCH   1  21
BRANCH   2  28
ATOM     28  C   UNL     1      -6.502  12.355  18.982  0.00  0.00    +0.000 C 
BRANCH  28  29
ATOM     29  O   UNL     1      -7.141  11.079  18.885  0.00  0.00    +0.000 OA
BRANCH  29  30
ATOM     30  C   UNL     1      -7.279  10.428  20.062  0.00  0.00    +0.000 C 
ATOM     31  O   UNL     1      -7.135  10.905  21.179  0.00  0.00    +0.000 OA
ATOM     32  N   UNL     1      -7.610   9.133  19.829  0.00  0.00    +0.000 N 
ATOM     33  C   UNL     1      -7.907   8.216  20.894  0.00  0.00    +0.000 C 
ATOM     34  H   UNL     1      -7.685   8.857  18.859  0.00  0.00    +0.000 HD
ENDBRANCH  29  30
ENDBRANCH  28  29
ENDBRANCH   2  28
TORSDOF 8
ENDMDL
MODEL 7
REMARK VINA RESULT:      -6.5      2.949      6.574
REMARK  Name = 
REMARK  11 active torsions:
REMARK  status: ('A' for Active; 'I' for Inactive)
REMARK    1  A    between atoms: C_1  and  N_2
REMARK    2  A    between atoms: C_3  and  O_5
REMARK    3  A    between atoms: O_5  and  C_6
REMARK    4  A    between atoms: C_6  and  C_7
REMARK    5  A    between atoms: C_8  and  C_9
REMARK    6  A    between atoms: C_9  and  O_10
REMARK    7  A    between atoms: O_10  and  C_11
REMARK    8  A    between atoms: N_13  and  C_14
REMARK    9  A    between atoms: C_15  and  C_16
REMARK   10  A    between atoms: C_21  and  O_22
REMARK   11  A    between atoms: O_22  and  C_23
REMARK                            x       y       z     vdW  Elec       q    Type
REMARK                         _______ _______ _______ _____ _____    ______ ____
ROOT
ATOM      1  C   UNL     1      -3.270  11.169  17.825  0.00  0.00    +0.000 A 
ATOM      2  C   UNL     1      -2.281  11.959  18.531  0.00  0.00    +0.000 A 
ATOM      3  C   UNL     1      -2.874  12.538  19.681  0.00  0.00    +0.000 A 
ATOM      4  N   UNL     1      -4.194  12.127  19.649  0.00  0.00    +0.000 N 
ATOM      5  C   UNL     1      -4.435  11.354  18.535  0.00  0.00    +0.000 A 
ATOM      6  C   UNL     1      -5.859  10.901  18.508  0.00  0.00    +0.000 C 
ATOM      7  C   UNL     1      -6.383  11.524  19.783  0.00  0.00    +0.000 A 
ATOM      8  C   UNL     1      -7.658  11.470  20.324  0.00  0.00    +0.000 A 
ATOM      9  C   UNL     1      -7.890  12.131  21.534  0.00  0.00    +0.000 A 
ATOM     10  C   UNL     1      -6.847  12.799  22.198  0.00  0.00    +0.000 A 
ATOM     11  C   UNL     1      -5.554  12.817  21.669  0.00  0.00    +0.000 A 
ATOM     12  C   UNL     1      -5.350  12.215  20.446  0.00  0.00    +0.000 A 
ENDROOT
BRANCH   3  13
ATOM     13  C   UNL     1      -2.220  13.279  20.793  0.00  0.00    +0.000 A 
ATOM     14  C   UNL     1      -2.168  14.679  20.676  0.00  0.00    +0.000 A 
ATOM     15  C   UNL     1      -1.553  15.481  21.635  0.00  0.00    +0.000 A 
ATOM     16  C   UNL     1      -0.901  14.886  22.703  0.00  0.00    +0.000 A 
ATOM     17  C   UNL     1      -0.934  13.499  22.847  0.00  0.00    +0.000 A 
ATOM     18  C   UNL     1      -1.633  12.688  21.935  0.00  0.00    +0.000 A 
BRANCH  18  19
ATOM     19  O   UNL     1      -1.766  11.329  22.101  0.00  0.00    +0.000 OA
ATOM     20  C   UNL     1      -0.923  10.701  23.062  0.00  0.00    +0.000 C 
ENDBRANCH  18  19
ENDBRANCH   3  13
BRANCH   1  21
ATOM     21  C   UNL     1      -3.057  10.257  16.641  0.00  0.00    +0.000 C 
BRANCH  21  22
ATOM     22  O   UNL     1      -2.997  10.948  15.383  0.00  0.00    +0.000 OA
BRANCH  22  25
ATOM     23  C   UNL     1      -4.964   9.541  12.734  0.00  0.00    +0.000 C 
ATOM     24  N   UNL     1      -4.498  10.104  13.972  0.00  0.00    +0.000 N 
ATOM     25  C   UNL     1      -3.163  10.198  14.262  0.00  0.00    +0.000 C 
ATOM     26  O   UNL     1      -2.265   9.722  13.585  0.00  0.00    +0.000 OA
ATOM     27  H   UNL     1      -5.065  10.782  14.472  0.00  0.00    +0.000 HD
ENDBRANCH  22  25
ENDBRANCH  21  22
ENDBRANCH   1  21
BRANCH   2  28
ATOM     28  C   UNL     1      -0.845  12.097  18.094  0.00  0.00    +0.000 C 
BRANCH  28  29
ATOM     29  O   UNL     1       0.088  11.776  19.130  0.00  0.00    +0.000 OA
BRANCH  29  30
ATOM     30  C   UNL     1       0.520  10.495  19.120  0.00  0.00    +0.000 C 
ATOM     31  O   UNL     1       0.228   9.623  19.925  0.00  0.00    +0.000 OA
ATOM     32  N   UNL     1       1.348  10.303  18.062  0.00  0.00    +0.000 N 
ATOM     33  C   UNL     1       1.894   9.013  17.744  0.00  0.00    +0.000 C 
ATOM     34  H   UNL     1       1.522  11.108  17.477  0.00  0.00    +0.000 HD
ENDBRANCH  29  30
ENDBRANCH  28  29
ENDBRANCH   2  28
TORSDOF 8
ENDMDL
MODEL 8
REMARK VINA RESULT:      -6.5      3.342      6.459
REMARK  Name = 
REMARK  11 active torsions:
REMARK  status: ('A' for Active; 'I' for Inactive)
REMARK    1  A    between atoms: C_1  and  N_2
REMARK    2  A    between atoms: C_3  and  O_5
REMARK    3  A    between atoms: O_5  and  C_6
REMARK    4  A    between atoms: C_6  and  C_7
REMARK    5  A    between atoms: C_8  and  C_9
REMARK    6  A    between atoms: C_9  and  O_10
REMARK    7  A    between atoms: O_10  and  C_11
REMARK    8  A    between atoms: N_13  and  C_14
REMARK    9  A    between atoms: C_15  and  C_16
REMARK   10  A    between atoms: C_21  and  O_22
REMARK   11  A    between atoms: O_22  and  C_23
REMARK                            x       y       z     vdW  Elec       q    Type
REMARK                         _______ _______ _______ _____ _____    ______ ____
ROOT
ATOM      1  C   UNL     1      -3.792  10.770  17.048  0.00  0.00    +0.000 A 
ATOM      2  C   UNL     1      -4.649  11.567  17.904  0.00  0.00    +0.000 A 
ATOM      3  C   UNL     1      -3.950  11.898  19.092  0.00  0.00    +0.000 A 
ATOM      4  N   UNL     1      -2.714  11.290  18.962  0.00  0.00    +0.000 N 
ATOM      5  C   UNL     1      -2.638  10.594  17.777  0.00  0.00    +0.000 A 
ATOM      6  C   UNL     1      -1.298   9.947  17.633  0.00  0.00    +0.000 C 
ATOM      7  C   UNL     1      -0.625  10.394  18.910  0.00  0.00    +0.000 A 
ATOM      8  C   UNL     1       0.653  10.115  19.371  0.00  0.00    +0.000 A 
ATOM      9  C   UNL     1       1.047  10.661  20.596  0.00  0.00    +0.000 A 
ATOM     10  C   UNL     1       0.182  11.500  21.319  0.00  0.00    +0.000 A 
ATOM     11  C   UNL     1      -1.090  11.811  20.832  0.00  0.00    +0.000 A 
ATOM     12  C   UNL     1      -1.492  11.218  19.654  0.00  0.00    +0.000 A 
ENDROOT
BRANCH   3  13
ATOM     13  C   UNL     1      -4.350  12.833  20.178  0.00  0.00    +0.000 A 
ATOM     14  C   UNL     1      -3.611  14.025  20.291  0.00  0.00    +0.000 A 
ATOM     15  C   UNL     1      -3.868  14.963  21.288  0.00  0.00    +0.000 A 
ATOM     16  C   UNL     1      -4.826  14.690  22.250  0.00  0.00    +0.000 A 
ATOM     17  C   UNL     1      -5.574  13.515  22.166  0.00  0.00    +0.000 A 
ATOM     18  C   UNL     1      -5.388  12.606  21.109  0.00  0.00    +0.000 A 
BRANCH  18  19
ATOM     19  O   UNL     1      -6.173  11.489  20.944  0.00  0.00    +0.000 OA
ATOM     20  C   UNL     1      -7.556  11.607  21.266  0.00  0.00    +0.000 C 
ENDBRANCH  18  19
ENDBRANCH   3  13
BRANCH   1  21
ATOM     21  C   UNL     1      -4.055  10.323  15.630  0.00  0.00    +0.000 C 
BRANCH  21  22
ATOM     22  O   UNL     1      -2.910  10.430  14.769  0.00  0.00    +0.000 OA
BRANCH  22  25
ATOM     23  C   UNL     1      -4.696   9.745  11.735  0.00  0.00    +0.000 C 
ATOM     24  N   UNL     1      -4.319  10.034  13.092  0.00  0.00    +0.000 N 
ATOM     25  C   UNL     1      -3.027   9.898  13.523  0.00  0.00    +0.000 C 
ATOM     26  O   UNL     1      -2.116   9.420  12.865  0.00  0.00    +0.000 OA
ATOM     27  H   UNL     1      -4.859  10.693  13.643  0.00  0.00    +0.000 HD
ENDBRANCH  22  25
ENDBRANCH  21  22
ENDBRANCH   1  21
BRANCH   2  28
ATOM     28  C   UNL     1      -6.051  11.984  17.540  0.00  0.00    +0.000 C 
BRANCH  28  29
ATOM     29  O   UNL     1      -6.088  13.093  16.638  0.00  0.00    +0.000 OA
BRANCH  29  30
ATOM     30  C   UNL     1      -7.044  14.009  16.911  0.00  0.00    +0.000 C 
ATOM     31  O   UNL     1      -7.914  13.920  17.766  0.00  0.00    +0.000 OA
ATOM     32  N   UNL     1      -6.902  15.075  16.083  0.00  0.00    +0.000 N 
ATOM     33  C   UNL     1      -7.725  16.247  16.199  0.00  0.00    +0.000 C 
ATOM     34  H   UNL     1      -6.151  15.022  15.409  0.00  0.00    +0.000 HD
ENDBRANCH  29  30
ENDBRANCH  28  29
ENDBRANCH   2  28
TORSDOF 8
ENDMDL
MODEL 9
REMARK VINA RESULT:      -6.5      7.790     12.360
REMARK  Name = 
REMARK  11 active torsions:
REMARK  status: ('A' for Active; 'I' for Inactive)
REMARK    1  A    between atoms: C_1  and  N_2
REMARK    2  A    between atoms: C_3  and  O_5
REMARK    3  A    between atoms: O_5  and  C_6
REMARK    4  A    between atoms: C_6  and  C_7
REMARK    5  A    between atoms: C_8  and  C_9
REMARK    6  A    between atoms: C_9  and  O_10
REMARK    7  A    between atoms: O_10  and  C_11
REMARK    8  A    between atoms: N_13  and  C_14
REMARK    9  A    between atoms: C_15  and  C_16
REMARK   10  A    between atoms: C_21  and  O_22
REMARK   11  A    between atoms: O_22  and  C_23
REMARK                            x       y       z     vdW  Elec       q    Type
REMARK                         _______ _______ _______ _____ _____    ______ ____
ROOT
ATOM      1  C   UNL     1       3.933   4.030  16.988  0.00  0.00    +0.000 A 
ATOM      2  C   UNL     1       4.622   4.953  17.869  0.00  0.00    +0.000 A 
ATOM      3  C   UNL     1       5.755   5.483  17.203  0.00  0.00    +0.000 A 
ATOM      4  N   UNL     1       5.760   4.871  15.962  0.00  0.00    +0.000 N 
ATOM      5  C   UNL     1       4.711   3.987  15.853  0.00  0.00    +0.000 A 
ATOM      6  C   UNL     1       4.711   3.335  14.508  0.00  0.00    +0.000 C 
ATOM      7  C   UNL     1       5.912   3.995  13.869  0.00  0.00    +0.000 A 
ATOM      8  C   UNL     1       6.444   3.806  12.603  0.00  0.00    +0.000 A 
ATOM      9  C   UNL     1       7.571   4.553  12.243  0.00  0.00    +0.000 A 
ATOM     10  C   UNL     1       8.121   5.494  13.129  0.00  0.00    +0.000 A 
ATOM     11  C   UNL     1       7.557   5.709  14.389  0.00  0.00    +0.000 A 
ATOM     12  C   UNL     1       6.485   4.925  14.758  0.00  0.00    +0.000 A 
ENDROOT
BRANCH   3  13
ATOM     13  C   UNL     1       6.659   6.583  17.634  0.00  0.00    +0.000 A 
ATOM     14  C   UNL     1       6.404   7.858  17.098  0.00  0.00    +0.000 A 
ATOM     15  C   UNL     1       7.201   8.961  17.400  0.00  0.00    +0.000 A 
ATOM     16  C   UNL     1       8.327   8.792  18.188  0.00  0.00    +0.000 A 
ATOM     17  C   UNL     1       8.608   7.539  18.733  0.00  0.00    +0.000 A 
ATOM     18  C   UNL     1       7.757   6.441  18.512  0.00  0.00    +0.000 A 
BRANCH  18  19
ATOM     19  O   UNL     1       7.952   5.219  19.112  0.00  0.00    +0.000 OA
ATOM     20  C   UNL     1       8.268   5.214  20.501  0.00  0.00    +0.000 C 
ENDBRANCH  18  19
ENDBRANCH   3  13
BRANCH   1  21
ATOM     21  C   UNL     1       2.604   3.350  17.213  0.00  0.00    +0.000 C 
BRANCH  21  22
ATOM     22  O   UNL     1       2.653   2.294  18.185  0.00  0.00    +0.000 OA
BRANCH  22  25
ATOM     23  C   UNL     1       1.352   2.766  21.494  0.00  0.00    +0.000 C 
ATOM     24  N   UNL     1       2.189   2.530  20.350  0.00  0.00    +0.000 N 
ATOM     25  C   UNL     1       1.661   2.269  19.114  0.00  0.00    +0.000 C 
ATOM     26  O   UNL     1       0.474   2.094  18.883  0.00  0.00    +0.000 OA
ATOM     27  H   UNL     1       3.125   2.920  20.311  0.00  0.00    +0.000 HD
ENDBRANCH  22  25
ENDBRANCH  21  22
ENDBRANCH   1  21
BRANCH   2  28
ATOM     28  C   UNL     1       4.158   5.292  19.263  0.00  0.00    +0.000 C 
BRANCH  28  29
ATOM     29  O   UNL     1       2.751   5.539  19.339  0.00  0.00    +0.000 OA
BRANCH  29  30
ATOM     30  C   UNL     1       2.415   6.840  19.484  0.00  0.00    +0.000 C 
ATOM     31  O   UNL     1       2.570   7.728  18.658  0.00  0.00    +0.000 OA
ATOM     32  N   UNL     1       1.865   7.033  20.709  0.00  0.00    +0.000 N 
ATOM     33  C   UNL     1       1.331   8.303  21.115  0.00  0.00    +0.000 C 
ATOM     34  H   UNL     1       1.806   6.221  21.308  0.00  0.00    +0.000 HD
ENDBRANCH  29  30
ENDBRANCH  28  29
ENDBRANCH   2  28
TORSDOF 8
ENDMDL
