MODEL 1
REMARK VINA RESULT:      -7.3      0.000      0.000
REMARK  Name = 
REMARK  5 active torsions:
REMARK  status: ('A' for Active; 'I' for Inactive)
REMARK    1  A    between atoms: C_1  and  N_2
REMARK    2  A    between atoms: C_6  and  N_7
REMARK    3  A    between atoms: N_7  and  S_8
REMARK    4  A    between atoms: S_8  and  C_11
REMARK    5  A    between atoms: C_11  and  C_12
REMARK                            x       y       z     vdW  Elec       q    Type
REMARK                         _______ _______ _______ _____ _____    ______ ____
ROOT
ATOM      1  N   UNL     1       6.031   3.864  18.207  0.00  0.00    +0.000 NA
ATOM      2  H   UNL     1       5.852   3.245  17.414  0.00  0.00    +0.000 HD
ENDROOT
BRANCH   1   8
ATOM      3  C   UNL     1       1.922   2.002  19.266  0.00  0.00    +0.000 C 
ATOM      4  N   UNL     1       2.883   3.051  19.024  0.00  0.00    +0.000 N 
ATOM      5  C   UNL     1       2.609   4.172  18.306  0.00  0.00    +0.000 C 
ATOM      6  O   UNL     1       1.542   4.463  17.786  0.00  0.00    +0.000 OA
ATOM      7  C   UNL     1       3.822   5.041  18.257  0.00  0.00    +0.000 C 
ATOM      8  C   UNL     1       4.882   4.277  19.030  0.00  0.00    +0.000 C 
ATOM      9  C   UNL     1       4.140   3.062  19.554  0.00  0.00    +0.000 C 
ATOM     10  O   UNL     1       4.608   2.225  20.316  0.00  0.00    +0.000 OA
ENDBRANCH   1   8
BRANCH   1  11
ATOM     11  S   UNL     1       7.313   4.894  17.916  0.00  0.00    +0.000 S 
ATOM     12  O   UNL     1       7.264   5.861  18.986  0.00  0.00    +0.000 OA
ATOM     13  O   UNL     1       8.482   4.075  17.704  0.00  0.00    +0.000 OA
BRANCH  11  14
ATOM     14  C   UNL     1       6.882   5.691  16.368  0.00  0.00    +0.000 C 
BRANCH  14  15
ATOM     15  C   UNL     1       6.809   4.670  15.237  0.00  0.00    +0.000 C 
ATOM     16  C   UNL     1       5.387   4.391  14.765  0.00  0.00    +0.000 C 
ATOM     17  C   UNL     1       5.592   3.689  13.428  0.00  0.00    +0.000 C 
ATOM     18  C   UNL     1       6.902   4.237  12.864  0.00  0.00    +0.000 C 
ATOM     19  C   UNL     1       7.501   5.118  13.953  0.00  0.00    +0.000 C 
ENDBRANCH  14  15
ENDBRANCH  11  14
ENDBRANCH   1  11
TORSDOF 4
ENDMDL
MODEL 2
REMARK VINA RESULT:      -7.1      1.388      1.587
REMARK  Name = 
REMARK  5 active torsions:
REMARK  status: ('A' for Active; 'I' for Inactive)
REMARK    1  A    between atoms: C_1  and  N_2
REMARK    2  A    between atoms: C_6  and  N_7
REMARK    3  A    between atoms: N_7  and  S_8
REMARK    4  A    between atoms: S_8  and  C_11
REMARK    5  A    between atoms: C_11  and  C_12
REMARK                            x       y       z     vdW  Elec       q    Type
REMARK                         _______ _______ _______ _____ _____    ______ ____
ROOT
ATOM      1  N   UNL     1       6.021   4.019  18.412  0.00  0.00    +0.000 NA
ATOM      2  H   UNL     1       6.372   3.084  18.629  0.00  0.00    +0.000 HD
ENDROOT
BRANCH   1   8
ATOM      3  C   UNL     1       2.080   4.183  20.842  0.00  0.00    +0.000 C 
ATOM      4  N   UNL     1       2.933   3.915  19.709  0.00  0.00    +0.000 N 
ATOM      5  C   UNL     1       2.866   2.776  18.970  0.00  0.00    +0.000 C 
ATOM      6  O   UNL     1       2.093   1.844  19.134  0.00  0.00    +0.000 OA
ATOM      7  C   UNL     1       3.883   2.830  17.879  0.00  0.00    +0.000 C 
ATOM      8  C   UNL     1       4.595   4.157  18.074  0.00  0.00    +0.000 C 
ATOM      9  C   UNL     1       3.839   4.807  19.217  0.00  0.00    +0.000 C 
ATOM     10  O   UNL     1       4.031   5.943  19.632  0.00  0.00    +0.000 OA
ENDBRANCH   1   8
BRANCH   1  11
ATOM     11  S   UNL     1       7.188   4.967  17.684  0.00  0.00    +0.000 S 
ATOM     12  O   UNL     1       7.397   6.066  18.597  0.00  0.00    +0.000 OA
ATOM     13  O   UNL     1       8.274   4.095  17.306  0.00  0.00    +0.000 OA
BRANCH  11  14
ATOM     14  C   UNL     1       6.388   5.568  16.196  0.00  0.00    +0.000 C 
BRANCH  14  15
ATOM     15  C   UNL     1       6.630   4.614  15.030  0.00  0.00    +0.000 C 
ATOM     16  C   UNL     1       5.349   4.180  14.328  0.00  0.00    +0.000 C 
ATOM     17  C   UNL     1       5.849   3.590  13.016  0.00  0.00    +0.000 C 
ATOM     18  C   UNL     1       7.142   4.337  12.687  0.00  0.00    +0.000 C 
ATOM     19  C   UNL     1       7.440   5.224  13.889  0.00  0.00    +0.000 C 
ENDBRANCH  14  15
ENDBRANCH  11  14
ENDBRANCH   1  11
TORSDOF 4
ENDMDL
MODEL 3
REMARK VINA RESULT:      -6.8      1.141      1.173
REMARK  Name = 
REMARK  5 active torsions:
REMARK  status: ('A' for Active; 'I' for Inactive)
REMARK    1  A    between atoms: C_1  and  N_2
REMARK    2  A    between atoms: C_6  and  N_7
REMARK    3  A    between atoms: N_7  and  S_8
REMARK    4  A    between atoms: S_8  and  C_11
REMARK    5  A    between atoms: C_11  and  C_12
REMARK                            x       y       z     vdW  Elec       q    Type
REMARK                         _______ _______ _______ _____ _____    ______ ____
ROOT
ATOM      1  N   UNL     1       5.633   4.156  17.777  0.00  0.00    +0.000 NA
ATOM      2  H   UNL     1       4.921   3.859  17.107  0.00  0.00    +0.000 HD
ENDROOT
BRANCH   1   8
ATOM      3  C   UNL     1       2.229   2.642  20.532  0.00  0.00    +0.000 C 
ATOM      4  N   UNL     1       3.203   3.571  20.010  0.00  0.00    +0.000 N 
ATOM      5  C   UNL     1       2.946   4.887  19.791  0.00  0.00    +0.000 C 
ATOM      6  O   UNL     1       1.894   5.472  20.008  0.00  0.00    +0.000 OA
ATOM      7  C   UNL     1       4.170   5.552  19.254  0.00  0.00    +0.000 C 
ATOM      8  C   UNL     1       5.204   4.444  19.156  0.00  0.00    +0.000 C 
ATOM      9  C   UNL     1       4.502   3.241  19.755  0.00  0.00    +0.000 C 
ATOM     10  O   UNL     1       5.021   2.151  19.959  0.00  0.00    +0.000 OA
ENDBRANCH   1   8
BRANCH   1  11
ATOM     11  S   UNL     1       6.853   5.027  17.041  0.00  0.00    +0.000 S 
ATOM     12  O   UNL     1       7.017   6.205  17.861  0.00  0.00    +0.000 OA
ATOM     13  O   UNL     1       7.951   4.119  16.813  0.00  0.00    +0.000 OA
BRANCH  11  14
ATOM     14  C   UNL     1       6.154   5.493  15.457  0.00  0.00    +0.000 C 
BRANCH  14  15
ATOM     15  C   UNL     1       6.549   4.491  14.377  0.00  0.00    +0.000 C 
ATOM     16  C   UNL     1       5.359   3.944  13.596  0.00  0.00    +0.000 C 
ATOM     17  C   UNL     1       6.005   3.310  12.370  0.00  0.00    +0.000 C 
ATOM     18  C   UNL     1       7.280   4.111  12.107  0.00  0.00    +0.000 C 
ATOM     19  C   UNL     1       7.423   5.081  13.274  0.00  0.00    +0.000 C 
ENDBRANCH  14  15
ENDBRANCH  11  14
ENDBRANCH   1  11
TORSDOF 4
ENDMDL
MODEL 4
REMARK VINA RESULT:      -6.7      1.521      2.272
REMARK  Name = 
REMARK  5 active torsions:
REMARK  status: ('A' for Active; 'I' for Inactive)
REMARK    1  A    between atoms: C_1  and  N_2
REMARK    2  A    between atoms: C_6  and  N_7
REMARK    3  A    between atoms: N_7  and  S_8
REMARK    4  A    between atoms: S_8  and  C_11
REMARK    5  A    between atoms: C_11  and  C_12
REMARK                            x       y       z     vdW  Elec       q    Type
REMARK                         _______ _______ _______ _____ _____    ______ ____
ROOT
ATOM      1  N   UNL     1       5.974   5.144  18.088  0.00  0.00    +0.000 NA
ATOM      2  H   UNL     1       6.555   4.914  18.897  0.00  0.00    +0.000 HD
ENDROOT
BRANCH   1   8
ATOM      3  C   UNL     1       1.997   5.585  20.425  0.00  0.00    +0.000 C 
ATOM      4  N   UNL     1       3.009   4.924  19.636  0.00  0.00    +0.000 N 
ATOM      5  C   UNL     1       3.441   3.658  19.874  0.00  0.00    +0.000 C 
ATOM      6  O   UNL     1       3.044   2.904  20.751  0.00  0.00    +0.000 OA
ATOM      7  C   UNL     1       4.484   3.290  18.871  0.00  0.00    +0.000 C 
ATOM      8  C   UNL     1       4.641   4.525  18.001  0.00  0.00    +0.000 C 
ATOM      9  C   UNL     1       3.580   5.473  18.525  0.00  0.00    +0.000 C 
ATOM     10  O   UNL     1       3.300   6.558  18.033  0.00  0.00    +0.000 OA
ENDBRANCH   1   8
BRANCH   1  11
ATOM     11  S   UNL     1       6.894   5.436  16.725  0.00  0.00    +0.000 S 
ATOM     12  O   UNL     1       7.295   6.819  16.836  0.00  0.00    +0.000 OA
ATOM     13  O   UNL     1       7.874   4.381  16.634  0.00  0.00    +0.000 OA
BRANCH  11  14
ATOM     14  C   UNL     1       5.729   5.256  15.374  0.00  0.00    +0.000 C 
BRANCH  14  15
ATOM     15  C   UNL     1       6.291   4.336  14.295  0.00  0.00    +0.000 C 
ATOM     16  C   UNL     1       5.222   3.761  13.374  0.00  0.00    +0.000 C 
ATOM     17  C   UNL     1       6.024   3.231  12.192  0.00  0.00    +0.000 C 
ATOM     18  C   UNL     1       7.265   4.118  12.096  0.00  0.00    +0.000 C 
ATOM     19  C   UNL     1       7.231   5.033  13.314  0.00  0.00    +0.000 C 
ENDBRANCH  14  15
ENDBRANCH  11  14
ENDBRANCH   1  11
TORSDOF 4
ENDMDL
MODEL 5
REMARK VINA RESULT:      -6.6      0.857      1.054
REMARK  Name = 
REMARK  5 active torsions:
REMARK  status: ('A' for Active; 'I' for Inactive)
REMARK    1  A    between atoms: C_1  and  N_2
REMARK    2  A    between atoms: C_6  and  N_7
REMARK    3  A    between atoms: N_7  and  S_8
REMARK    4  A    between atoms: S_8  and  C_11
REMARK    5  A    between atoms: C_11  and  C_12
REMARK                            x       y       z     vdW  Elec       q    Type
REMARK                         _______ _______ _______ _____ _____    ______ ____
ROOT
ATOM      1  N   UNL     1       5.925   3.873  18.356  0.00  0.00    +0.000 NA
ATOM      2  H   UNL     1       6.072   2.865  18.271  0.00  0.00    +0.000 HD
ENDROOT
BRANCH   1   8
ATOM      3  C   UNL     1       1.778   1.972  19.168  0.00  0.00    +0.000 C 
ATOM      4  N   UNL     1       2.728   3.025  18.899  0.00  0.00    +0.000 N 
ATOM      5  C   UNL     1       2.509   4.026  18.007  0.00  0.00    +0.000 C 
ATOM      6  O   UNL     1       1.506   4.194  17.329  0.00  0.00    +0.000 OA
ATOM      7  C   UNL     1       3.691   4.939  17.982  0.00  0.00    +0.000 C 
ATOM      8  C   UNL     1       4.671   4.336  18.972  0.00  0.00    +0.000 C 
ATOM      9  C   UNL     1       3.909   3.167  19.567  0.00  0.00    +0.000 C 
ATOM     10  O   UNL     1       4.305   2.462  20.487  0.00  0.00    +0.000 OA
ENDBRANCH   1   8
BRANCH   1  11
ATOM     11  S   UNL     1       6.648   4.714  17.107  0.00  0.00    +0.000 S 
ATOM     12  O   UNL     1       6.377   6.104  17.388  0.00  0.00    +0.000 OA
ATOM     13  O   UNL     1       8.001   4.227  16.989  0.00  0.00    +0.000 OA
BRANCH  11  14
ATOM     14  C   UNL     1       5.726   4.206  15.655  0.00  0.00    +0.000 C 
BRANCH  14  15
ATOM     15  C   UNL     1       6.651   4.063  14.451  0.00  0.00    +0.000 C 
ATOM     16  C   UNL     1       5.935   3.589  13.191  0.00  0.00    +0.000 C 
ATOM     17  C   UNL     1       6.931   3.901  12.082  0.00  0.00    +0.000 C 
ATOM     18  C   UNL     1       7.727   5.115  12.562  0.00  0.00    +0.000 C 
ATOM     19  C   UNL     1       7.283   5.376  13.996  0.00  0.00    +0.000 C 
ENDBRANCH  14  15
ENDBRANCH  11  14
ENDBRANCH   1  11
TORSDOF 4
ENDMDL
MODEL 6
REMARK VINA RESULT:      -6.5      2.036      2.524
REMARK  Name = 
REMARK  5 active torsions:
REMARK  status: ('A' for Active; 'I' for Inactive)
REMARK    1  A    between atoms: C_1  and  N_2
REMARK    2  A    between atoms: C_6  and  N_7
REMARK    3  A    between atoms: N_7  and  S_8
REMARK    4  A    between atoms: S_8  and  C_11
REMARK    5  A    between atoms: C_11  and  C_12
REMARK                            x       y       z     vdW  Elec       q    Type
REMARK                         _______ _______ _______ _____ _____    ______ ____
ROOT
ATOM      1  N   UNL     1       5.390   4.074  16.039  0.00  0.00    +0.000 NA
ATOM      2  H   UNL     1       5.132   3.399  15.316  0.00  0.00    +0.000 HD
ENDROOT
BRANCH   1   8
ATOM      3  C   UNL     1       4.478   2.121  20.141  0.00  0.00    +0.000 C 
ATOM      4  N   UNL     1       4.203   2.842  18.921  0.00  0.00    +0.000 N 
ATOM      5  C   UNL     1       3.098   2.633  18.157  0.00  0.00    +0.000 C 
ATOM      6  O   UNL     1       2.193   1.843  18.382  0.00  0.00    +0.000 OA
ATOM      7  C   UNL     1       3.129   3.547  16.976  0.00  0.00    +0.000 C 
ATOM      8  C   UNL     1       4.424   4.327  17.120  0.00  0.00    +0.000 C 
ATOM      9  C   UNL     1       4.981   3.858  18.451  0.00  0.00    +0.000 C 
ATOM     10  O   UNL     1       5.977   4.315  18.997  0.00  0.00    +0.000 OA
ENDBRANCH   1   8
BRANCH   1  11
ATOM     11  S   UNL     1       6.366   5.287  15.436  0.00  0.00    +0.000 S 
ATOM     12  O   UNL     1       5.465   6.371  15.126  0.00  0.00    +0.000 OA
ATOM     13  O   UNL     1       7.454   5.465  16.367  0.00  0.00    +0.000 OA
BRANCH  11  14
ATOM     14  C   UNL     1       7.020   4.598  13.915  0.00  0.00    +0.000 C 
BRANCH  14  15
ATOM     15  C   UNL     1       6.019   3.635  13.285  0.00  0.00    +0.000 C 
ATOM     16  C   UNL     1       4.933   4.336  12.476  0.00  0.00    +0.000 C 
ATOM     17  C   UNL     1       4.326   3.207  11.651  0.00  0.00    +0.000 C 
ATOM     18  C   UNL     1       5.452   2.199  11.429  0.00  0.00    +0.000 C 
ATOM     19  C   UNL     1       6.633   2.687  12.259  0.00  0.00    +0.000 C 
ENDBRANCH  14  15
ENDBRANCH  11  14
ENDBRANCH   1  11
TORSDOF 4
ENDMDL
MODEL 7
REMARK VINA RESULT:      -6.4      2.483      6.118
REMARK  Name = 
REMARK  5 active torsions:
REMARK  status: ('A' for Active; 'I' for Inactive)
REMARK    1  A    between atoms: C_1  and  N_2
REMARK    2  A    between atoms: C_6  and  N_7
REMARK    3  A    between atoms: N_7  and  S_8
REMARK    4  A    between atoms: S_8  and  C_11
REMARK    5  A    between atoms: C_11  and  C_12
REMARK                            x       y       z     vdW  Elec       q    Type
REMARK                         _______ _______ _______ _____ _____    ______ ____
ROOT
ATOM      1  N   UNL     1       4.734   5.197  16.161  0.00  0.00    +0.000 NA
ATOM      2  H   UNL     1       3.800   5.007  15.793  0.00  0.00    +0.000 HD
ENDROOT
BRANCH   1   8
ATOM      3  C   UNL     1       8.089   5.518  12.981  0.00  0.00    +0.000 C 
ATOM      4  N   UNL     1       7.129   4.866  13.839  0.00  0.00    +0.000 N 
ATOM      5  C   UNL     1       6.331   3.843  13.435  0.00  0.00    +0.000 C 
ATOM      6  O   UNL     1       6.313   3.325  12.328  0.00  0.00    +0.000 OA
ATOM      7  C   UNL     1       5.466   3.407  14.571  0.00  0.00    +0.000 C 
ATOM      8  C   UNL     1       5.837   4.327  15.720  0.00  0.00    +0.000 C 
ATOM      9  C   UNL     1       6.978   5.157  15.163  0.00  0.00    +0.000 C 
ATOM     10  O   UNL     1       7.639   5.965  15.803  0.00  0.00    +0.000 OA
ENDBRANCH   1   8
BRANCH   1  11
ATOM     11  S   UNL     1       4.677   5.821  17.709  0.00  0.00    +0.000 S 
ATOM     12  O   UNL     1       5.329   4.831  18.534  0.00  0.00    +0.000 OA
ATOM     13  O   UNL     1       5.167   7.176  17.644  0.00  0.00    +0.000 OA
BRANCH  11  14
ATOM     14  C   UNL     1       2.926   5.860  18.093  0.00  0.00    +0.000 C 
BRANCH  14  15
ATOM     15  C   UNL     1       2.514   4.610  18.863  0.00  0.00    +0.000 C 
ATOM     16  C   UNL     1       1.799   4.916  20.175  0.00  0.00    +0.000 C 
ATOM     17  C   UNL     1       1.156   3.584  20.544  0.00  0.00    +0.000 C 
ATOM     18  C   UNL     1       0.872   2.875  19.220  0.00  0.00    +0.000 C 
ATOM     19  C   UNL     1       1.498   3.737  18.131  0.00  0.00    +0.000 C 
ENDBRANCH  14  15
ENDBRANCH  11  14
ENDBRANCH   1  11
TORSDOF 4
ENDMDL
MODEL 8
REMARK VINA RESULT:      -6.4      1.930      2.321
REMARK  Name = 
REMARK  5 active torsions:
REMARK  status: ('A' for Active; 'I' for Inactive)
REMARK    1  A    between atoms: C_1  and  N_2
REMARK    2  A    between atoms: C_6  and  N_7
REMARK    3  A    between atoms: N_7  and  S_8
REMARK    4  A    between atoms: S_8  and  C_11
REMARK    5  A    between atoms: C_11  and  C_12
REMARK                            x       y       z     vdW  Elec       q    Type
REMARK                         _______ _______ _______ _____ _____    ______ ____
ROOT
ATOM      1  N   UNL     1       4.036   5.547  17.295  0.00  0.00    +0.000 NA
ATOM      2  H   UNL     1       3.190   5.818  16.788  0.00  0.00    +0.000 HD
ENDROOT
BRANCH   1   8
ATOM      3  C   UNL     1       2.973   2.674  20.771  0.00  0.00    +0.000 C 
ATOM      4  N   UNL     1       3.126   3.937  20.090  0.00  0.00    +0.000 N 
ATOM      5  C   UNL     1       2.204   4.934  20.138  0.00  0.00    +0.000 C 
ATOM      6  O   UNL     1       1.147   4.922  20.753  0.00  0.00    +0.000 OA
ATOM      7  C   UNL     1       2.682   6.094  19.329  0.00  0.00    +0.000 C 
ATOM      8  C   UNL     1       4.020   5.651  18.764  0.00  0.00    +0.000 C 
ATOM      9  C   UNL     1       4.245   4.290  19.394  0.00  0.00    +0.000 C 
ATOM     10  O   UNL     1       5.263   3.620  19.278  0.00  0.00    +0.000 OA
ENDBRANCH   1   8
BRANCH   1  11
ATOM     11  S   UNL     1       5.418   5.860  16.411  0.00  0.00    +0.000 S 
ATOM     12  O   UNL     1       5.032   6.881  15.466  0.00  0.00    +0.000 OA
ATOM     13  O   UNL     1       6.488   6.082  17.352  0.00  0.00    +0.000 OA
BRANCH  11  14
ATOM     14  C   UNL     1       5.727   4.324  15.539  0.00  0.00    +0.000 C 
BRANCH  14  15
ATOM     15  C   UNL     1       6.030   4.589  14.068  0.00  0.00    +0.000 C 
ATOM     16  C   UNL     1       7.457   5.063  13.820  0.00  0.00    +0.000 C 
ATOM     17  C   UNL     1       7.633   4.877  12.318  0.00  0.00    +0.000 C 
ATOM     18  C   UNL     1       6.729   3.707  11.932  0.00  0.00    +0.000 C 
ATOM     19  C   UNL     1       5.936   3.349  13.183  0.00  0.00    +0.000 C 
ENDBRANCH  14  15
ENDBRANCH  11  14
ENDBRANCH   1  11
TORSDOF 4
ENDMDL
MODEL 9
REMARK VINA RESULT:      -6.4      2.598      5.788
REMARK  Name = 
REMARK  5 active torsions:
REMARK  status: ('A' for Active; 'I' for Inactive)
REMARK    1  A    between atoms: C_1  and  N_2
REMARK    2  A    between atoms: C_6  and  N_7
REMARK    3  A    between atoms: N_7  and  S_8
REMARK    4  A    between atoms: S_8  and  C_11
REMARK    5  A    between atoms: C_11  and  C_12
REMARK                            x       y       z     vdW  Elec       q    Type
REMARK                         _______ _______ _______ _____ _____    ______ ____
ROOT
ATOM      1  N   UNL     1       4.062   6.834  17.596  0.00  0.00    +0.000 NA
ATOM      2  H   UNL     1       4.275   7.722  17.136  0.00  0.00    +0.000 HD
ENDROOT
BRANCH   1   8
ATOM      3  C   UNL     1       8.017   4.429  17.805  0.00  0.00    +0.000 C 
ATOM      4  N   UNL     1       6.798   4.934  17.221  0.00  0.00    +0.000 N 
ATOM      5  C   UNL     1       6.708   5.390  15.944  0.00  0.00    +0.000 C 
ATOM      6  O   UNL     1       7.607   5.428  15.117  0.00  0.00    +0.000 OA
ATOM      7  C   UNL     1       5.308   5.831  15.670  0.00  0.00    +0.000 C 
ATOM      8  C   UNL     1       4.563   5.598  16.972  0.00  0.00    +0.000 C 
ATOM      9  C   UNL     1       5.595   4.934  17.864  0.00  0.00    +0.000 C 
ATOM     10  O   UNL     1       5.376   4.488  18.983  0.00  0.00    +0.000 OA
ENDBRANCH   1   8
BRANCH   1  11
ATOM     11  S   UNL     1       2.592   6.881  18.388  0.00  0.00    +0.000 S 
ATOM     12  O   UNL     1       2.925   6.846  19.792  0.00  0.00    +0.000 OA
ATOM     13  O   UNL     1       1.838   7.976  17.827  0.00  0.00    +0.000 OA
BRANCH  11  14
ATOM     14  C   UNL     1       1.803   5.341  17.920  0.00  0.00    +0.000 C 
BRANCH  14  15
ATOM     15  C   UNL     1       2.049   4.266  18.974  0.00  0.00    +0.000 C 
ATOM     16  C   UNL     1       0.939   4.175  20.015  0.00  0.00    +0.000 C 
ATOM     17  C   UNL     1       1.195   2.831  20.685  0.00  0.00    +0.000 C 
ATOM     18  C   UNL     1       1.843   1.949  19.619  0.00  0.00    +0.000 C 
ATOM     19  C   UNL     1       2.092   2.847  18.414  0.00  0.00    +0.000 C 
ENDBRANCH  14  15
ENDBRANCH  11  14
ENDBRANCH   1  11
TORSDOF 4
ENDMDL
