MODEL 1
REMARK VINA RESULT:      -7.6      0.000      0.000
REMARK  Name = 
REMARK  10 active torsions:
REMARK  status: ('A' for Active; 'I' for Inactive)
REMARK    1  A    between atoms: C_1  and  C_2
REMARK    2  A    between atoms: C_2  and  O_3
REMARK    3  A    between atoms: O_3  and  C_4
REMARK    4  A    between atoms: C_4  and  C_6
REMARK    5  A    between atoms: C_7  and  C_8
REMARK    6  A    between atoms: N_10  and  C_11
REMARK    7  A    between atoms: C_14  and  C_15
REMARK    8  A    between atoms: C_17  and  C_18
REMARK    9  A    between atoms: C_19  and  C_20
REMARK   10  A    between atoms: C_23  and  N_24
REMARK                            x       y       z     vdW  Elec       q    Type
REMARK                         _______ _______ _______ _____ _____    ______ ____
ROOT
ATOM      1  C   UNL     1       4.830   5.620  16.697  0.00  0.00    +0.000 A 
ATOM      2  C   UNL     1       5.086   4.248  16.462  0.00  0.00    +0.000 A 
ATOM      3  C   UNL     1       5.980   3.585  15.470  0.00  0.00    +0.000 C 
ATOM      4  N   UNL     1       4.341   3.469  17.234  0.00  0.00    +0.000 NA
ATOM      5  N   UNL     1       3.653   4.291  18.060  0.00  0.00    +0.000 N 
ATOM      6  C   UNL     1       3.837   5.644  17.686  0.00  0.00    +0.000 A 
ENDROOT
BRANCH   5   7
ATOM      7  C   UNL     1       2.927   3.709  19.162  0.00  0.00    +0.000 A 
ATOM      8  C   UNL     1       3.622   3.347  20.327  0.00  0.00    +0.000 A 
ATOM      9  C   UNL     1       2.964   2.833  21.448  0.00  0.00    +0.000 A 
ATOM     10  C   UNL     1       1.597   2.592  21.406  0.00  0.00    +0.000 A 
ATOM     11  C   UNL     1       0.900   1.945  22.564  0.00  0.00    +0.000 C 
ATOM     12  C   UNL     1       0.894   2.894  20.234  0.00  0.00    +0.000 A 
ATOM     13  C   UNL     1       1.532   3.453  19.104  0.00  0.00    +0.000 A 
ATOM     14  C   UNL     1       0.651   3.759  17.916  0.00  0.00    +0.000 C 
ENDBRANCH   5   7
BRANCH   6  15
ATOM     15  C   UNL     1       3.104   6.797  18.261  0.00  0.00    +0.000 A 
ATOM     16  C   UNL     1       2.672   6.776  19.597  0.00  0.00    +0.000 A 
ATOM     17  C   UNL     1       1.876   7.801  20.124  0.00  0.00    +0.000 A 
ATOM     18  C   UNL     1       1.462   8.846  19.293  0.00  0.00    +0.000 A 
ATOM     19  C   UNL     1       1.902   8.907  17.969  0.00  0.00    +0.000 A 
ATOM     20  C   UNL     1       2.759   7.915  17.477  0.00  0.00    +0.000 A 
BRANCH  18  21
ATOM     21  N   UNL     1       0.540   9.866  19.807  0.00  0.00    +0.000 N 
ATOM     22  O   UNL     1       0.895  10.515  20.802  0.00  0.00    +0.000 OA
ATOM     23  O   UNL     1      -0.545  10.006  19.226  0.00  0.00    +0.000 OA
ENDBRANCH  18  21
ENDBRANCH   6  15
BRANCH   1  24
ATOM     24  C   UNL     1       5.408   6.752  15.980  0.00  0.00    +0.000 C 
ATOM     25  O   UNL     1       5.188   6.995  14.806  0.00  0.00    +0.000 OA
BRANCH  24  26
ATOM     26  O   UNL     1       6.246   7.490  16.766  0.00  0.00    +0.000 OA
BRANCH  26  28
ATOM     27  C   UNL     1       8.169   7.736  18.223  0.00  0.00    +0.000 C 
ATOM     28  C   UNL     1       7.339   6.789  17.381  0.00  0.00    +0.000 C 
ENDBRANCH  26  28
ENDBRANCH  24  26
ENDBRANCH   1  24
TORSDOF 6
ENDMDL
MODEL 2
REMARK VINA RESULT:      -7.4      0.389      1.100
REMARK  Name = 
REMARK  10 active torsions:
REMARK  status: ('A' for Active; 'I' for Inactive)
REMARK    1  A    between atoms: C_1  and  C_2
REMARK    2  A    between atoms: C_2  and  O_3
REMARK    3  A    between atoms: O_3  and  C_4
REMARK    4  A    between atoms: C_4  and  C_6
REMARK    5  A    between atoms: C_7  and  C_8
REMARK    6  A    between atoms: N_10  and  C_11
REMARK    7  A    between atoms: C_14  and  C_15
REMARK    8  A    between atoms: C_17  and  C_18
REMARK    9  A    between atoms: C_19  and  C_20
REMARK   10  A    between atoms: C_23  and  N_24
REMARK                            x       y       z     vdW  Elec       q    Type
REMARK                         _______ _______ _______ _____ _____    ______ ____
ROOT
ATOM      1  C   UNL     1       4.818   5.685  16.822  0.00  0.00    +0.000 A 
ATOM      2  C   UNL     1       5.183   4.329  16.647  0.00  0.00    +0.000 A 
ATOM      3  C   UNL     1       6.176   3.703  15.727  0.00  0.00    +0.000 C 
ATOM      4  N   UNL     1       4.452   3.522  17.404  0.00  0.00    +0.000 NA
ATOM      5  N   UNL     1       3.663   4.315  18.164  0.00  0.00    +0.000 N 
ATOM      6  C   UNL     1       3.772   5.667  17.754  0.00  0.00    +0.000 A 
ENDROOT
BRANCH   5   7
ATOM      7  C   UNL     1       2.919   3.716  19.243  0.00  0.00    +0.000 A 
ATOM      8  C   UNL     1       3.588   3.372  20.429  0.00  0.00    +0.000 A 
ATOM      9  C   UNL     1       2.910   2.841  21.530  0.00  0.00    +0.000 A 
ATOM     10  C   UNL     1       1.551   2.565  21.447  0.00  0.00    +0.000 A 
ATOM     11  C   UNL     1       0.836   1.901  22.585  0.00  0.00    +0.000 C 
ATOM     12  C   UNL     1       0.876   2.849  20.254  0.00  0.00    +0.000 A 
ATOM     13  C   UNL     1       1.533   3.424  19.143  0.00  0.00    +0.000 A 
ATOM     14  C   UNL     1       0.681   3.706  17.929  0.00  0.00    +0.000 C 
ENDBRANCH   5   7
BRANCH   6  15
ATOM     15  C   UNL     1       2.928   6.780  18.250  0.00  0.00    +0.000 A 
ATOM     16  C   UNL     1       2.586   7.850  17.406  0.00  0.00    +0.000 A 
ATOM     17  C   UNL     1       1.890   8.967  17.888  0.00  0.00    +0.000 A 
ATOM     18  C   UNL     1       1.569   9.043  19.246  0.00  0.00    +0.000 A 
ATOM     19  C   UNL     1       1.870   7.981  20.100  0.00  0.00    +0.000 A 
ATOM     20  C   UNL     1       2.498   6.837  19.589  0.00  0.00    +0.000 A 
BRANCH  18  21
ATOM     21  N   UNL     1       0.938  10.257  19.779  0.00  0.00    +0.000 N 
ATOM     22  O   UNL     1       0.574  11.121  18.968  0.00  0.00    +0.000 OA
ATOM     23  O   UNL     1       0.821  10.352  21.009  0.00  0.00    +0.000 OA
ENDBRANCH  18  21
ENDBRANCH   6  15
BRANCH   1  24
ATOM     24  C   UNL     1       5.354   6.835  16.099  0.00  0.00    +0.000 C 
ATOM     25  O   UNL     1       5.199   7.017  14.904  0.00  0.00    +0.000 OA
BRANCH  24  26
ATOM     26  O   UNL     1       6.072   7.667  16.909  0.00  0.00    +0.000 OA
BRANCH  26  28
ATOM     27  C   UNL     1       8.157   8.357  17.938  0.00  0.00    +0.000 C 
ATOM     28  C   UNL     1       7.390   7.230  17.278  0.00  0.00    +0.000 C 
ENDBRANCH  26  28
ENDBRANCH  24  26
ENDBRANCH   1  24
TORSDOF 6
ENDMDL
MODEL 3
REMARK VINA RESULT:      -7.3      2.282      5.187
REMARK  Name = 
REMARK  10 active torsions:
REMARK  status: ('A' for Active; 'I' for Inactive)
REMARK    1  A    between atoms: C_1  and  C_2
REMARK    2  A    between atoms: C_2  and  O_3
REMARK    3  A    between atoms: O_3  and  C_4
REMARK    4  A    between atoms: C_4  and  C_6
REMARK    5  A    between atoms: C_7  and  C_8
REMARK    6  A    between atoms: N_10  and  C_11
REMARK    7  A    between atoms: C_14  and  C_15
REMARK    8  A    between atoms: C_17  and  C_18
REMARK    9  A    between atoms: C_19  and  C_20
REMARK   10  A    between atoms: C_23  and  N_24
REMARK                            x       y       z     vdW  Elec       q    Type
REMARK                         _______ _______ _______ _____ _____    ______ ____
ROOT
ATOM      1  C   UNL     1       2.736   3.527  18.470  0.00  0.00    +0.000 A 
ATOM      2  C   UNL     1       3.848   2.691  18.208  0.00  0.00    +0.000 A 
ATOM      3  C   UNL     1       3.922   1.220  17.974  0.00  0.00    +0.000 C 
ATOM      4  N   UNL     1       4.989   3.366  18.245  0.00  0.00    +0.000 NA
ATOM      5  N   UNL     1       4.663   4.665  18.432  0.00  0.00    +0.000 N 
ATOM      6  C   UNL     1       3.277   4.799  18.695  0.00  0.00    +0.000 A 
ENDROOT
BRANCH   5   7
ATOM      7  C   UNL     1       5.695   5.662  18.291  0.00  0.00    +0.000 A 
ATOM      8  C   UNL     1       6.675   5.780  19.290  0.00  0.00    +0.000 A 
ATOM      9  C   UNL     1       7.732   6.687  19.180  0.00  0.00    +0.000 A 
ATOM     10  C   UNL     1       7.796   7.560  18.102  0.00  0.00    +0.000 A 
ATOM     11  C   UNL     1       8.867   8.606  18.028  0.00  0.00    +0.000 C 
ATOM     12  C   UNL     1       6.798   7.496  17.123  0.00  0.00    +0.000 A 
ATOM     13  C   UNL     1       5.743   6.559  17.192  0.00  0.00    +0.000 A 
ATOM     14  C   UNL     1       4.750   6.578  16.054  0.00  0.00    +0.000 C 
ENDBRANCH   5   7
BRANCH   6  15
ATOM     15  C   UNL     1       2.605   6.053  19.112  0.00  0.00    +0.000 A 
ATOM     16  C   UNL     1       2.451   7.117  18.208  0.00  0.00    +0.000 A 
ATOM     17  C   UNL     1       1.926   8.351  18.615  0.00  0.00    +0.000 A 
ATOM     18  C   UNL     1       1.591   8.546  19.958  0.00  0.00    +0.000 A 
ATOM     19  C   UNL     1       1.706   7.495  20.871  0.00  0.00    +0.000 A 
ATOM     20  C   UNL     1       2.160   6.244  20.434  0.00  0.00    +0.000 A 
BRANCH  18  21
ATOM     21  N   UNL     1       1.144   9.868  20.413  0.00  0.00    +0.000 N 
ATOM     22  O   UNL     1       1.176  10.100  21.630  0.00  0.00    +0.000 OA
ATOM     23  O   UNL     1       0.747  10.668  19.555  0.00  0.00    +0.000 OA
ENDBRANCH  18  21
ENDBRANCH   6  15
BRANCH   1  24
ATOM     24  C   UNL     1       1.341   3.113  18.586  0.00  0.00    +0.000 C 
ATOM     25  O   UNL     1       0.462   3.468  17.818  0.00  0.00    +0.000 OA
BRANCH  24  26
ATOM     26  O   UNL     1       1.127   2.308  19.668  0.00  0.00    +0.000 OA
BRANCH  26  28
ATOM     27  C   UNL     1       2.270   2.693  21.771  0.00  0.00    +0.000 C 
ATOM     28  C   UNL     1       1.028   2.957  20.945  0.00  0.00    +0.000 C 
ENDBRANCH  26  28
ENDBRANCH  24  26
ENDBRANCH   1  24
TORSDOF 6
ENDMDL
MODEL 4
REMARK VINA RESULT:      -7.2      2.399      5.665
REMARK  Name = 
REMARK  10 active torsions:
REMARK  status: ('A' for Active; 'I' for Inactive)
REMARK    1  A    between atoms: C_1  and  C_2
REMARK    2  A    between atoms: C_2  and  O_3
REMARK    3  A    between atoms: O_3  and  C_4
REMARK    4  A    between atoms: C_4  and  C_6
REMARK    5  A    between atoms: C_7  and  C_8
REMARK    6  A    between atoms: N_10  and  C_11
REMARK    7  A    between atoms: C_14  and  C_15
REMARK    8  A    between atoms: C_17  and  C_18
REMARK    9  A    between atoms: C_19  and  C_20
REMARK   10  A    between atoms: C_23  and  N_24
REMARK                            x       y       z     vdW  Elec       q    Type
REMARK                         _______ _______ _______ _____ _____    ______ ____
ROOT
ATOM      1  C   UNL     1       3.379   3.504  20.367  0.00  0.00    +0.000 A 
ATOM      2  C   UNL     1       4.401   2.526  20.323  0.00  0.00    +0.000 A 
ATOM      3  C   UNL     1       4.632   1.326  21.178  0.00  0.00    +0.000 C 
ATOM      4  N   UNL     1       5.305   2.800  19.392  0.00  0.00    +0.000 NA
ATOM      5  N   UNL     1       4.862   3.897  18.737  0.00  0.00    +0.000 N 
ATOM      6  C   UNL     1       3.725   4.441  19.383  0.00  0.00    +0.000 A 
ENDROOT
BRANCH   5   7
ATOM      7  C   UNL     1       5.535   4.294  17.524  0.00  0.00    +0.000 A 
ATOM      8  C   UNL     1       5.112   3.755  16.298  0.00  0.00    +0.000 A 
ATOM      9  C   UNL     1       5.688   4.145  15.086  0.00  0.00    +0.000 A 
ATOM     10  C   UNL     1       6.759   5.028  15.072  0.00  0.00    +0.000 A 
ATOM     11  C   UNL     1       7.450   5.373  13.787  0.00  0.00    +0.000 C 
ATOM     12  C   UNL     1       7.232   5.534  16.289  0.00  0.00    +0.000 A 
ATOM     13  C   UNL     1       6.639   5.186  17.523  0.00  0.00    +0.000 A 
ATOM     14  C   UNL     1       7.228   5.826  18.758  0.00  0.00    +0.000 C 
ENDBRANCH   5   7
BRANCH   6  15
ATOM     15  C   UNL     1       3.082   5.731  19.039  0.00  0.00    +0.000 A 
ATOM     16  C   UNL     1       3.223   6.281  17.754  0.00  0.00    +0.000 A 
ATOM     17  C   UNL     1       2.725   7.554  17.446  0.00  0.00    +0.000 A 
ATOM     18  C   UNL     1       2.115   8.315  18.447  0.00  0.00    +0.000 A 
ATOM     19  C   UNL     1       1.936   7.781  19.725  0.00  0.00    +0.000 A 
ATOM     20  C   UNL     1       2.371   6.478  19.998  0.00  0.00    +0.000 A 
BRANCH  18  21
ATOM     21  N   UNL     1       1.689   9.690  18.160  0.00  0.00    +0.000 N 
ATOM     22  O   UNL     1       0.514   9.994  18.413  0.00  0.00    +0.000 OA
ATOM     23  O   UNL     1       2.525  10.461  17.668  0.00  0.00    +0.000 OA
ENDBRANCH  18  21
ENDBRANCH   6  15
BRANCH   1  24
ATOM     24  C   UNL     1       2.268   3.566  21.312  0.00  0.00    +0.000 C 
ATOM     25  O   UNL     1       2.409   3.639  22.520  0.00  0.00    +0.000 OA
BRANCH  24  26
ATOM     26  O   UNL     1       1.055   3.504  20.689  0.00  0.00    +0.000 OA
BRANCH  26  28
ATOM     27  C   UNL     1       0.765   2.775  18.394  0.00  0.00    +0.000 C 
ATOM     28  C   UNL     1       0.817   2.362  19.851  0.00  0.00    +0.000 C 
ENDBRANCH  26  28
ENDBRANCH  24  26
ENDBRANCH   1  24
TORSDOF 6
ENDMDL
MODEL 5
REMARK VINA RESULT:      -7.1      2.259      5.129
REMARK  Name = 
REMARK  10 active torsions:
REMARK  status: ('A' for Active; 'I' for Inactive)
REMARK    1  A    between atoms: C_1  and  C_2
REMARK    2  A    between atoms: C_2  and  O_3
REMARK    3  A    between atoms: O_3  and  C_4
REMARK    4  A    between atoms: C_4  and  C_6
REMARK    5  A    between atoms: C_7  and  C_8
REMARK    6  A    between atoms: N_10  and  C_11
REMARK    7  A    between atoms: C_14  and  C_15
REMARK    8  A    between atoms: C_17  and  C_18
REMARK    9  A    between atoms: C_19  and  C_20
REMARK   10  A    between atoms: C_23  and  N_24
REMARK                            x       y       z     vdW  Elec       q    Type
REMARK                         _______ _______ _______ _____ _____    ______ ____
ROOT
ATOM      1  C   UNL     1       2.620   3.827  18.585  0.00  0.00    +0.000 A 
ATOM      2  C   UNL     1       3.683   2.933  18.314  0.00  0.00    +0.000 A 
ATOM      3  C   UNL     1       3.682   1.456  18.114  0.00  0.00    +0.000 C 
ATOM      4  N   UNL     1       4.856   3.554  18.306  0.00  0.00    +0.000 NA
ATOM      5  N   UNL     1       4.596   4.871  18.470  0.00  0.00    +0.000 N 
ATOM      6  C   UNL     1       3.226   5.077  18.765  0.00  0.00    +0.000 A 
ENDROOT
BRANCH   5   7
ATOM      7  C   UNL     1       5.671   5.814  18.278  0.00  0.00    +0.000 A 
ATOM      8  C   UNL     1       6.682   5.907  19.249  0.00  0.00    +0.000 A 
ATOM      9  C   UNL     1       7.777   6.761  19.091  0.00  0.00    +0.000 A 
ATOM     10  C   UNL     1       7.853   7.605  17.991  0.00  0.00    +0.000 A 
ATOM     11  C   UNL     1       8.969   8.596  17.864  0.00  0.00    +0.000 C 
ATOM     12  C   UNL     1       6.827   7.566  17.039  0.00  0.00    +0.000 A 
ATOM     13  C   UNL     1       5.731   6.683  17.157  0.00  0.00    +0.000 A 
ATOM     14  C   UNL     1       4.710   6.722  16.045  0.00  0.00    +0.000 C 
ENDBRANCH   5   7
BRANCH   6  15
ATOM     15  C   UNL     1       2.625   6.370  19.169  0.00  0.00    +0.000 A 
ATOM     16  C   UNL     1       2.158   6.564  20.479  0.00  0.00    +0.000 A 
ATOM     17  C   UNL     1       1.480   7.734  20.847  0.00  0.00    +0.000 A 
ATOM     18  C   UNL     1       1.220   8.711  19.881  0.00  0.00    +0.000 A 
ATOM     19  C   UNL     1       1.700   8.557  18.579  0.00  0.00    +0.000 A 
ATOM     20  C   UNL     1       2.442   7.417  18.244  0.00  0.00    +0.000 A 
BRANCH  18  21
ATOM     21  N   UNL     1       0.417   9.888  20.233  0.00  0.00    +0.000 N 
ATOM     22  O   UNL     1       0.360  10.814  19.411  0.00  0.00    +0.000 OA
ATOM     23  O   UNL     1      -0.145   9.892  21.337  0.00  0.00    +0.000 OA
ENDBRANCH  18  21
ENDBRANCH   6  15
BRANCH   1  24
ATOM     24  C   UNL     1       1.210   3.484  18.746  0.00  0.00    +0.000 C 
ATOM     25  O   UNL     1       0.489   3.132  17.829  0.00  0.00    +0.000 OA
BRANCH  24  26
ATOM     26  O   UNL     1       0.786   3.630  20.036  0.00  0.00    +0.000 OA
BRANCH  26  28
ATOM     27  C   UNL     1       2.244   3.167  21.917  0.00  0.00    +0.000 C 
ATOM     28  C   UNL     1       1.196   2.619  20.969  0.00  0.00    +0.000 C 
ENDBRANCH  26  28
ENDBRANCH  24  26
ENDBRANCH   1  24
TORSDOF 6
ENDMDL
MODEL 6
REMARK VINA RESULT:      -7.0      0.455      1.342
REMARK  Name = 
REMARK  10 active torsions:
REMARK  status: ('A' for Active; 'I' for Inactive)
REMARK    1  A    between atoms: C_1  and  C_2
REMARK    2  A    between atoms: C_2  and  O_3
REMARK    3  A    between atoms: O_3  and  C_4
REMARK    4  A    between atoms: C_4  and  C_6
REMARK    5  A    between atoms: C_7  and  C_8
REMARK    6  A    between atoms: N_10  and  C_11
REMARK    7  A    between atoms: C_14  and  C_15
REMARK    8  A    between atoms: C_17  and  C_18
REMARK    9  A    between atoms: C_19  and  C_20
REMARK   10  A    between atoms: C_23  and  N_24
REMARK                            x       y       z     vdW  Elec       q    Type
REMARK                         _______ _______ _______ _____ _____    ______ ____
ROOT
ATOM      1  C   UNL     1       4.725   5.598  16.687  0.00  0.00    +0.000 A 
ATOM      2  C   UNL     1       4.958   4.223  16.444  0.00  0.00    +0.000 A 
ATOM      3  C   UNL     1       5.806   3.549  15.419  0.00  0.00    +0.000 C 
ATOM      4  N   UNL     1       4.236   3.453  17.247  0.00  0.00    +0.000 NA
ATOM      5  N   UNL     1       3.590   4.283  18.098  0.00  0.00    +0.000 N 
ATOM      6  C   UNL     1       3.772   5.634  17.713  0.00  0.00    +0.000 A 
ENDROOT
BRANCH   5   7
ATOM      7  C   UNL     1       2.902   3.711  19.228  0.00  0.00    +0.000 A 
ATOM      8  C   UNL     1       1.521   3.925  19.371  0.00  0.00    +0.000 A 
ATOM      9  C   UNL     1       0.790   3.349  20.413  0.00  0.00    +0.000 A 
ATOM     10  C   UNL     1       1.435   2.603  21.391  0.00  0.00    +0.000 A 
ATOM     11  C   UNL     1       0.678   2.068  22.568  0.00  0.00    +0.000 C 
ATOM     12  C   UNL     1       2.821   2.423  21.298  0.00  0.00    +0.000 A 
ATOM     13  C   UNL     1       3.573   2.962  20.230  0.00  0.00    +0.000 A 
ATOM     14  C   UNL     1       5.054   2.668  20.235  0.00  0.00    +0.000 C 
ENDBRANCH   5   7
BRANCH   6  15
ATOM     15  C   UNL     1       3.074   6.795  18.314  0.00  0.00    +0.000 A 
ATOM     16  C   UNL     1       2.695   6.781  19.667  0.00  0.00    +0.000 A 
ATOM     17  C   UNL     1       1.931   7.815  20.223  0.00  0.00    +0.000 A 
ATOM     18  C   UNL     1       1.494   8.862  19.406  0.00  0.00    +0.000 A 
ATOM     19  C   UNL     1       1.881   8.916  18.065  0.00  0.00    +0.000 A 
ATOM     20  C   UNL     1       2.708   7.914  17.542  0.00  0.00    +0.000 A 
BRANCH  18  21
ATOM     21  N   UNL     1       0.603   9.892  19.954  0.00  0.00    +0.000 N 
ATOM     22  O   UNL     1       0.925  10.421  21.028  0.00  0.00    +0.000 OA
ATOM     23  O   UNL     1      -0.426  10.160  19.319  0.00  0.00    +0.000 OA
ENDBRANCH  18  21
ENDBRANCH   6  15
BRANCH   1  24
ATOM     24  C   UNL     1       5.286   6.723  15.945  0.00  0.00    +0.000 C 
ATOM     25  O   UNL     1       4.939   7.033  14.818  0.00  0.00    +0.000 OA
BRANCH  24  26
ATOM     26  O   UNL     1       6.263   7.370  16.645  0.00  0.00    +0.000 OA
BRANCH  26  28
ATOM     27  C   UNL     1       7.745   6.711  18.448  0.00  0.00    +0.000 C 
ATOM     28  C   UNL     1       7.437   6.609  16.969  0.00  0.00    +0.000 C 
ENDBRANCH  26  28
ENDBRANCH  24  26
ENDBRANCH   1  24
TORSDOF 6
ENDMDL
MODEL 7
REMARK VINA RESULT:      -6.9      3.258      6.598
REMARK  Name = 
REMARK  10 active torsions:
REMARK  status: ('A' for Active; 'I' for Inactive)
REMARK    1  A    between atoms: C_1  and  C_2
REMARK    2  A    between atoms: C_2  and  O_3
REMARK    3  A    between atoms: O_3  and  C_4
REMARK    4  A    between atoms: C_4  and  C_6
REMARK    5  A    between atoms: C_7  and  C_8
REMARK    6  A    between atoms: N_10  and  C_11
REMARK    7  A    between atoms: C_14  and  C_15
REMARK    8  A    between atoms: C_17  and  C_18
REMARK    9  A    between atoms: C_19  and  C_20
REMARK   10  A    between atoms: C_23  and  N_24
REMARK                            x       y       z     vdW  Elec       q    Type
REMARK                         _______ _______ _______ _____ _____    ______ ____
ROOT
ATOM      1  C   UNL     1       3.389   3.291  19.882  0.00  0.00    +0.000 A 
ATOM      2  C   UNL     1       2.340   3.578  20.788  0.00  0.00    +0.000 A 
ATOM      3  C   UNL     1       1.739   2.747  21.871  0.00  0.00    +0.000 C 
ATOM      4  N   UNL     1       1.799   4.766  20.554  0.00  0.00    +0.000 NA
ATOM      5  N   UNL     1       2.529   5.333  19.566  0.00  0.00    +0.000 N 
ATOM      6  C   UNL     1       3.458   4.405  19.035  0.00  0.00    +0.000 A 
ENDROOT
BRANCH   5   7
ATOM      7  C   UNL     1       2.306   6.724  19.256  0.00  0.00    +0.000 A 
ATOM      8  C   UNL     1       2.763   7.235  18.031  0.00  0.00    +0.000 A 
ATOM      9  C   UNL     1       2.526   8.559  17.651  0.00  0.00    +0.000 A 
ATOM     10  C   UNL     1       1.892   9.434  18.523  0.00  0.00    +0.000 A 
ATOM     11  C   UNL     1       1.725  10.880  18.168  0.00  0.00    +0.000 C 
ATOM     12  C   UNL     1       1.477   8.958  19.773  0.00  0.00    +0.000 A 
ATOM     13  C   UNL     1       1.669   7.613  20.161  0.00  0.00    +0.000 A 
ATOM     14  C   UNL     1       1.148   7.225  21.524  0.00  0.00    +0.000 C 
ENDBRANCH   5   7
BRANCH   6  15
ATOM     15  C   UNL     1       4.299   4.629  17.835  0.00  0.00    +0.000 A 
ATOM     16  C   UNL     1       3.949   4.059  16.600  0.00  0.00    +0.000 A 
ATOM     17  C   UNL     1       4.791   4.161  15.484  0.00  0.00    +0.000 A 
ATOM     18  C   UNL     1       6.027   4.800  15.612  0.00  0.00    +0.000 A 
ATOM     19  C   UNL     1       6.386   5.401  16.820  0.00  0.00    +0.000 A 
ATOM     20  C   UNL     1       5.501   5.358  17.905  0.00  0.00    +0.000 A 
BRANCH  18  21
ATOM     21  N   UNL     1       6.961   4.815  14.479  0.00  0.00    +0.000 N 
ATOM     22  O   UNL     1       6.724   4.059  13.527  0.00  0.00    +0.000 OA
ATOM     23  O   UNL     1       7.939   5.573  14.550  0.00  0.00    +0.000 OA
ENDBRANCH  18  21
ENDBRANCH   6  15
BRANCH   1  24
ATOM     24  C   UNL     1       4.153   2.050  19.795  0.00  0.00    +0.000 C 
ATOM     25  O   UNL     1       4.103   1.287  18.846  0.00  0.00    +0.000 OA
BRANCH  24  26
ATOM     26  O   UNL     1       4.907   1.828  20.912  0.00  0.00    +0.000 OA
BRANCH  26  28
ATOM     27  C   UNL     1       6.203   0.391  22.373  0.00  0.00    +0.000 C 
ATOM     28  C   UNL     1       5.524   0.536  21.027  0.00  0.00    +0.000 C 
ENDBRANCH  26  28
ENDBRANCH  24  26
ENDBRANCH   1  24
TORSDOF 6
ENDMDL
MODEL 8
REMARK VINA RESULT:      -6.8      2.171      5.274
REMARK  Name = 
REMARK  10 active torsions:
REMARK  status: ('A' for Active; 'I' for Inactive)
REMARK    1  A    between atoms: C_1  and  C_2
REMARK    2  A    between atoms: C_2  and  O_3
REMARK    3  A    between atoms: O_3  and  C_4
REMARK    4  A    between atoms: C_4  and  C_6
REMARK    5  A    between atoms: C_7  and  C_8
REMARK    6  A    between atoms: N_10  and  C_11
REMARK    7  A    between atoms: C_14  and  C_15
REMARK    8  A    between atoms: C_17  and  C_18
REMARK    9  A    between atoms: C_19  and  C_20
REMARK   10  A    between atoms: C_23  and  N_24
REMARK                            x       y       z     vdW  Elec       q    Type
REMARK                         _______ _______ _______ _____ _____    ______ ____
ROOT
ATOM      1  C   UNL     1       2.946   4.132  18.092  0.00  0.00    +0.000 A 
ATOM      2  C   UNL     1       4.059   3.283  17.885  0.00  0.00    +0.000 A 
ATOM      3  C   UNL     1       4.128   1.812  17.652  0.00  0.00    +0.000 C 
ATOM      4  N   UNL     1       5.205   3.944  17.983  0.00  0.00    +0.000 NA
ATOM      5  N   UNL     1       4.885   5.247  18.156  0.00  0.00    +0.000 N 
ATOM      6  C   UNL     1       3.490   5.397  18.347  0.00  0.00    +0.000 A 
ENDROOT
BRANCH   5   7
ATOM      7  C   UNL     1       5.936   6.231  18.071  0.00  0.00    +0.000 A 
ATOM      8  C   UNL     1       5.800   7.303  17.174  0.00  0.00    +0.000 A 
ATOM      9  C   UNL     1       6.757   8.318  17.089  0.00  0.00    +0.000 A 
ATOM     10  C   UNL     1       7.919   8.248  17.845  0.00  0.00    +0.000 A 
ATOM     11  C   UNL     1       8.998   9.276  17.685  0.00  0.00    +0.000 C 
ATOM     12  C   UNL     1       8.100   7.158  18.705  0.00  0.00    +0.000 A 
ATOM     13  C   UNL     1       7.127   6.142  18.838  0.00  0.00    +0.000 A 
ATOM     14  C   UNL     1       7.434   5.040  19.823  0.00  0.00    +0.000 C 
ENDBRANCH   5   7
BRANCH   6  15
ATOM     15  C   UNL     1       2.812   6.658  18.732  0.00  0.00    +0.000 A 
ATOM     16  C   UNL     1       2.372   6.861  20.050  0.00  0.00    +0.000 A 
ATOM     17  C   UNL     1       1.625   7.992  20.406  0.00  0.00    +0.000 A 
ATOM     18  C   UNL     1       1.268   8.917  19.420  0.00  0.00    +0.000 A 
ATOM     19  C   UNL     1       1.718   8.755  18.108  0.00  0.00    +0.000 A 
ATOM     20  C   UNL     1       2.527   7.659  17.783  0.00  0.00    +0.000 A 
BRANCH  18  21
ATOM     21  N   UNL     1       0.395  10.046  19.763  0.00  0.00    +0.000 N 
ATOM     22  O   UNL     1      -0.202  10.006  20.848  0.00  0.00    +0.000 OA
ATOM     23  O   UNL     1       0.295  10.967  18.939  0.00  0.00    +0.000 OA
ENDBRANCH  18  21
ENDBRANCH   6  15
BRANCH   1  24
ATOM     24  C   UNL     1       1.541   3.735  18.134  0.00  0.00    +0.000 C 
ATOM     25  O   UNL     1       0.713   4.086  17.312  0.00  0.00    +0.000 OA
BRANCH  24  26
ATOM     26  O   UNL     1       1.257   2.951  19.215  0.00  0.00    +0.000 OA
BRANCH  26  28
ATOM     27  C   UNL     1       1.904   3.145  21.544  0.00  0.00    +0.000 C 
ATOM     28  C   UNL     1       0.976   3.631  20.449  0.00  0.00    +0.000 C 
ENDBRANCH  26  28
ENDBRANCH  24  26
ENDBRANCH   1  24
TORSDOF 6
ENDMDL
MODEL 9
REMARK VINA RESULT:      -6.7      3.391      6.616
REMARK  Name = 
REMARK  10 active torsions:
REMARK  status: ('A' for Active; 'I' for Inactive)
REMARK    1  A    between atoms: C_1  and  C_2
REMARK    2  A    between atoms: C_2  and  O_3
REMARK    3  A    between atoms: O_3  and  C_4
REMARK    4  A    between atoms: C_4  and  C_6
REMARK    5  A    between atoms: C_7  and  C_8
REMARK    6  A    between atoms: N_10  and  C_11
REMARK    7  A    between atoms: C_14  and  C_15
REMARK    8  A    between atoms: C_17  and  C_18
REMARK    9  A    between atoms: C_19  and  C_20
REMARK   10  A    between atoms: C_23  and  N_24
REMARK                            x       y       z     vdW  Elec       q    Type
REMARK                         _______ _______ _______ _____ _____    ______ ____
ROOT
ATOM      1  C   UNL     1       3.706   2.925  20.049  0.00  0.00    +0.000 A 
ATOM      2  C   UNL     1       2.611   3.267  20.878  0.00  0.00    +0.000 A 
ATOM      3  C   UNL     1       1.958   2.510  21.984  0.00  0.00    +0.000 C 
ATOM      4  N   UNL     1       2.080   4.434  20.534  0.00  0.00    +0.000 NA
ATOM      5  N   UNL     1       2.858   4.935  19.548  0.00  0.00    +0.000 N 
ATOM      6  C   UNL     1       3.816   3.978  19.131  0.00  0.00    +0.000 A 
ENDROOT
BRANCH   5   7
ATOM      7  C   UNL     1       2.648   6.300  19.132  0.00  0.00    +0.000 A 
ATOM      8  C   UNL     1       3.184   6.734  17.909  0.00  0.00    +0.000 A 
ATOM      9  C   UNL     1       2.965   8.027  17.426  0.00  0.00    +0.000 A 
ATOM     10  C   UNL     1       2.266   8.950  18.193  0.00  0.00    +0.000 A 
ATOM     11  C   UNL     1       2.114  10.368  17.731  0.00  0.00    +0.000 C 
ATOM     12  C   UNL     1       1.770   8.554  19.441  0.00  0.00    +0.000 A 
ATOM     13  C   UNL     1       1.945   7.240  19.930  0.00  0.00    +0.000 A 
ATOM     14  C   UNL     1       1.334   6.937  21.278  0.00  0.00    +0.000 C 
ENDBRANCH   5   7
BRANCH   6  15
ATOM     15  C   UNL     1       4.717   4.125  17.963  0.00  0.00    +0.000 A 
ATOM     16  C   UNL     1       5.938   4.809  18.082  0.00  0.00    +0.000 A 
ATOM     17  C   UNL     1       6.746   5.061  16.966  0.00  0.00    +0.000 A 
ATOM     18  C   UNL     1       6.309   4.665  15.698  0.00  0.00    +0.000 A 
ATOM     19  C   UNL     1       5.115   3.957  15.556  0.00  0.00    +0.000 A 
ATOM     20  C   UNL     1       4.354   3.646  16.690  0.00  0.00    +0.000 A 
BRANCH  18  21
ATOM     21  N   UNL     1       7.097   5.021  14.512  0.00  0.00    +0.000 N 
ATOM     22  O   UNL     1       8.107   5.720  14.679  0.00  0.00    +0.000 OA
ATOM     23  O   UNL     1       6.697   4.614  13.412  0.00  0.00    +0.000 OA
ENDBRANCH  18  21
ENDBRANCH   6  15
BRANCH   1  24
ATOM     24  C   UNL     1       4.478   1.687  20.088  0.00  0.00    +0.000 C 
ATOM     25  O   UNL     1       4.365   0.792  19.268  0.00  0.00    +0.000 OA
BRANCH  24  26
ATOM     26  O   UNL     1       5.318   1.633  21.163  0.00  0.00    +0.000 OA
BRANCH  26  28
ATOM     27  C   UNL     1       6.566  -0.116  22.286  0.00  0.00    +0.000 C 
ATOM     28  C   UNL     1       5.201   0.484  22.017  0.00  0.00    +0.000 C 
ENDBRANCH  26  28
ENDBRANCH  24  26
ENDBRANCH   1  24
TORSDOF 6
ENDMDL
