MODEL 1
REMARK VINA RESULT:      -8.1      0.000      0.000
REMARK  Name = 
REMARK  3 active torsions:
REMARK  status: ('A' for Active; 'I' for Inactive)
REMARK    1  A    between atoms: C_1  and  C_2
REMARK    2  A    between atoms: C_7  and  C_8
REMARK    3  A    between atoms: N_16  and  C_17
REMARK                            x       y       z     vdW  Elec       q    Type
REMARK                         _______ _______ _______ _____ _____    ______ ____
ROOT
ATOM      1  C   UNL     1       4.809   4.320  16.626  0.00  0.00    +0.000 A 
ATOM      2  C   UNL     1       5.793   5.194  17.096  0.00  0.00    +0.000 A 
ATOM      3  C   UNL     1       6.812   5.679  16.258  0.00  0.00    +0.000 A 
ATOM      4  C   UNL     1       6.959   5.246  14.949  0.00  0.00    +0.000 A 
ATOM      5  N   UNL     1       8.005   5.677  14.238  0.00  0.00    +0.000 NA
ATOM      6  C   UNL     1       8.153   5.148  13.018  0.00  0.00    +0.000 A 
ATOM      7  N   UNL     1       7.357   4.242  12.440  0.00  0.00    +0.000 NA
ATOM      8  C   UNL     1       6.291   3.840  13.155  0.00  0.00    +0.000 A 
ATOM      9  N   UNL     1       5.459   2.803  12.641  0.00  0.00    +0.000 N 
ATOM     10  C   UNL     1       6.025   4.340  14.449  0.00  0.00    +0.000 A 
ATOM     11  C   UNL     1       4.932   3.952  15.271  0.00  0.00    +0.000 A 
ATOM     12  H   UNL     1       4.490   3.093  12.735  0.00  0.00    +0.000 HD
ENDROOT
BRANCH   1  19
ATOM     13  C   UNL     1       2.399   5.874  17.929  0.00  0.00    +0.000 C 
ATOM     14  C   UNL     1       2.647   4.395  18.068  0.00  0.00    +0.000 A 
ATOM     15  C   UNL     1       1.709   3.682  18.850  0.00  0.00    +0.000 A 
ATOM     16  C   UNL     1       1.806   2.306  19.042  0.00  0.00    +0.000 A 
ATOM     17  C   UNL     1       2.861   1.617  18.474  0.00  0.00    +0.000 A 
ATOM     18  C   UNL     1       3.814   2.311  17.728  0.00  0.00    +0.000 A 
ATOM     19  C   UNL     1       3.740   3.708  17.478  0.00  0.00    +0.000 A 
ENDBRANCH   1  19
BRANCH   9  20
ATOM     20  C   UNL     1       5.764   2.189  11.346  0.00  0.00    +0.000 C 
ATOM     21  C   UNL     1       7.103   1.590  11.021  0.00  0.00    +0.000 C 
ATOM     22  C   UNL     1       5.934   0.692  11.298  0.00  0.00    +0.000 C 
ENDBRANCH   9  20
TORSDOF 2
ENDMDL
MODEL 2
REMARK VINA RESULT:      -8.1      3.739      6.448
REMARK  Name = 
REMARK  3 active torsions:
REMARK  status: ('A' for Active; 'I' for Inactive)
REMARK    1  A    between atoms: C_1  and  C_2
REMARK    2  A    between atoms: C_7  and  C_8
REMARK    3  A    between atoms: N_16  and  C_17
REMARK                            x       y       z     vdW  Elec       q    Type
REMARK                         _______ _______ _______ _____ _____    ______ ____
ROOT
ATOM      1  C   UNL     1       2.178   6.745  19.930  0.00  0.00    +0.000 A 
ATOM      2  C   UNL     1       1.469   5.868  20.754  0.00  0.00    +0.000 A 
ATOM      3  C   UNL     1       1.904   4.550  20.978  0.00  0.00    +0.000 A 
ATOM      4  C   UNL     1       3.001   4.014  20.320  0.00  0.00    +0.000 A 
ATOM      5  N   UNL     1       3.303   2.726  20.508  0.00  0.00    +0.000 NA
ATOM      6  C   UNL     1       4.307   2.236  19.771  0.00  0.00    +0.000 A 
ATOM      7  N   UNL     1       5.039   2.908  18.876  0.00  0.00    +0.000 NA
ATOM      8  C   UNL     1       4.745   4.211  18.718  0.00  0.00    +0.000 A 
ATOM      9  N   UNL     1       5.417   4.961  17.710  0.00  0.00    +0.000 N 
ATOM     10  C   UNL     1       3.714   4.840  19.453  0.00  0.00    +0.000 A 
ATOM     11  C   UNL     1       3.334   6.204  19.330  0.00  0.00    +0.000 A 
ATOM     12  H   UNL     1       5.733   5.836  18.117  0.00  0.00    +0.000 HD
ENDROOT
BRANCH   1  19
ATOM     13  C   UNL     1       0.816   8.767  21.925  0.00  0.00    +0.000 C 
ATOM     14  C   UNL     1       1.124   9.058  20.479  0.00  0.00    +0.000 A 
ATOM     15  C   UNL     1       0.759  10.343  20.016  0.00  0.00    +0.000 A 
ATOM     16  C   UNL     1       1.007  10.751  18.708  0.00  0.00    +0.000 A 
ATOM     17  C   UNL     1       1.604   9.870  17.826  0.00  0.00    +0.000 A 
ATOM     18  C   UNL     1       1.938   8.586  18.258  0.00  0.00    +0.000 A 
ATOM     19  C   UNL     1       1.735   8.136  19.590  0.00  0.00    +0.000 A 
ENDBRANCH   1  19
BRANCH   9  20
ATOM     20  C   UNL     1       6.420   4.314  16.860  0.00  0.00    +0.000 C 
ATOM     21  C   UNL     1       6.123   3.830  15.469  0.00  0.00    +0.000 C 
ATOM     22  C   UNL     1       6.931   5.079  15.665  0.00  0.00    +0.000 C 
ENDBRANCH   9  20
TORSDOF 2
ENDMDL
MODEL 3
REMARK VINA RESULT:      -8.0      1.129      1.407
REMARK  Name = 
REMARK  3 active torsions:
REMARK  status: ('A' for Active; 'I' for Inactive)
REMARK    1  A    between atoms: C_1  and  C_2
REMARK    2  A    between atoms: C_7  and  C_8
REMARK    3  A    between atoms: N_16  and  C_17
REMARK                            x       y       z     vdW  Elec       q    Type
REMARK                         _______ _______ _______ _____ _____    ______ ____
ROOT
ATOM      1  C   UNL     1       4.693   4.305  17.005  0.00  0.00    +0.000 A 
ATOM      2  C   UNL     1       5.928   4.764  17.471  0.00  0.00    +0.000 A 
ATOM      3  C   UNL     1       6.963   5.123  16.591  0.00  0.00    +0.000 A 
ATOM      4  C   UNL     1       6.857   4.952  15.219  0.00  0.00    +0.000 A 
ATOM      5  N   UNL     1       7.914   5.226  14.449  0.00  0.00    +0.000 NA
ATOM      6  C   UNL     1       7.790   4.946  13.147  0.00  0.00    +0.000 A 
ATOM      7  N   UNL     1       6.715   4.428  12.542  0.00  0.00    +0.000 NA
ATOM      8  C   UNL     1       5.647   4.185  13.324  0.00  0.00    +0.000 A 
ATOM      9  N   UNL     1       4.506   3.542  12.764  0.00  0.00    +0.000 N 
ATOM     10  C   UNL     1       5.659   4.455  14.710  0.00  0.00    +0.000 A 
ATOM     11  C   UNL     1       4.579   4.211  15.603  0.00  0.00    +0.000 A 
ATOM     12  H   UNL     1       3.677   4.054  13.048  0.00  0.00    +0.000 HD
ENDROOT
BRANCH   1  19
ATOM     13  C   UNL     1       2.480   6.147  18.281  0.00  0.00    +0.000 C 
ATOM     14  C   UNL     1       2.569   4.654  18.463  0.00  0.00    +0.000 A 
ATOM     15  C   UNL     1       1.569   4.070  19.274  0.00  0.00    +0.000 A 
ATOM     16  C   UNL     1       1.519   2.697  19.506  0.00  0.00    +0.000 A 
ATOM     17  C   UNL     1       2.487   1.882  18.950  0.00  0.00    +0.000 A 
ATOM     18  C   UNL     1       3.500   2.448  18.175  0.00  0.00    +0.000 A 
ATOM     19  C   UNL     1       3.574   3.837  17.884  0.00  0.00    +0.000 A 
ENDBRANCH   1  19
BRANCH   9  20
ATOM     20  C   UNL     1       4.500   3.155  11.351  0.00  0.00    +0.000 C 
ATOM     21  C   UNL     1       3.300   2.557  10.672  0.00  0.00    +0.000 C 
ATOM     22  C   UNL     1       3.677   3.983  10.396  0.00  0.00    +0.000 C 
ENDBRANCH   9  20
TORSDOF 2
ENDMDL
MODEL 4
REMARK VINA RESULT:      -7.9      1.274      1.727
REMARK  Name = 
REMARK  3 active torsions:
REMARK  status: ('A' for Active; 'I' for Inactive)
REMARK    1  A    between atoms: C_1  and  C_2
REMARK    2  A    between atoms: C_7  and  C_8
REMARK    3  A    between atoms: N_16  and  C_17
REMARK                            x       y       z     vdW  Elec       q    Type
REMARK                         _______ _______ _______ _____ _____    ______ ____
ROOT
ATOM      1  C   UNL     1       4.120   4.573  17.864  0.00  0.00    +0.000 A 
ATOM      2  C   UNL     1       5.136   5.186  18.601  0.00  0.00    +0.000 A 
ATOM      3  C   UNL     1       6.278   5.723  17.982  0.00  0.00    +0.000 A 
ATOM      4  C   UNL     1       6.510   5.591  16.622  0.00  0.00    +0.000 A 
ATOM      5  N   UNL     1       7.660   6.042  16.114  0.00  0.00    +0.000 NA
ATOM      6  C   UNL     1       7.875   5.797  14.816  0.00  0.00    +0.000 A 
ATOM      7  N   UNL     1       7.052   5.154  13.980  0.00  0.00    +0.000 NA
ATOM      8  C   UNL     1       5.885   4.732  14.496  0.00  0.00    +0.000 A 
ATOM      9  N   UNL     1       5.006   3.953  13.688  0.00  0.00    +0.000 N 
ATOM     10  C   UNL     1       5.544   4.947  15.850  0.00  0.00    +0.000 A 
ATOM     11  C   UNL     1       4.339   4.517  16.472  0.00  0.00    +0.000 A 
ATOM     12  H   UNL     1       4.068   4.330  13.779  0.00  0.00    +0.000 HD
ENDROOT
BRANCH   1  19
ATOM     13  C   UNL     1       2.167   5.897  19.950  0.00  0.00    +0.000 C 
ATOM     14  C   UNL     1       2.023   4.501  19.400  0.00  0.00    +0.000 A 
ATOM     15  C   UNL     1       0.920   3.758  19.879  0.00  0.00    +0.000 A 
ATOM     16  C   UNL     1       0.656   2.464  19.436  0.00  0.00    +0.000 A 
ATOM     17  C   UNL     1       1.509   1.876  18.520  0.00  0.00    +0.000 A 
ATOM     18  C   UNL     1       2.622   2.583  18.065  0.00  0.00    +0.000 A 
ATOM     19  C   UNL     1       2.914   3.916  18.463  0.00  0.00    +0.000 A 
ENDBRANCH   1  19
BRANCH   9  20
ATOM     20  C   UNL     1       5.376   3.623  12.309  0.00  0.00    +0.000 C 
ATOM     21  C   UNL     1       5.379   2.218  11.777  0.00  0.00    +0.000 C 
ATOM     22  C   UNL     1       4.283   3.162  11.378  0.00  0.00    +0.000 C 
ENDBRANCH   9  20
TORSDOF 2
ENDMDL
MODEL 5
REMARK VINA RESULT:      -7.8      1.242      2.230
REMARK  Name = 
REMARK  3 active torsions:
REMARK  status: ('A' for Active; 'I' for Inactive)
REMARK    1  A    between atoms: C_1  and  C_2
REMARK    2  A    between atoms: C_7  and  C_8
REMARK    3  A    between atoms: N_16  and  C_17
REMARK                            x       y       z     vdW  Elec       q    Type
REMARK                         _______ _______ _______ _____ _____    ______ ____
ROOT
ATOM      1  C   UNL     1       4.221   4.522  17.940  0.00  0.00    +0.000 A 
ATOM      2  C   UNL     1       5.239   5.150  18.662  0.00  0.00    +0.000 A 
ATOM      3  C   UNL     1       6.358   5.714  18.024  0.00  0.00    +0.000 A 
ATOM      4  C   UNL     1       6.565   5.596  16.659  0.00  0.00    +0.000 A 
ATOM      5  N   UNL     1       7.697   6.073  16.131  0.00  0.00    +0.000 NA
ATOM      6  C   UNL     1       7.891   5.841  14.828  0.00  0.00    +0.000 A 
ATOM      7  N   UNL     1       7.064   5.188  14.004  0.00  0.00    +0.000 NA
ATOM      8  C   UNL     1       5.915   4.738  14.540  0.00  0.00    +0.000 A 
ATOM      9  N   UNL     1       5.037   3.948  13.744  0.00  0.00    +0.000 N 
ATOM     10  C   UNL     1       5.597   4.938  15.902  0.00  0.00    +0.000 A 
ATOM     11  C   UNL     1       4.414   4.479  16.544  0.00  0.00    +0.000 A 
ATOM     12  H   UNL     1       4.093   4.305  13.855  0.00  0.00    +0.000 HD
ENDROOT
BRANCH   1  19
ATOM     13  C   UNL     1       3.754   1.409  18.027  0.00  0.00    +0.000 C 
ATOM     14  C   UNL     1       2.819   2.437  18.608  0.00  0.00    +0.000 A 
ATOM     15  C   UNL     1       1.653   1.932  19.229  0.00  0.00    +0.000 A 
ATOM     16  C   UNL     1       0.716   2.771  19.826  0.00  0.00    +0.000 A 
ATOM     17  C   UNL     1       0.913   4.139  19.792  0.00  0.00    +0.000 A 
ATOM     18  C   UNL     1       2.041   4.654  19.153  0.00  0.00    +0.000 A 
ATOM     19  C   UNL     1       3.040   3.837  18.558  0.00  0.00    +0.000 A 
ENDBRANCH   1  19
BRANCH   9  20
ATOM     20  C   UNL     1       5.385   3.635  12.356  0.00  0.00    +0.000 C 
ATOM     21  C   UNL     1       5.389   2.235  11.809  0.00  0.00    +0.000 C 
ATOM     22  C   UNL     1       4.281   3.175  11.438  0.00  0.00    +0.000 C 
ENDBRANCH   9  20
TORSDOF 2
ENDMDL
MODEL 6
REMARK VINA RESULT:      -7.8      3.451      6.228
REMARK  Name = 
REMARK  3 active torsions:
REMARK  status: ('A' for Active; 'I' for Inactive)
REMARK    1  A    between atoms: C_1  and  C_2
REMARK    2  A    between atoms: C_7  and  C_8
REMARK    3  A    between atoms: N_16  and  C_17
REMARK                            x       y       z     vdW  Elec       q    Type
REMARK                         _______ _______ _______ _____ _____    ______ ____
ROOT
ATOM      1  C   UNL     1       1.983   6.340  20.063  0.00  0.00    +0.000 A 
ATOM      2  C   UNL     1       1.333   5.355  20.810  0.00  0.00    +0.000 A 
ATOM      3  C   UNL     1       1.640   3.991  20.661  0.00  0.00    +0.000 A 
ATOM      4  C   UNL     1       2.531   3.537  19.701  0.00  0.00    +0.000 A 
ATOM      5  N   UNL     1       2.706   2.220  19.551  0.00  0.00    +0.000 NA
ATOM      6  C   UNL     1       3.497   1.836  18.543  0.00  0.00    +0.000 A 
ATOM      7  N   UNL     1       4.134   2.636  17.680  0.00  0.00    +0.000 NA
ATOM      8  C   UNL     1       3.973   3.959  17.861  0.00  0.00    +0.000 A 
ATOM      9  N   UNL     1       4.540   4.865  16.918  0.00  0.00    +0.000 N 
ATOM     10  C   UNL     1       3.172   4.481  18.901  0.00  0.00    +0.000 A 
ATOM     11  C   UNL     1       2.941   5.862  19.145  0.00  0.00    +0.000 A 
ATOM     12  H   UNL     1       5.025   5.597  17.428  0.00  0.00    +0.000 HD
ENDROOT
BRANCH   1  19
ATOM     13  C   UNL     1       2.093   8.328  17.622  0.00  0.00    +0.000 C 
ATOM     14  C   UNL     1       1.696   8.707  19.026  0.00  0.00    +0.000 A 
ATOM     15  C   UNL     1       1.357  10.065  19.227  0.00  0.00    +0.000 A 
ATOM     16  C   UNL     1       0.951  10.545  20.470  0.00  0.00    +0.000 A 
ATOM     17  C   UNL     1       0.901   9.679  21.546  0.00  0.00    +0.000 A 
ATOM     18  C   UNL     1       1.266   8.344  21.371  0.00  0.00    +0.000 A 
ATOM     19  C   UNL     1       1.655   7.801  20.117  0.00  0.00    +0.000 A 
ENDBRANCH   1  19
BRANCH   9  20
ATOM     20  C   UNL     1       5.292   4.354  15.769  0.00  0.00    +0.000 C 
ATOM     21  C   UNL     1       5.929   5.251  14.745  0.00  0.00    +0.000 C 
ATOM     22  C   UNL     1       6.787   4.553  15.759  0.00  0.00    +0.000 C 
ENDBRANCH   9  20
TORSDOF 2
ENDMDL
MODEL 7
REMARK VINA RESULT:      -7.7      3.802      6.764
REMARK  Name = 
REMARK  3 active torsions:
REMARK  status: ('A' for Active; 'I' for Inactive)
REMARK    1  A    between atoms: C_1  and  C_2
REMARK    2  A    between atoms: C_7  and  C_8
REMARK    3  A    between atoms: N_16  and  C_17
REMARK                            x       y       z     vdW  Elec       q    Type
REMARK                         _______ _______ _______ _____ _____    ______ ____
ROOT
ATOM      1  C   UNL     1       1.918   6.623  20.318  0.00  0.00    +0.000 A 
ATOM      2  C   UNL     1       1.077   5.582  20.719  0.00  0.00    +0.000 A 
ATOM      3  C   UNL     1       1.503   4.243  20.711  0.00  0.00    +0.000 A 
ATOM      4  C   UNL     1       2.742   3.867  20.214  0.00  0.00    +0.000 A 
ATOM      5  N   UNL     1       3.046   2.567  20.148  0.00  0.00    +0.000 NA
ATOM      6  C   UNL     1       4.210   2.256  19.567  0.00  0.00    +0.000 A 
ATOM      7  N   UNL     1       5.099   3.115  19.055  0.00  0.00    +0.000 NA
ATOM      8  C   UNL     1       4.795   4.421  19.154  0.00  0.00    +0.000 A 
ATOM      9  N   UNL     1       5.648   5.384  18.541  0.00  0.00    +0.000 N 
ATOM     10  C   UNL     1       3.600   4.868  19.761  0.00  0.00    +0.000 A 
ATOM     11  C   UNL     1       3.201   6.226  19.888  0.00  0.00    +0.000 A 
ATOM     12  H   UNL     1       5.827   6.127  19.209  0.00  0.00    +0.000 HD
ENDROOT
BRANCH   1  19
ATOM     13  C   UNL     1       2.006   8.397  17.717  0.00  0.00    +0.000 C 
ATOM     14  C   UNL     1       1.538   8.872  19.068  0.00  0.00    +0.000 A 
ATOM     15  C   UNL     1       1.116  10.219  19.138  0.00  0.00    +0.000 A 
ATOM     16  C   UNL     1       0.638  10.780  20.319  0.00  0.00    +0.000 A 
ATOM     17  C   UNL     1       0.597  10.008  21.466  0.00  0.00    +0.000 A 
ATOM     18  C   UNL     1       1.043   8.687  21.421  0.00  0.00    +0.000 A 
ATOM     19  C   UNL     1       1.508   8.062  20.233  0.00  0.00    +0.000 A 
ENDBRANCH   1  19
BRANCH   9  20
ATOM     20  C   UNL     1       6.843   4.949  17.814  0.00  0.00    +0.000 C 
ATOM     21  C   UNL     1       6.807   4.479  16.387  0.00  0.00    +0.000 C 
ATOM     22  C   UNL     1       7.360   5.837  16.709  0.00  0.00    +0.000 C 
ENDBRANCH   9  20
TORSDOF 2
ENDMDL
MODEL 8
REMARK VINA RESULT:      -7.6      1.255      2.113
REMARK  Name = 
REMARK  3 active torsions:
REMARK  status: ('A' for Active; 'I' for Inactive)
REMARK    1  A    between atoms: C_1  and  C_2
REMARK    2  A    between atoms: C_7  and  C_8
REMARK    3  A    between atoms: N_16  and  C_17
REMARK                            x       y       z     vdW  Elec       q    Type
REMARK                         _______ _______ _______ _____ _____    ______ ____
ROOT
ATOM      1  C   UNL     1       4.493   4.222  17.234  0.00  0.00    +0.000 A 
ATOM      2  C   UNL     1       5.705   4.674  17.761  0.00  0.00    +0.000 A 
ATOM      3  C   UNL     1       6.776   5.051  16.933  0.00  0.00    +0.000 A 
ATOM      4  C   UNL     1       6.729   4.906  15.554  0.00  0.00    +0.000 A 
ATOM      5  N   UNL     1       7.818   5.196  14.835  0.00  0.00    +0.000 NA
ATOM      6  C   UNL     1       7.750   4.941  13.524  0.00  0.00    +0.000 A 
ATOM      7  N   UNL     1       6.702   4.433  12.864  0.00  0.00    +0.000 NA
ATOM      8  C   UNL     1       5.603   4.174  13.595  0.00  0.00    +0.000 A 
ATOM      9  N   UNL     1       4.488   3.540  12.975  0.00  0.00    +0.000 N 
ATOM     10  C   UNL     1       5.555   4.417  14.985  0.00  0.00    +0.000 A 
ATOM     11  C   UNL     1       4.439   4.154  15.826  0.00  0.00    +0.000 A 
ATOM     12  H   UNL     1       3.646   4.045  13.233  0.00  0.00    +0.000 HD
ENDROOT
BRANCH   1  19
ATOM     13  C   UNL     1       3.964   1.226  18.047  0.00  0.00    +0.000 C 
ATOM     14  C   UNL     1       3.089   2.391  18.433  0.00  0.00    +0.000 A 
ATOM     15  C   UNL     1       1.955   2.079  19.216  0.00  0.00    +0.000 A 
ATOM     16  C   UNL     1       1.075   3.063  19.661  0.00  0.00    +0.000 A 
ATOM     17  C   UNL     1       1.301   4.381  19.308  0.00  0.00    +0.000 A 
ATOM     18  C   UNL     1       2.397   4.700  18.506  0.00  0.00    +0.000 A 
ATOM     19  C   UNL     1       3.338   3.736  18.056  0.00  0.00    +0.000 A 
ENDBRANCH   1  19
BRANCH   9  20
ATOM     20  C   UNL     1       4.543   3.180  11.555  0.00  0.00    +0.000 C 
ATOM     21  C   UNL     1       3.382   2.570  10.821  0.00  0.00    +0.000 C 
ATOM     22  C   UNL     1       3.737   4.008  10.586  0.00  0.00    +0.000 C 
ENDBRANCH   9  20
TORSDOF 2
ENDMDL
MODEL 9
REMARK VINA RESULT:      -7.5      4.001      7.202
REMARK  Name = 
REMARK  3 active torsions:
REMARK  status: ('A' for Active; 'I' for Inactive)
REMARK    1  A    between atoms: C_1  and  C_2
REMARK    2  A    between atoms: C_7  and  C_8
REMARK    3  A    between atoms: N_16  and  C_17
REMARK                            x       y       z     vdW  Elec       q    Type
REMARK                         _______ _______ _______ _____ _____    ______ ____
ROOT
ATOM      1  C   UNL     1       4.595   4.656  17.638  0.00  0.00    +0.000 A 
ATOM      2  C   UNL     1       3.413   5.384  17.794  0.00  0.00    +0.000 A 
ATOM      3  C   UNL     1       2.579   5.208  18.911  0.00  0.00    +0.000 A 
ATOM      4  C   UNL     1       2.826   4.237  19.870  0.00  0.00    +0.000 A 
ATOM      5  N   UNL     1       1.941   4.060  20.856  0.00  0.00    +0.000 NA
ATOM      6  C   UNL     1       2.178   3.044  21.693  0.00  0.00    +0.000 A 
ATOM      7  N   UNL     1       3.212   2.196  21.645  0.00  0.00    +0.000 NA
ATOM      8  C   UNL     1       4.111   2.404  20.666  0.00  0.00    +0.000 A 
ATOM      9  N   UNL     1       5.182   1.479  20.495  0.00  0.00    +0.000 N 
ATOM     10  C   UNL     1       3.972   3.455  19.733  0.00  0.00    +0.000 A 
ATOM     11  C   UNL     1       4.868   3.728  18.664  0.00  0.00    +0.000 A 
ATOM     12  H   UNL     1       6.046   2.003  20.396  0.00  0.00    +0.000 HD
ENDROOT
BRANCH   1  19
ATOM     13  C   UNL     1       7.230   6.371  17.447  0.00  0.00    +0.000 C 
ATOM     14  C   UNL     1       6.684   5.505  16.342  0.00  0.00    +0.000 A 
ATOM     15  C   UNL     1       7.433   5.486  15.143  0.00  0.00    +0.000 A 
ATOM     16  C   UNL     1       7.053   4.710  14.051  0.00  0.00    +0.000 A 
ATOM     17  C   UNL     1       5.898   3.955  14.126  0.00  0.00    +0.000 A 
ATOM     18  C   UNL     1       5.129   3.991  15.290  0.00  0.00    +0.000 A 
ATOM     19  C   UNL     1       5.492   4.741  16.441  0.00  0.00    +0.000 A 
ENDBRANCH   1  19
BRANCH   9  20
ATOM     20  C   UNL     1       5.298   0.319  21.383  0.00  0.00    +0.000 C 
ATOM     21  C   UNL     1       6.365  -0.727  21.224  0.00  0.00    +0.000 C 
ATOM     22  C   UNL     1       6.466   0.275  22.336  0.00  0.00    +0.000 C 
ENDBRANCH   9  20
TORSDOF 2
ENDMDL
