MODEL 1
REMARK VINA RESULT:      -5.8      0.000      0.000
REMARK  Name = 
REMARK  6 active torsions:
REMARK  status: ('A' for Active; 'I' for Inactive)
REMARK    1  A    between atoms: C_1  and  C_2
REMARK    2  A    between atoms: C_2  and  C_3
REMARK    3  A    between atoms: C_4  and  C_5
REMARK    4  A    between atoms: C_5  and  N_6
REMARK    5  A    between atoms: C_7  and  C_8
REMARK    6  A    between atoms: C_20  and  C_21
REMARK                            x       y       z     vdW  Elec       q    Type
REMARK                         _______ _______ _______ _____ _____    ______ ____
ROOT
ATOM      1  N   UNL     1      -1.153  11.959  18.525  0.00  0.00    +0.000 NA
ATOM      2  C   UNL     1       0.204  11.365  18.668  0.00  0.00    +0.000 C 
ATOM      3  C   UNL     1       0.316   9.910  18.169  0.00  0.00    +0.000 C 
ATOM      4  C   UNL     1       0.912  11.456  20.047  0.00  0.00    +0.000 C 
ATOM      5  N   UNL     1       0.058  11.191  21.187  0.00  0.00    +0.000 N 
ATOM      6  C   UNL     1       0.194  10.214  22.187  0.00  0.00    +0.000 A 
ATOM      7  S   UNL     1       1.287   8.975  22.308  0.00  0.00    +0.000 S 
ATOM      8  N   UNL     1      -0.825  10.446  23.124  0.00  0.00    +0.000 N 
ATOM      9  C   UNL     1      -1.579  11.538  22.706  0.00  0.00    +0.000 A 
ATOM     10  C   UNL     1      -2.719  12.065  23.264  0.00  0.00    +0.000 A 
ATOM     11  C   UNL     1      -3.329  13.116  22.576  0.00  0.00    +0.000 A 
ATOM     12  C   UNL     1      -2.815  13.574  21.344  0.00  0.00    +0.000 A 
ATOM     13  C   UNL     1      -1.675  12.986  20.757  0.00  0.00    +0.000 A 
ATOM     14  C   UNL     1      -1.046  12.004  21.503  0.00  0.00    +0.000 A 
ATOM     15  C   UNL     1      -1.371  13.220  19.289  0.00  0.00    +0.000 C 
ATOM     16  C   UNL     1      -0.342  14.333  19.037  0.00  0.00    +0.000 C 
ATOM     17  H   UNL     1      -1.004   9.865  23.928  0.00  0.00    +0.000 HD
ENDROOT
BRANCH   1  18
ATOM     18  C   UNL     1      -2.265  10.988  18.675  0.00  0.00    +0.000 C 
BRANCH  18  22
ATOM     19  C   UNL     1      -5.578  12.264  17.034  0.00  0.00    +0.000 C 
ATOM     20  C   UNL     1      -4.276  11.539  17.212  0.00  0.00    +0.000 C 
ATOM     21  C   UNL     1      -3.695  10.863  16.002  0.00  0.00    +0.000 C 
ATOM     22  C   UNL     1      -3.637  11.553  18.397  0.00  0.00    +0.000 C 
ENDBRANCH  18  22
ENDBRANCH   1  18
TORSDOF 2
ENDMDL
MODEL 2
REMARK VINA RESULT:      -5.8      2.410      5.046
REMARK  Name = 
REMARK  6 active torsions:
REMARK  status: ('A' for Active; 'I' for Inactive)
REMARK    1  A    between atoms: C_1  and  C_2
REMARK    2  A    between atoms: C_2  and  C_3
REMARK    3  A    between atoms: C_4  and  C_5
REMARK    4  A    between atoms: C_5  and  N_6
REMARK    5  A    between atoms: C_7  and  C_8
REMARK    6  A    between atoms: C_20  and  C_21
REMARK                            x       y       z     vdW  Elec       q    Type
REMARK                         _______ _______ _______ _____ _____    ______ ____
ROOT
ATOM      1  N   UNL     1       0.365  12.076  18.628  0.00  0.00    +0.000 NA
ATOM      2  C   UNL     1      -0.861  12.909  18.766  0.00  0.00    +0.000 C 
ATOM      3  C   UNL     1      -0.587  14.400  19.045  0.00  0.00    +0.000 C 
ATOM      4  C   UNL     1      -1.973  12.434  19.741  0.00  0.00    +0.000 C 
ATOM      5  N   UNL     1      -1.492  11.922  21.008  0.00  0.00    +0.000 N 
ATOM      6  C   UNL     1      -1.787  12.362  22.309  0.00  0.00    +0.000 A 
ATOM      7  S   UNL     1      -2.660  13.680  22.805  0.00  0.00    +0.000 S 
ATOM      8  N   UNL     1      -1.163  11.467  23.192  0.00  0.00    +0.000 N 
ATOM      9  C   UNL     1      -0.491  10.499  22.451  0.00  0.00    +0.000 A 
ATOM     10  C   UNL     1       0.320   9.482  22.892  0.00  0.00    +0.000 A 
ATOM     11  C   UNL     1       0.948   8.708  21.914  0.00  0.00    +0.000 A 
ATOM     12  C   UNL     1       0.786   8.998  20.542  0.00  0.00    +0.000 A 
ATOM     13  C   UNL     1      -0.007  10.081  20.107  0.00  0.00    +0.000 A 
ATOM     14  C   UNL     1      -0.682  10.775  21.096  0.00  0.00    +0.000 A 
ATOM     15  C   UNL     1       0.136  10.604  18.690  0.00  0.00    +0.000 C 
ATOM     16  C   UNL     1      -0.918  10.056  17.716  0.00  0.00    +0.000 C 
ATOM     17  H   UNL     1      -1.161  11.563  24.196  0.00  0.00    +0.000 HD
ENDROOT
BRANCH   1  18
ATOM     18  C   UNL     1       1.507  12.524  19.462  0.00  0.00    +0.000 C 
BRANCH  18  22
ATOM     19  C   UNL     1       4.351  14.787  18.018  0.00  0.00    +0.000 C 
ATOM     20  C   UNL     1       3.306  14.255  18.954  0.00  0.00    +0.000 C 
ATOM     21  C   UNL     1       2.963  15.095  20.152  0.00  0.00    +0.000 C 
ATOM     22  C   UNL     1       2.667  13.100  18.687  0.00  0.00    +0.000 C 
ENDBRANCH  18  22
ENDBRANCH   1  18
TORSDOF 2
ENDMDL
MODEL 3
REMARK VINA RESULT:      -5.8      1.348      1.577
REMARK  Name = 
REMARK  6 active torsions:
REMARK  status: ('A' for Active; 'I' for Inactive)
REMARK    1  A    between atoms: C_1  and  C_2
REMARK    2  A    between atoms: C_2  and  C_3
REMARK    3  A    between atoms: C_4  and  C_5
REMARK    4  A    between atoms: C_5  and  N_6
REMARK    5  A    between atoms: C_7  and  C_8
REMARK    6  A    between atoms: C_20  and  C_21
REMARK                            x       y       z     vdW  Elec       q    Type
REMARK                         _______ _______ _______ _____ _____    ______ ____
ROOT
ATOM      1  N   UNL     1      -0.352  12.490  18.620  0.00  0.00    +0.000 NA
ATOM      2  C   UNL     1       0.674  11.581  19.201  0.00  0.00    +0.000 C 
ATOM      3  C   UNL     1       0.488  10.096  18.832  0.00  0.00    +0.000 C 
ATOM      4  C   UNL     1       0.960  11.665  20.726  0.00  0.00    +0.000 C 
ATOM      5  N   UNL     1      -0.218  11.793  21.559  0.00  0.00    +0.000 N 
ATOM      6  C   UNL     1      -0.661  10.959  22.598  0.00  0.00    +0.000 A 
ATOM      7  S   UNL     1      -0.062   9.501  23.109  0.00  0.00    +0.000 S 
ATOM      8  N   UNL     1      -1.787  11.577  23.164  0.00  0.00    +0.000 N 
ATOM      9  C   UNL     1      -2.037  12.764  22.483  0.00  0.00    +0.000 A 
ATOM     10  C   UNL     1      -3.080  13.646  22.638  0.00  0.00    +0.000 A 
ATOM     11  C   UNL     1      -3.134  14.719  21.746  0.00  0.00    +0.000 A 
ATOM     12  C   UNL     1      -2.185  14.853  20.711  0.00  0.00    +0.000 A 
ATOM     13  C   UNL     1      -1.152  13.909  20.531  0.00  0.00    +0.000 A 
ATOM     14  C   UNL     1      -1.075  12.906  21.481  0.00  0.00    +0.000 A 
ATOM     15  C   UNL     1      -0.393  13.855  19.218  0.00  0.00    +0.000 C 
ATOM     16  C   UNL     1       0.945  14.609  19.242  0.00  0.00    +0.000 C 
ATOM     17  H   UNL     1      -2.347  11.179  23.902  0.00  0.00    +0.000 HD
ENDROOT
BRANCH   1  18
ATOM     18  C   UNL     1      -1.695  11.880  18.468  0.00  0.00    +0.000 C 
BRANCH  18  22
ATOM     19  C   UNL     1      -3.024  10.343  15.125  0.00  0.00    +0.000 C 
ATOM     20  C   UNL     1      -2.799  10.552  16.595  0.00  0.00    +0.000 C 
ATOM     21  C   UNL     1      -3.314   9.492  17.527  0.00  0.00    +0.000 C 
ATOM     22  C   UNL     1      -2.111  11.621  17.040  0.00  0.00    +0.000 C 
ENDBRANCH  18  22
ENDBRANCH   1  18
TORSDOF 2
ENDMDL
MODEL 4
REMARK VINA RESULT:      -5.7      2.437      4.486
REMARK  Name = 
REMARK  6 active torsions:
REMARK  status: ('A' for Active; 'I' for Inactive)
REMARK    1  A    between atoms: C_1  and  C_2
REMARK    2  A    between atoms: C_2  and  C_3
REMARK    3  A    between atoms: C_4  and  C_5
REMARK    4  A    between atoms: C_5  and  N_6
REMARK    5  A    between atoms: C_7  and  C_8
REMARK    6  A    between atoms: C_20  and  C_21
REMARK                            x       y       z     vdW  Elec       q    Type
REMARK                         _______ _______ _______ _____ _____    ______ ____
ROOT
ATOM      1  N   UNL     1      -1.288  12.601  20.407  0.00  0.00    +0.000 NA
ATOM      2  C   UNL     1      -0.514  13.841  20.691  0.00  0.00    +0.000 C 
ATOM      3  C   UNL     1      -0.968  15.072  19.883  0.00  0.00    +0.000 C 
ATOM      4  C   UNL     1       1.037  13.775  20.637  0.00  0.00    +0.000 C 
ATOM      5  N   UNL     1       1.574  13.017  19.526  0.00  0.00    +0.000 N 
ATOM      6  C   UNL     1       2.450  13.435  18.511  0.00  0.00    +0.000 A 
ATOM      7  S   UNL     1       3.037  14.949  18.181  0.00  0.00    +0.000 S 
ATOM      8  N   UNL     1       2.757  12.300  17.744  0.00  0.00    +0.000 N 
ATOM      9  C   UNL     1       2.078  11.206  18.272  0.00  0.00    +0.000 A 
ATOM     10  C   UNL     1       2.014   9.918  17.796  0.00  0.00    +0.000 A 
ATOM     11  C   UNL     1       1.172   9.037  18.478  0.00  0.00    +0.000 A 
ATOM     12  C   UNL     1       0.395   9.473  19.571  0.00  0.00    +0.000 A 
ATOM     13  C   UNL     1       0.430  10.812  20.013  0.00  0.00    +0.000 A 
ATOM     14  C   UNL     1       1.336  11.639  19.372  0.00  0.00    +0.000 A 
ATOM     15  C   UNL     1      -0.669  11.343  20.915  0.00  0.00    +0.000 C 
ATOM     16  C   UNL     1      -0.305  11.339  22.407  0.00  0.00    +0.000 C 
ATOM     17  H   UNL     1       3.328  12.309  16.914  0.00  0.00    +0.000 HD
ENDROOT
BRANCH   1  18
ATOM     18  C   UNL     1      -1.773  12.489  19.010  0.00  0.00    +0.000 C 
BRANCH  18  22
ATOM     19  C   UNL     1      -5.058  10.666  17.921  0.00  0.00    +0.000 C 
ATOM     20  C   UNL     1      -3.597  10.978  18.074  0.00  0.00    +0.000 C 
ATOM     21  C   UNL     1      -2.632  10.171  17.251  0.00  0.00    +0.000 C 
ATOM     22  C   UNL     1      -3.188  11.981  18.873  0.00  0.00    +0.000 C 
ENDBRANCH  18  22
ENDBRANCH   1  18
TORSDOF 2
ENDMDL
MODEL 5
REMARK VINA RESULT:      -5.7      9.857     12.158
REMARK  Name = 
REMARK  6 active torsions:
REMARK  status: ('A' for Active; 'I' for Inactive)
REMARK    1  A    between atoms: C_1  and  C_2
REMARK    2  A    between atoms: C_2  and  C_3
REMARK    3  A    between atoms: C_4  and  C_5
REMARK    4  A    between atoms: C_5  and  N_6
REMARK    5  A    between atoms: C_7  and  C_8
REMARK    6  A    between atoms: C_20  and  C_21
REMARK                            x       y       z     vdW  Elec       q    Type
REMARK                         _______ _______ _______ _____ _____    ______ ____
ROOT
ATOM      1  N   UNL     1       7.991  15.392  19.573  0.00  0.00    +0.000 NA
ATOM      2  C   UNL     1       8.639  16.668  19.981  0.00  0.00    +0.000 C 
ATOM      3  C   UNL     1       8.037  17.925  19.322  0.00  0.00    +0.000 C 
ATOM      4  C   UNL     1      10.186  16.774  19.895  0.00  0.00    +0.000 C 
ATOM      5  N   UNL     1      10.769  16.203  18.698  0.00  0.00    +0.000 N 
ATOM      6  C   UNL     1      11.568  16.820  17.722  0.00  0.00    +0.000 A 
ATOM      7  S   UNL     1      11.985  18.415  17.554  0.00  0.00    +0.000 S 
ATOM      8  N   UNL     1      11.969  15.814  16.829  0.00  0.00    +0.000 N 
ATOM      9  C   UNL     1      11.422  14.603  17.242  0.00  0.00    +0.000 A 
ATOM     10  C   UNL     1      11.479  13.375  16.626  0.00  0.00    +0.000 A 
ATOM     11  C   UNL     1      10.752  12.341  17.219  0.00  0.00    +0.000 A 
ATOM     12  C   UNL     1       9.965  12.570  18.367  0.00  0.00    +0.000 A 
ATOM     13  C   UNL     1       9.873  13.849  18.955  0.00  0.00    +0.000 A 
ATOM     14  C   UNL     1      10.670  14.833  18.395  0.00  0.00    +0.000 A 
ATOM     15  C   UNL     1       8.750  14.159  19.927  0.00  0.00    +0.000 C 
ATOM     16  C   UNL     1       9.154  14.031  21.404  0.00  0.00    +0.000 C 
ATOM     17  H   UNL     1      12.513  15.974  15.995  0.00  0.00    +0.000 HD
ENDROOT
BRANCH   1  18
ATOM     18  C   UNL     1       7.481  15.383  18.180  0.00  0.00    +0.000 C 
BRANCH  18  22
ATOM     19  C   UNL     1       3.742  14.237  18.112  0.00  0.00    +0.000 C 
ATOM     20  C   UNL     1       4.947  15.128  18.200  0.00  0.00    +0.000 C 
ATOM     21  C   UNL     1       4.716  16.560  18.597  0.00  0.00    +0.000 C 
ATOM     22  C   UNL     1       6.182  14.637  17.989  0.00  0.00    +0.000 C 
ENDBRANCH  18  22
ENDBRANCH   1  18
TORSDOF 2
ENDMDL
MODEL 6
REMARK VINA RESULT:      -5.6      2.508      5.290
REMARK  Name = 
REMARK  6 active torsions:
REMARK  status: ('A' for Active; 'I' for Inactive)
REMARK    1  A    between atoms: C_1  and  C_2
REMARK    2  A    between atoms: C_2  and  C_3
REMARK    3  A    between atoms: C_4  and  C_5
REMARK    4  A    between atoms: C_5  and  N_6
REMARK    5  A    between atoms: C_7  and  C_8
REMARK    6  A    between atoms: C_20  and  C_21
REMARK                            x       y       z     vdW  Elec       q    Type
REMARK                         _______ _______ _______ _____ _____    ______ ____
ROOT
ATOM      1  N   UNL     1      -0.298  11.916  20.601  0.00  0.00    +0.000 NA
ATOM      2  C   UNL     1      -0.824  13.119  21.302  0.00  0.00    +0.000 C 
ATOM      3  C   UNL     1      -1.137  12.897  22.796  0.00  0.00    +0.000 C 
ATOM      4  C   UNL     1      -2.020  13.881  20.669  0.00  0.00    +0.000 C 
ATOM      5  N   UNL     1      -3.068  13.035  20.138  0.00  0.00    +0.000 N 
ATOM      6  C   UNL     1      -4.431  12.996  20.475  0.00  0.00    +0.000 A 
ATOM      7  S   UNL     1      -5.244  13.802  21.673  0.00  0.00    +0.000 S 
ATOM      8  N   UNL     1      -5.042  12.086  19.598  0.00  0.00    +0.000 N 
ATOM      9  C   UNL     1      -4.074  11.569  18.742  0.00  0.00    +0.000 A 
ATOM     10  C   UNL     1      -4.201  10.591  17.786  0.00  0.00    +0.000 A 
ATOM     11  C   UNL     1      -3.033  10.195  17.132  0.00  0.00    +0.000 A 
ATOM     12  C   UNL     1      -1.782  10.748  17.479  0.00  0.00    +0.000 A 
ATOM     13  C   UNL     1      -1.660  11.712  18.502  0.00  0.00    +0.000 A 
ATOM     14  C   UNL     1      -2.846  12.144  19.072  0.00  0.00    +0.000 A 
ATOM     15  C   UNL     1      -0.303  12.003  19.113  0.00  0.00    +0.000 C 
ATOM     16  C   UNL     1       0.395  13.236  18.519  0.00  0.00    +0.000 C 
ATOM     17  H   UNL     1      -6.013  11.819  19.638  0.00  0.00    +0.000 HD
ENDROOT
BRANCH   1  18
ATOM     18  C   UNL     1      -0.830  10.628  21.111  0.00  0.00    +0.000 C 
BRANCH  18  22
ATOM     19  C   UNL     1       1.653   7.652  20.588  0.00  0.00    +0.000 C 
ATOM     20  C   UNL     1       0.911   8.774  21.253  0.00  0.00    +0.000 C 
ATOM     21  C   UNL     1       1.385   9.200  22.615  0.00  0.00    +0.000 C 
ATOM     22  C   UNL     1      -0.096   9.404  20.620  0.00  0.00    +0.000 C 
ENDBRANCH  18  22
ENDBRANCH   1  18
TORSDOF 2
ENDMDL
MODEL 7
REMARK VINA RESULT:      -5.5      6.615      9.257
REMARK  Name = 
REMARK  6 active torsions:
REMARK  status: ('A' for Active; 'I' for Inactive)
REMARK    1  A    between atoms: C_1  and  C_2
REMARK    2  A    between atoms: C_2  and  C_3
REMARK    3  A    between atoms: C_4  and  C_5
REMARK    4  A    between atoms: C_5  and  N_6
REMARK    5  A    between atoms: C_7  and  C_8
REMARK    6  A    between atoms: C_20  and  C_21
REMARK                            x       y       z     vdW  Elec       q    Type
REMARK                         _______ _______ _______ _____ _____    ______ ____
ROOT
ATOM      1  N   UNL     1       1.323   4.773  19.604  0.00  0.00    +0.000 NA
ATOM      2  C   UNL     1       1.313   3.327  19.958  0.00  0.00    +0.000 C 
ATOM      3  C   UNL     1       1.256   3.044  21.472  0.00  0.00    +0.000 C 
ATOM      4  C   UNL     1       2.397   2.405  19.337  0.00  0.00    +0.000 C 
ATOM      5  N   UNL     1       3.731   2.968  19.308  0.00  0.00    +0.000 N 
ATOM      6  C   UNL     1       4.914   2.471  19.879  0.00  0.00    +0.000 A 
ATOM      7  S   UNL     1       5.137   1.166  20.875  0.00  0.00    +0.000 S 
ATOM      8  N   UNL     1       5.952   3.324  19.471  0.00  0.00    +0.000 N 
ATOM      9  C   UNL     1       5.418   4.330  18.672  0.00  0.00    +0.000 A 
ATOM     10  C   UNL     1       6.047   5.424  18.126  0.00  0.00    +0.000 A 
ATOM     11  C   UNL     1       5.241   6.333  17.437  0.00  0.00    +0.000 A 
ATOM     12  C   UNL     1       3.844   6.150  17.354  0.00  0.00    +0.000 A 
ATOM     13  C   UNL     1       3.207   5.051  17.968  0.00  0.00    +0.000 A 
ATOM     14  C   UNL     1       4.041   4.124  18.569  0.00  0.00    +0.000 A 
ATOM     15  C   UNL     1       1.707   5.073  18.196  0.00  0.00    +0.000 C 
ATOM     16  C   UNL     1       0.904   4.331  17.117  0.00  0.00    +0.000 C 
ATOM     17  H   UNL     1       6.910   3.240  19.771  0.00  0.00    +0.000 HD
ENDROOT
BRANCH   1  18
ATOM     18  C   UNL     1       2.010   5.640  20.593  0.00  0.00    +0.000 C 
BRANCH  18  22
ATOM     19  C   UNL     1       0.368   9.108  21.351  0.00  0.00    +0.000 C 
ATOM     20  C   UNL     1       1.137   8.032  20.640  0.00  0.00    +0.000 C 
ATOM     21  C   UNL     1       1.909   8.434  19.414  0.00  0.00    +0.000 C 
ATOM     22  C   UNL     1       1.172   6.777  21.125  0.00  0.00    +0.000 C 
ENDBRANCH  18  22
ENDBRANCH   1  18
TORSDOF 2
ENDMDL
MODEL 8
REMARK VINA RESULT:      -5.5      9.353     11.907
REMARK  Name = 
REMARK  6 active torsions:
REMARK  status: ('A' for Active; 'I' for Inactive)
REMARK    1  A    between atoms: C_1  and  C_2
REMARK    2  A    between atoms: C_2  and  C_3
REMARK    3  A    between atoms: C_4  and  C_5
REMARK    4  A    between atoms: C_5  and  N_6
REMARK    5  A    between atoms: C_7  and  C_8
REMARK    6  A    between atoms: C_20  and  C_21
REMARK                            x       y       z     vdW  Elec       q    Type
REMARK                         _______ _______ _______ _____ _____    ______ ____
ROOT
ATOM      1  N   UNL     1       9.228  14.549  21.938  0.00  0.00    +0.000 NA
ATOM      2  C   UNL     1       8.239  15.544  21.439  0.00  0.00    +0.000 C 
ATOM      3  C   UNL     1       6.796  15.302  21.922  0.00  0.00    +0.000 C 
ATOM      4  C   UNL     1       8.193  15.842  19.915  0.00  0.00    +0.000 C 
ATOM      5  N   UNL     1       8.297  14.674  19.065  0.00  0.00    +0.000 N 
ATOM      6  C   UNL     1       7.399  14.206  18.091  0.00  0.00    +0.000 A 
ATOM      7  S   UNL     1       5.886  14.755  17.701  0.00  0.00    +0.000 S 
ATOM      8  N   UNL     1       8.011  13.106  17.469  0.00  0.00    +0.000 N 
ATOM      9  C   UNL     1       9.257  12.896  18.053  0.00  0.00    +0.000 A 
ATOM     10  C   UNL     1      10.160  11.886  17.820  0.00  0.00    +0.000 A 
ATOM     11  C   UNL     1      11.301  11.866  18.625  0.00  0.00    +0.000 A 
ATOM     12  C   UNL     1      11.483  12.815  19.654  0.00  0.00    +0.000 A 
ATOM     13  C   UNL     1      10.520  13.812  19.915  0.00  0.00    +0.000 A 
ATOM     14  C   UNL     1       9.442  13.857  19.048  0.00  0.00    +0.000 A 
ATOM     15  C   UNL     1      10.542  14.561  21.235  0.00  0.00    +0.000 C 
ATOM     16  C   UNL     1      11.243  15.926  21.163  0.00  0.00    +0.000 C 
ATOM     17  H   UNL     1       7.576  12.537  16.760  0.00  0.00    +0.000 HD
ENDROOT
BRANCH   1  18
ATOM     18  C   UNL     1       8.680  13.184  22.127  0.00  0.00    +0.000 C 
BRANCH  18  22
ATOM     19  C   UNL     1       7.590  11.927  25.667  0.00  0.00    +0.000 C 
ATOM     20  C   UNL     1       7.549  12.217  24.195  0.00  0.00    +0.000 C 
ATOM     21  C   UNL     1       6.244  11.987  23.485  0.00  0.00    +0.000 C 
ATOM     22  C   UNL     1       8.626  12.719  23.563  0.00  0.00    +0.000 C 
ENDBRANCH  18  22
ENDBRANCH   1  18
TORSDOF 2
ENDMDL
MODEL 9
REMARK VINA RESULT:      -5.5      1.958      4.584
REMARK  Name = 
REMARK  6 active torsions:
REMARK  status: ('A' for Active; 'I' for Inactive)
REMARK    1  A    between atoms: C_1  and  C_2
REMARK    2  A    between atoms: C_2  and  C_3
REMARK    3  A    between atoms: C_4  and  C_5
REMARK    4  A    between atoms: C_5  and  N_6
REMARK    5  A    between atoms: C_7  and  C_8
REMARK    6  A    between atoms: C_20  and  C_21
REMARK                            x       y       z     vdW  Elec       q    Type
REMARK                         _______ _______ _______ _____ _____    ______ ____
ROOT
ATOM      1  N   UNL     1      -0.278  13.582  20.597  0.00  0.00    +0.000 NA
ATOM      2  C   UNL     1       0.890  12.689  20.829  0.00  0.00    +0.000 C 
ATOM      3  C   UNL     1       2.181  13.134  20.114  0.00  0.00    +0.000 C 
ATOM      4  C   UNL     1       0.713  11.163  20.597  0.00  0.00    +0.000 C 
ATOM      5  N   UNL     1      -0.039  10.812  19.410  0.00  0.00    +0.000 N 
ATOM      6  C   UNL     1       0.352  10.024  18.315  0.00  0.00    +0.000 A 
ATOM      7  S   UNL     1       1.830   9.363  17.967  0.00  0.00    +0.000 S 
ATOM      8  N   UNL     1      -0.773   9.892  17.486  0.00  0.00    +0.000 N 
ATOM      9  C   UNL     1      -1.834  10.591  18.054  0.00  0.00    +0.000 A 
ATOM     10  C   UNL     1      -3.094  10.806  17.551  0.00  0.00    +0.000 A 
ATOM     11  C   UNL     1      -3.937  11.633  18.297  0.00  0.00    +0.000 A 
ATOM     12  C   UNL     1      -3.487  12.248  19.484  0.00  0.00    +0.000 A 
ATOM     13  C   UNL     1      -2.172  12.062  19.959  0.00  0.00    +0.000 A 
ATOM     14  C   UNL     1      -1.389  11.171  19.244  0.00  0.00    +0.000 A 
ATOM     15  C   UNL     1      -1.596  13.010  20.994  0.00  0.00    +0.000 C 
ATOM     16  C   UNL     1      -1.684  12.485  22.435  0.00  0.00    +0.000 C 
ATOM     17  H   UNL     1      -0.774   9.418  16.597  0.00  0.00    +0.000 HD
ENDROOT
BRANCH   1  18
ATOM     18  C   UNL     1      -0.301  14.226  19.261  0.00  0.00    +0.000 C 
BRANCH  18  22
ATOM     19  C   UNL     1      -0.056  18.129  19.181  0.00  0.00    +0.000 C 
ATOM     20  C   UNL     1       0.303  16.685  18.982  0.00  0.00    +0.000 C 
ATOM     21  C   UNL     1       1.695  16.382  18.502  0.00  0.00    +0.000 C 
ATOM     22  C   UNL     1      -0.576  15.711  19.281  0.00  0.00    +0.000 C 
ENDBRANCH  18  22
ENDBRANCH   1  18
TORSDOF 2
ENDMDL
