MODEL 1
REMARK VINA RESULT:      -7.0      0.000      0.000
REMARK  Name = 
REMARK  4 active torsions:
REMARK  status: ('A' for Active; 'I' for Inactive)
REMARK    1  A    between atoms: N_1  and  S_2
REMARK    2  A    between atoms: S_2  and  C_5
REMARK    3  A    between atoms: C_10  and  C_12
REMARK    4  A    between atoms: C_12  and  C_13
REMARK                            x       y       z     vdW  Elec       q    Type
REMARK                         _______ _______ _______ _____ _____    ______ ____
ROOT
ATOM      1  C   UNL     1       6.632   4.669  16.215  0.00  0.00    +0.000 A 
ATOM      2  N   UNL     1       7.560   4.871  17.128  0.00  0.00    +0.000 NA
ATOM      3  N   UNL     1       7.108   4.490  18.386  0.00  0.00    +0.000 NA
ATOM      4  C   UNL     1       5.901   3.968  18.340  0.00  0.00    +0.000 A 
ATOM      5  N   UNL     1       5.245   3.501  19.452  0.00  0.00    +0.000 N 
ATOM      6  C   UNL     1       4.128   2.695  19.438  0.00  0.00    +0.000 C 
ATOM      7  O   UNL     1       3.550   2.274  18.439  0.00  0.00    +0.000 OA
ATOM      8  S   UNL     1       5.186   3.984  16.789  0.00  0.00    +0.000 S 
ATOM      9  H   UNL     1       5.740   3.659  20.322  0.00  0.00    +0.000 HD
ENDROOT
BRANCH   1  10
ATOM     10  S   UNL     1       6.747   5.012  14.498  0.00  0.00    +0.000 S 
ATOM     11  O   UNL     1       8.114   5.398  14.230  0.00  0.00    +0.000 OA
ATOM     12  O   UNL     1       5.629   5.874  14.179  0.00  0.00    +0.000 OA
BRANCH  10  13
ATOM     13  N   UNL     1       6.470   3.602  13.609  0.00  0.00    +0.000 NA
ATOM     14  H   UNL     1       5.921   2.958  14.176  0.00  0.00    +0.000 HD
ATOM     15  H   UNL     1       7.359   3.192  13.319  0.00  0.00    +0.000 HD
ENDBRANCH  10  13
ENDBRANCH   1  10
BRANCH   6  16
ATOM     16  C   UNL     1       3.637   2.322  20.825  0.00  0.00    +0.000 C 
BRANCH  16  17
ATOM     17  C   UNL     1       2.387   3.096  21.232  0.00  0.00    +0.000 C 
ATOM     18  C   UNL     1       2.322   4.597  20.839  0.00  0.00    +0.000 C 
ATOM     19  C   UNL     1       0.817   4.391  20.579  0.00  0.00    +0.000 C 
ATOM     20  C   UNL     1       1.133   2.900  20.340  0.00  0.00    +0.000 C 
ENDBRANCH  16  17
ENDBRANCH   6  16
TORSDOF 4
ENDMDL
MODEL 2
REMARK VINA RESULT:      -6.8      3.026      6.819
REMARK  Name = 
REMARK  4 active torsions:
REMARK  status: ('A' for Active; 'I' for Inactive)
REMARK    1  A    between atoms: N_1  and  S_2
REMARK    2  A    between atoms: S_2  and  C_5
REMARK    3  A    between atoms: C_10  and  C_12
REMARK    4  A    between atoms: C_12  and  C_13
REMARK                            x       y       z     vdW  Elec       q    Type
REMARK                         _______ _______ _______ _____ _____    ______ ____
ROOT
ATOM      1  C   UNL     1       3.146   3.587  19.879  0.00  0.00    +0.000 A 
ATOM      2  N   UNL     1       4.170   2.812  20.171  0.00  0.00    +0.000 NA
ATOM      3  N   UNL     1       5.151   2.898  19.190  0.00  0.00    +0.000 NA
ATOM      4  C   UNL     1       4.840   3.771  18.256  0.00  0.00    +0.000 A 
ATOM      5  N   UNL     1       5.658   4.047  17.187  0.00  0.00    +0.000 N 
ATOM      6  C   UNL     1       5.536   5.133  16.350  0.00  0.00    +0.000 C 
ATOM      7  O   UNL     1       4.684   6.015  16.426  0.00  0.00    +0.000 OA
ATOM      8  S   UNL     1       3.301   4.486  18.444  0.00  0.00    +0.000 S 
ATOM      9  H   UNL     1       6.487   3.466  17.141  0.00  0.00    +0.000 HD
ENDROOT
BRANCH   1  10
ATOM     10  S   UNL     1       1.675   3.793  20.814  0.00  0.00    +0.000 S 
ATOM     11  O   UNL     1       1.367   5.206  20.818  0.00  0.00    +0.000 OA
ATOM     12  O   UNL     1       1.862   3.045  22.038  0.00  0.00    +0.000 OA
BRANCH  10  13
ATOM     13  N   UNL     1       0.385   3.030  20.036  0.00  0.00    +0.000 NA
ATOM     14  H   UNL     1       0.755   2.363  19.362  0.00  0.00    +0.000 HD
ATOM     15  H   UNL     1      -0.218   3.725  19.594  0.00  0.00    +0.000 HD
ENDBRANCH  10  13
ENDBRANCH   1  10
BRANCH   6  16
ATOM     16  C   UNL     1       6.599   5.183  15.268  0.00  0.00    +0.000 C 
BRANCH  16  17
ATOM     17  C   UNL     1       6.493   4.020  14.286  0.00  0.00    +0.000 C 
ATOM     18  C   UNL     1       5.122   3.804  13.589  0.00  0.00    +0.000 C 
ATOM     19  C   UNL     1       5.908   3.411  12.323  0.00  0.00    +0.000 C 
ATOM     20  C   UNL     1       7.076   4.258  12.869  0.00  0.00    +0.000 C 
ENDBRANCH  16  17
ENDBRANCH   6  16
TORSDOF 4
ENDMDL
MODEL 3
REMARK VINA RESULT:      -6.8      5.094      7.416
REMARK  Name = 
REMARK  4 active torsions:
REMARK  status: ('A' for Active; 'I' for Inactive)
REMARK    1  A    between atoms: N_1  and  S_2
REMARK    2  A    between atoms: S_2  and  C_5
REMARK    3  A    between atoms: C_10  and  C_12
REMARK    4  A    between atoms: C_12  and  C_13
REMARK                            x       y       z     vdW  Elec       q    Type
REMARK                         _______ _______ _______ _____ _____    ______ ____
ROOT
ATOM      1  C   UNL     1       6.430   4.989  17.707  0.00  0.00    +0.000 A 
ATOM      2  N   UNL     1       7.015   4.562  18.807  0.00  0.00    +0.000 NA
ATOM      3  N   UNL     1       7.878   5.525  19.314  0.00  0.00    +0.000 NA
ATOM      4  C   UNL     1       7.847   6.636  18.610  0.00  0.00    +0.000 A 
ATOM      5  N   UNL     1       8.601   7.741  18.922  0.00  0.00    +0.000 N 
ATOM      6  C   UNL     1       8.406   9.008  18.415  0.00  0.00    +0.000 C 
ATOM      7  O   UNL     1       7.538   9.342  17.613  0.00  0.00    +0.000 OA
ATOM      8  S   UNL     1       6.843   6.568  17.231  0.00  0.00    +0.000 S 
ATOM      9  H   UNL     1       9.238   7.602  19.698  0.00  0.00    +0.000 HD
ENDROOT
BRANCH   1  10
ATOM     10  S   UNL     1       5.275   4.115  16.715  0.00  0.00    +0.000 S 
ATOM     11  O   UNL     1       6.007   3.555  15.602  0.00  0.00    +0.000 OA
ATOM     12  O   UNL     1       4.148   5.002  16.525  0.00  0.00    +0.000 OA
BRANCH  10  13
ATOM     13  N   UNL     1       4.650   2.804  17.578  0.00  0.00    +0.000 NA
ATOM     14  H   UNL     1       4.990   2.849  18.537  0.00  0.00    +0.000 HD
ATOM     15  H   UNL     1       4.911   1.929  17.122  0.00  0.00    +0.000 HD
ENDBRANCH  10  13
ENDBRANCH   1  10
BRANCH   6  16
ATOM     16  C   UNL     1       9.384  10.032  18.961  0.00  0.00    +0.000 C 
BRANCH  16  17
ATOM     17  C   UNL     1       9.829  11.039  17.905  0.00  0.00    +0.000 C 
ATOM     18  C   UNL     1       9.182  12.449  17.952  0.00  0.00    +0.000 C 
ATOM     19  C   UNL     1      10.555  13.016  17.541  0.00  0.00    +0.000 C 
ATOM     20  C   UNL     1      11.185  11.750  18.158  0.00  0.00    +0.000 C 
ENDBRANCH  16  17
ENDBRANCH   6  16
TORSDOF 4
ENDMDL
MODEL 4
REMARK VINA RESULT:      -6.7      3.266      7.010
REMARK  Name = 
REMARK  4 active torsions:
REMARK  status: ('A' for Active; 'I' for Inactive)
REMARK    1  A    between atoms: N_1  and  S_2
REMARK    2  A    between atoms: S_2  and  C_5
REMARK    3  A    between atoms: C_10  and  C_12
REMARK    4  A    between atoms: C_12  and  C_13
REMARK                            x       y       z     vdW  Elec       q    Type
REMARK                         _______ _______ _______ _____ _____    ______ ____
ROOT
ATOM      1  C   UNL     1       3.053   3.119  19.530  0.00  0.00    +0.000 A 
ATOM      2  N   UNL     1       3.372   1.966  18.979  0.00  0.00    +0.000 NA
ATOM      3  N   UNL     1       3.977   2.159  17.743  0.00  0.00    +0.000 NA
ATOM      4  C   UNL     1       4.134   3.435  17.464  0.00  0.00    +0.000 A 
ATOM      5  N   UNL     1       4.722   3.881  16.305  0.00  0.00    +0.000 N 
ATOM      6  C   UNL     1       5.174   5.164  16.083  0.00  0.00    +0.000 C 
ATOM      7  O   UNL     1       5.120   6.099  16.878  0.00  0.00    +0.000 OA
ATOM      8  S   UNL     1       3.482   4.497  18.631  0.00  0.00    +0.000 S 
ATOM      9  H   UNL     1       4.957   3.144  15.651  0.00  0.00    +0.000 HD
ENDROOT
BRANCH   1  10
ATOM     10  S   UNL     1       2.264   3.369  21.078  0.00  0.00    +0.000 S 
ATOM     11  O   UNL     1       2.293   4.789  21.347  0.00  0.00    +0.000 OA
ATOM     12  O   UNL     1       2.838   2.403  21.989  0.00  0.00    +0.000 OA
BRANCH  10  13
ATOM     13  N   UNL     1       0.633   2.941  20.969  0.00  0.00    +0.000 NA
ATOM     14  H   UNL     1       0.561   2.033  20.515  0.00  0.00    +0.000 HD
ATOM     15  H   UNL     1       0.115   3.662  20.465  0.00  0.00    +0.000 HD
ENDBRANCH  10  13
ENDBRANCH   1  10
BRANCH   6  16
ATOM     16  C   UNL     1       5.797   5.354  14.713  0.00  0.00    +0.000 C 
BRANCH  16  17
ATOM     17  C   UNL     1       5.979   4.037  13.963  0.00  0.00    +0.000 C 
ATOM     18  C   UNL     1       4.952   3.710  12.846  0.00  0.00    +0.000 C 
ATOM     19  C   UNL     1       6.120   3.098  12.049  0.00  0.00    +0.000 C 
ATOM     20  C   UNL     1       7.060   4.021  12.851  0.00  0.00    +0.000 C 
ENDBRANCH  16  17
ENDBRANCH   6  16
TORSDOF 4
ENDMDL
MODEL 5
REMARK VINA RESULT:      -6.7      0.861      1.053
REMARK  Name = 
REMARK  4 active torsions:
REMARK  status: ('A' for Active; 'I' for Inactive)
REMARK    1  A    between atoms: N_1  and  S_2
REMARK    2  A    between atoms: S_2  and  C_5
REMARK    3  A    between atoms: C_10  and  C_12
REMARK    4  A    between atoms: C_12  and  C_13
REMARK                            x       y       z     vdW  Elec       q    Type
REMARK                         _______ _______ _______ _____ _____    ______ ____
ROOT
ATOM      1  C   UNL     1       6.569   4.653  16.140  0.00  0.00    +0.000 A 
ATOM      2  N   UNL     1       7.521   4.860  17.027  0.00  0.00    +0.000 NA
ATOM      3  N   UNL     1       7.103   4.485  18.298  0.00  0.00    +0.000 NA
ATOM      4  C   UNL     1       5.896   3.964  18.287  0.00  0.00    +0.000 A 
ATOM      5  N   UNL     1       5.270   3.502  19.420  0.00  0.00    +0.000 N 
ATOM      6  C   UNL     1       4.153   2.696  19.440  0.00  0.00    +0.000 C 
ATOM      7  O   UNL     1       3.548   2.270  18.460  0.00  0.00    +0.000 OA
ATOM      8  S   UNL     1       5.139   3.970  16.757  0.00  0.00    +0.000 S 
ATOM      9  H   UNL     1       5.788   3.666  20.275  0.00  0.00    +0.000 HD
ENDROOT
BRANCH   1  10
ATOM     10  S   UNL     1       6.637   4.986  14.418  0.00  0.00    +0.000 S 
ATOM     11  O   UNL     1       5.714   6.068  14.157  0.00  0.00    +0.000 OA
ATOM     12  O   UNL     1       6.529   3.707  13.751  0.00  0.00    +0.000 OA
BRANCH  10  13
ATOM     13  N   UNL     1       8.169   5.561  14.002  0.00  0.00    +0.000 NA
ATOM     14  H   UNL     1       8.370   5.297  13.039  0.00  0.00    +0.000 HD
ATOM     15  H   UNL     1       8.868   5.196  14.651  0.00  0.00    +0.000 HD
ENDBRANCH  10  13
ENDBRANCH   1  10
BRANCH   6  16
ATOM     16  C   UNL     1       3.699   2.331  20.842  0.00  0.00    +0.000 C 
BRANCH  16  17
ATOM     17  C   UNL     1       2.427   3.063  21.256  0.00  0.00    +0.000 C 
ATOM     18  C   UNL     1       2.316   4.564  20.875  0.00  0.00    +0.000 C 
ATOM     19  C   UNL     1       0.818   4.315  20.614  0.00  0.00    +0.000 C 
ATOM     20  C   UNL     1       1.178   2.836  20.363  0.00  0.00    +0.000 C 
ENDBRANCH  16  17
ENDBRANCH   6  16
TORSDOF 4
ENDMDL
MODEL 6
REMARK VINA RESULT:      -6.6      2.961      6.818
REMARK  Name = 
REMARK  4 active torsions:
REMARK  status: ('A' for Active; 'I' for Inactive)
REMARK    1  A    between atoms: N_1  and  S_2
REMARK    2  A    between atoms: S_2  and  C_5
REMARK    3  A    between atoms: C_10  and  C_12
REMARK    4  A    between atoms: C_12  and  C_13
REMARK                            x       y       z     vdW  Elec       q    Type
REMARK                         _______ _______ _______ _____ _____    ______ ____
ROOT
ATOM      1  C   UNL     1       3.348   3.800  19.820  0.00  0.00    +0.000 A 
ATOM      2  N   UNL     1       4.358   3.007  20.112  0.00  0.00    +0.000 NA
ATOM      3  N   UNL     1       5.293   2.998  19.084  0.00  0.00    +0.000 NA
ATOM      4  C   UNL     1       4.968   3.824  18.113  0.00  0.00    +0.000 A 
ATOM      5  N   UNL     1       5.743   4.004  16.993  0.00  0.00    +0.000 N 
ATOM      6  C   UNL     1       5.618   5.042  16.096  0.00  0.00    +0.000 C 
ATOM      7  O   UNL     1       4.802   5.958  16.157  0.00  0.00    +0.000 OA
ATOM      8  S   UNL     1       3.466   4.606  18.327  0.00  0.00    +0.000 S 
ATOM      9  H   UNL     1       6.548   3.391  16.944  0.00  0.00    +0.000 HD
ENDROOT
BRANCH   1  10
ATOM     10  S   UNL     1       1.932   4.117  20.807  0.00  0.00    +0.000 S 
ATOM     11  O   UNL     1       2.139   3.453  22.075  0.00  0.00    +0.000 OA
ATOM     12  O   UNL     1       0.783   3.839  19.973  0.00  0.00    +0.000 OA
BRANCH  10  13
ATOM     13  N   UNL     1       1.826   5.768  21.150  0.00  0.00    +0.000 NA
ATOM     14  H   UNL     1       1.932   5.903  22.154  0.00  0.00    +0.000 HD
ATOM     15  H   UNL     1       0.939   6.140  20.806  0.00  0.00    +0.000 HD
ENDBRANCH  10  13
ENDBRANCH   1  10
BRANCH   6  16
ATOM     16  C   UNL     1       6.629   4.987  14.966  0.00  0.00    +0.000 C 
BRANCH  16  17
ATOM     17  C   UNL     1       6.368   3.835  14.001  0.00  0.00    +0.000 C 
ATOM     18  C   UNL     1       4.962   3.763  13.346  0.00  0.00    +0.000 C 
ATOM     19  C   UNL     1       5.663   3.278  12.062  0.00  0.00    +0.000 C 
ATOM     20  C   UNL     1       6.931   3.998  12.564  0.00  0.00    +0.000 C 
ENDBRANCH  16  17
ENDBRANCH   6  16
TORSDOF 4
ENDMDL
MODEL 7
REMARK VINA RESULT:      -6.6      3.440      4.160
REMARK  Name = 
REMARK  4 active torsions:
REMARK  status: ('A' for Active; 'I' for Inactive)
REMARK    1  A    between atoms: N_1  and  S_2
REMARK    2  A    between atoms: S_2  and  C_5
REMARK    3  A    between atoms: C_10  and  C_12
REMARK    4  A    between atoms: C_12  and  C_13
REMARK                            x       y       z     vdW  Elec       q    Type
REMARK                         _______ _______ _______ _____ _____    ______ ____
ROOT
ATOM      1  C   UNL     1       5.628   4.688  17.805  0.00  0.00    +0.000 A 
ATOM      2  N   UNL     1       5.482   3.746  18.714  0.00  0.00    +0.000 NA
ATOM      3  N   UNL     1       4.552   4.124  19.675  0.00  0.00    +0.000 NA
ATOM      4  C   UNL     1       4.009   5.291  19.404  0.00  0.00    +0.000 A 
ATOM      5  N   UNL     1       3.049   5.872  20.197  0.00  0.00    +0.000 N 
ATOM      6  C   UNL     1       2.244   6.927  19.829  0.00  0.00    +0.000 C 
ATOM      7  O   UNL     1       2.260   7.509  18.747  0.00  0.00    +0.000 OA
ATOM      8  S   UNL     1       4.645   6.060  18.019  0.00  0.00    +0.000 S 
ATOM      9  H   UNL     1       2.849   5.358  21.047  0.00  0.00    +0.000 HD
ENDROOT
BRANCH   1  10
ATOM     10  S   UNL     1       6.697   4.660  16.414  0.00  0.00    +0.000 S 
ATOM     11  O   UNL     1       8.028   4.383  16.905  0.00  0.00    +0.000 OA
ATOM     12  O   UNL     1       6.395   5.847  15.644  0.00  0.00    +0.000 OA
BRANCH  10  13
ATOM     13  N   UNL     1       6.290   3.372  15.399  0.00  0.00    +0.000 NA
ATOM     14  H   UNL     1       5.593   3.691  14.727  0.00  0.00    +0.000 HD
ATOM     15  H   UNL     1       5.953   2.584  15.953  0.00  0.00    +0.000 HD
ENDBRANCH  10  13
ENDBRANCH   1  10
BRANCH   6  16
ATOM     16  C   UNL     1       1.262   7.341  20.910  0.00  0.00    +0.000 C 
BRANCH  16  17
ATOM     17  C   UNL     1       1.239   8.850  21.135  0.00  0.00    +0.000 C 
ATOM     18  C   UNL     1       0.055   9.641  20.515  0.00  0.00    +0.000 C 
ATOM     19  C   UNL     1       0.076  10.523  21.778  0.00  0.00    +0.000 C 
ATOM     20  C   UNL     1       0.721   9.332  22.516  0.00  0.00    +0.000 C 
ENDBRANCH  16  17
ENDBRANCH   6  16
TORSDOF 4
ENDMDL
MODEL 8
REMARK VINA RESULT:      -6.5      2.895      6.883
REMARK  Name = 
REMARK  4 active torsions:
REMARK  status: ('A' for Active; 'I' for Inactive)
REMARK    1  A    between atoms: N_1  and  S_2
REMARK    2  A    between atoms: S_2  and  C_5
REMARK    3  A    between atoms: C_10  and  C_12
REMARK    4  A    between atoms: C_12  and  C_13
REMARK                            x       y       z     vdW  Elec       q    Type
REMARK                         _______ _______ _______ _____ _____    ______ ____
ROOT
ATOM      1  C   UNL     1       2.940   3.370  19.791  0.00  0.00    +0.000 A 
ATOM      2  N   UNL     1       3.994   2.731  20.257  0.00  0.00    +0.000 NA
ATOM      3  N   UNL     1       5.087   2.900  19.415  0.00  0.00    +0.000 NA
ATOM      4  C   UNL     1       4.814   3.699  18.406  0.00  0.00    +0.000 A 
ATOM      5  N   UNL     1       5.738   4.034  17.446  0.00  0.00    +0.000 N 
ATOM      6  C   UNL     1       5.613   5.071  16.547  0.00  0.00    +0.000 C 
ATOM      7  O   UNL     1       4.666   5.848  16.465  0.00  0.00    +0.000 OA
ATOM      8  S   UNL     1       3.194   4.234  18.349  0.00  0.00    +0.000 S 
ATOM      9  H   UNL     1       6.625   3.553  17.540  0.00  0.00    +0.000 HD
ENDROOT
BRANCH   1  10
ATOM     10  S   UNL     1       1.339   3.433  20.508  0.00  0.00    +0.000 S 
ATOM     11  O   UNL     1       0.474   2.612  19.690  0.00  0.00    +0.000 OA
ATOM     12  O   UNL     1       1.060   4.830  20.759  0.00  0.00    +0.000 OA
BRANCH  10  13
ATOM     13  N   UNL     1       1.364   2.716  22.037  0.00  0.00    +0.000 NA
ATOM     14  H   UNL     1       0.688   1.954  22.055  0.00  0.00    +0.000 HD
ATOM     15  H   UNL     1       1.168   3.416  22.755  0.00  0.00    +0.000 HD
ENDBRANCH  10  13
ENDBRANCH   1  10
BRANCH   6  16
ATOM     16  C   UNL     1       6.805   5.209  15.619  0.00  0.00    +0.000 C 
BRANCH  16  17
ATOM     17  C   UNL     1       6.423   5.071  14.148  0.00  0.00    +0.000 C 
ATOM     18  C   UNL     1       7.566   4.760  13.144  0.00  0.00    +0.000 C 
ATOM     19  C   UNL     1       6.565   3.864  12.390  0.00  0.00    +0.000 C 
ATOM     20  C   UNL     1       5.801   3.715  13.722  0.00  0.00    +0.000 C 
ENDBRANCH  16  17
ENDBRANCH   6  16
TORSDOF 4
ENDMDL
MODEL 9
REMARK VINA RESULT:      -6.5      3.172      6.955
REMARK  Name = 
REMARK  4 active torsions:
REMARK  status: ('A' for Active; 'I' for Inactive)
REMARK    1  A    between atoms: N_1  and  S_2
REMARK    2  A    between atoms: S_2  and  C_5
REMARK    3  A    between atoms: C_10  and  C_12
REMARK    4  A    between atoms: C_12  and  C_13
REMARK                            x       y       z     vdW  Elec       q    Type
REMARK                         _______ _______ _______ _____ _____    ______ ____
ROOT
ATOM      1  C   UNL     1       2.873   3.471  19.330  0.00  0.00    +0.000 A 
ATOM      2  N   UNL     1       3.442   2.296  19.153  0.00  0.00    +0.000 NA
ATOM      3  N   UNL     1       4.276   2.313  18.042  0.00  0.00    +0.000 NA
ATOM      4  C   UNL     1       4.336   3.504  17.487  0.00  0.00    +0.000 A 
ATOM      5  N   UNL     1       5.106   3.777  16.383  0.00  0.00    +0.000 N 
ATOM      6  C   UNL     1       5.438   5.037  15.935  0.00  0.00    +0.000 C 
ATOM      7  O   UNL     1       5.098   6.101  16.446  0.00  0.00    +0.000 OA
ATOM      8  S   UNL     1       3.320   4.670  18.210  0.00  0.00    +0.000 S 
ATOM      9  H   UNL     1       5.567   2.966  15.989  0.00  0.00    +0.000 HD
ENDROOT
BRANCH   1  10
ATOM     10  S   UNL     1       1.738   3.917  20.592  0.00  0.00    +0.000 S 
ATOM     11  O   UNL     1       0.446   3.393  20.208  0.00  0.00    +0.000 OA
ATOM     12  O   UNL     1       1.949   5.325  20.851  0.00  0.00    +0.000 OA
BRANCH  10  13
ATOM     13  N   UNL     1       2.150   3.146  22.037  0.00  0.00    +0.000 NA
ATOM     14  H   UNL     1       2.659   2.291  21.821  0.00  0.00    +0.000 HD
ATOM     15  H   UNL     1       1.310   2.961  22.587  0.00  0.00    +0.000 HD
ENDBRANCH  10  13
ENDBRANCH   1  10
BRANCH   6  16
ATOM     16  C   UNL     1       6.320   5.025  14.701  0.00  0.00    +0.000 C 
BRANCH  16  17
ATOM     17  C   UNL     1       6.106   3.784  13.838  0.00  0.00    +0.000 C 
ATOM     18  C   UNL     1       4.834   3.751  12.948  0.00  0.00    +0.000 C 
ATOM     19  C   UNL     1       5.688   3.045  11.877  0.00  0.00    +0.000 C 
ATOM     20  C   UNL     1       6.921   3.711  12.521  0.00  0.00    +0.000 C 
ENDBRANCH  16  17
ENDBRANCH   6  16
TORSDOF 4
ENDMDL
