MODEL 1
REMARK VINA RESULT:      -8.0      0.000      0.000
REMARK  Name = 
REMARK  4 active torsions:
REMARK  status: ('A' for Active; 'I' for Inactive)
REMARK    1  A    between atoms: C_6  and  O_7
REMARK    2  A    between atoms: O_7  and  C_8
REMARK    3  A    between atoms: C_10  and  C_11
REMARK    4  A    between atoms: C_12  and  C_13
REMARK                            x       y       z     vdW  Elec       q    Type
REMARK                         _______ _______ _______ _____ _____    ______ ____
ROOT
ATOM      1  C   UNL     1       5.729   5.864  16.824  0.00  0.00    +0.000 C 
ATOM      2  C   UNL     1       6.432   7.166  17.071  0.00  0.00    +0.000 C 
ATOM      3  C   UNL     1       7.487   7.315  17.894  0.00  0.00    +0.000 C 
ATOM      4  C   UNL     1       8.062   6.149  18.650  0.00  0.00    +0.000 C 
ATOM      5  C   UNL     1       7.400   4.773  18.508  0.00  0.00    +0.000 C 
ATOM      6  C   UNL     1       6.148   4.633  17.642  0.00  0.00    +0.000 C 
ENDROOT
BRANCH   3   7
ATOM      7  C   UNL     1       8.102   8.604  18.070  0.00  0.00    +0.000 C 
ATOM      8  C   UNL     1       8.599   9.699  18.192  0.00  0.00    +0.000 C 
BRANCH   8   9
ATOM      9  C   UNL     1       9.223  10.979  18.356  0.00  0.00    +0.000 A 
ATOM     10  C   UNL     1      10.330  11.123  19.188  0.00  0.00    +0.000 A 
ATOM     11  C   UNL     1      10.812  12.405  19.433  0.00  0.00    +0.000 A 
ATOM     12  C   UNL     1      10.207  13.495  18.817  0.00  0.00    +0.000 A 
ATOM     13  C   UNL     1       9.152  13.244  17.953  0.00  0.00    +0.000 A 
ATOM     14  N   UNL     1       8.638  12.013  17.718  0.00  0.00    +0.000 NA
ENDBRANCH   8   9
ENDBRANCH   3   7
BRANCH   1  15
ATOM     15  O   UNL     1       4.294   6.018  16.766  0.00  0.00    +0.000 OA
BRANCH  15  21
ATOM     16 CL   UNL     1       0.979   2.560  18.688  0.00  0.00    +0.000 Cl
ATOM     17  C   UNL     1       1.918   3.996  18.755  0.00  0.00    +0.000 A 
ATOM     18  C   UNL     1       1.843   4.848  19.846  0.00  0.00    +0.000 A 
ATOM     19  N   UNL     1       2.541   6.002  19.939  0.00  0.00    +0.000 NA
ATOM     20  C   UNL     1       3.334   6.310  18.882  0.00  0.00    +0.000 A 
ATOM     21  C   UNL     1       3.473   5.525  17.736  0.00  0.00    +0.000 A 
ATOM     22  C   UNL     1       2.752   4.337  17.693  0.00  0.00    +0.000 A 
ENDBRANCH  15  21
ENDBRANCH   1  15
TORSDOF 4
ENDMDL
MODEL 2
REMARK VINA RESULT:      -7.9      0.717      1.093
REMARK  Name = 
REMARK  4 active torsions:
REMARK  status: ('A' for Active; 'I' for Inactive)
REMARK    1  A    between atoms: C_6  and  O_7
REMARK    2  A    between atoms: O_7  and  C_8
REMARK    3  A    between atoms: C_10  and  C_11
REMARK    4  A    between atoms: C_12  and  C_13
REMARK                            x       y       z     vdW  Elec       q    Type
REMARK                         _______ _______ _______ _____ _____    ______ ____
ROOT
ATOM      1  C   UNL     1       5.292   5.978  16.906  0.00  0.00    +0.000 C 
ATOM      2  C   UNL     1       6.086   7.228  17.147  0.00  0.00    +0.000 C 
ATOM      3  C   UNL     1       7.244   7.271  17.834  0.00  0.00    +0.000 C 
ATOM      4  C   UNL     1       7.849   6.029  18.428  0.00  0.00    +0.000 C 
ATOM      5  C   UNL     1       7.106   4.696  18.279  0.00  0.00    +0.000 C 
ATOM      6  C   UNL     1       5.748   4.674  17.576  0.00  0.00    +0.000 C 
ENDROOT
BRANCH   3   7
ATOM      7  C   UNL     1       7.940   8.516  18.016  0.00  0.00    +0.000 C 
ATOM      8  C   UNL     1       8.500   9.579  18.155  0.00  0.00    +0.000 C 
BRANCH   8   9
ATOM      9  C   UNL     1       9.200  10.819  18.322  0.00  0.00    +0.000 A 
ATOM     10  C   UNL     1       8.745  11.975  17.692  0.00  0.00    +0.000 A 
ATOM     11  C   UNL     1       9.533  13.120  17.761  0.00  0.00    +0.000 A 
ATOM     12  C   UNL     1      10.723  13.092  18.480  0.00  0.00    +0.000 A 
ATOM     13  C   UNL     1      11.058  11.913  19.128  0.00  0.00    +0.000 A 
ATOM     14  N   UNL     1      10.330  10.772  19.054  0.00  0.00    +0.000 NA
ENDBRANCH   8   9
ENDBRANCH   3   7
BRANCH   1  15
ATOM     15  O   UNL     1       3.871   6.196  17.045  0.00  0.00    +0.000 OA
BRANCH  15  21
ATOM     16 CL   UNL     1       0.806   2.379  18.681  0.00  0.00    +0.000 Cl
ATOM     17  C   UNL     1       1.695   3.835  18.882  0.00  0.00    +0.000 A 
ATOM     18  C   UNL     1       1.653   4.537  20.076  0.00  0.00    +0.000 A 
ATOM     19  N   UNL     1       2.313   5.699  20.280  0.00  0.00    +0.000 NA
ATOM     20  C   UNL     1       3.029   6.175  19.230  0.00  0.00    +0.000 A 
ATOM     21  C   UNL     1       3.128   5.548  17.987  0.00  0.00    +0.000 A 
ATOM     22  C   UNL     1       2.451   4.344  17.830  0.00  0.00    +0.000 A 
ENDBRANCH  15  21
ENDBRANCH   1  15
TORSDOF 4
ENDMDL
MODEL 3
REMARK VINA RESULT:      -7.9      1.668      1.973
REMARK  Name = 
REMARK  4 active torsions:
REMARK  status: ('A' for Active; 'I' for Inactive)
REMARK    1  A    between atoms: C_6  and  O_7
REMARK    2  A    between atoms: O_7  and  C_8
REMARK    3  A    between atoms: C_10  and  C_11
REMARK    4  A    between atoms: C_12  and  C_13
REMARK                            x       y       z     vdW  Elec       q    Type
REMARK                         _______ _______ _______ _____ _____    ______ ____
ROOT
ATOM      1  C   UNL     1       4.731   5.925  16.865  0.00  0.00    +0.000 C 
ATOM      2  C   UNL     1       5.618   7.060  17.282  0.00  0.00    +0.000 C 
ATOM      3  C   UNL     1       6.940   6.947  17.510  0.00  0.00    +0.000 C 
ATOM      4  C   UNL     1       7.652   5.632  17.354  0.00  0.00    +0.000 C 
ATOM      5  C   UNL     1       6.841   4.389  16.969  0.00  0.00    +0.000 C 
ATOM      6  C   UNL     1       5.326   4.510  16.802  0.00  0.00    +0.000 C 
ENDROOT
BRANCH   3   7
ATOM      7  C   UNL     1       7.715   8.093  17.907  0.00  0.00    +0.000 C 
ATOM      8  C   UNL     1       8.379   9.037  18.266  0.00  0.00    +0.000 C 
BRANCH   8   9
ATOM      9  C   UNL     1       9.140  10.183  18.671  0.00  0.00    +0.000 A 
ATOM     10  C   UNL     1       9.813  10.952  17.725  0.00  0.00    +0.000 A 
ATOM     11  C   UNL     1      10.655  11.965  18.173  0.00  0.00    +0.000 A 
ATOM     12  C   UNL     1      10.774  12.205  19.537  0.00  0.00    +0.000 A 
ATOM     13  C   UNL     1      10.012  11.429  20.398  0.00  0.00    +0.000 A 
ATOM     14  N   UNL     1       9.208  10.416  19.996  0.00  0.00    +0.000 NA
ENDBRANCH   8   9
ENDBRANCH   3   7
BRANCH   1  15
ATOM     15  O   UNL     1       3.454   5.951  17.539  0.00  0.00    +0.000 OA
BRANCH  15  21
ATOM     16 CL   UNL     1       2.514   2.968  21.644  0.00  0.00    +0.000 Cl
ATOM     17  C   UNL     1       2.428   3.363  19.975  0.00  0.00    +0.000 A 
ATOM     18  C   UNL     1       1.853   2.491  19.064  0.00  0.00    +0.000 A 
ATOM     19  N   UNL     1       1.782   2.741  17.737  0.00  0.00    +0.000 NA
ATOM     20  C   UNL     1       2.328   3.910  17.317  0.00  0.00    +0.000 A 
ATOM     21  C   UNL     1       2.936   4.849  18.151  0.00  0.00    +0.000 A 
ATOM     22  C   UNL     1       2.967   4.560  19.511  0.00  0.00    +0.000 A 
ENDBRANCH  15  21
ENDBRANCH   1  15
TORSDOF 4
ENDMDL
MODEL 4
REMARK VINA RESULT:      -7.9      1.880      2.479
REMARK  Name = 
REMARK  4 active torsions:
REMARK  status: ('A' for Active; 'I' for Inactive)
REMARK    1  A    between atoms: C_6  and  O_7
REMARK    2  A    between atoms: O_7  and  C_8
REMARK    3  A    between atoms: C_10  and  C_11
REMARK    4  A    between atoms: C_12  and  C_13
REMARK                            x       y       z     vdW  Elec       q    Type
REMARK                         _______ _______ _______ _____ _____    ______ ____
ROOT
ATOM      1  C   UNL     1       5.079   4.521  17.105  0.00  0.00    +0.000 C 
ATOM      2  C   UNL     1       5.775   5.775  17.545  0.00  0.00    +0.000 C 
ATOM      3  C   UNL     1       6.790   6.355  16.877  0.00  0.00    +0.000 C 
ATOM      4  C   UNL     1       7.318   5.772  15.595  0.00  0.00    +0.000 C 
ATOM      5  C   UNL     1       6.710   4.468  15.067  0.00  0.00    +0.000 C 
ATOM      6  C   UNL     1       5.621   3.769  15.880  0.00  0.00    +0.000 C 
ENDROOT
BRANCH   3   7
ATOM      7  C   UNL     1       7.399   7.560  17.373  0.00  0.00    +0.000 C 
ATOM      8  C   UNL     1       7.883   8.591  17.780  0.00  0.00    +0.000 C 
BRANCH   8   9
ATOM      9  C   UNL     1       8.495   9.795  18.260  0.00  0.00    +0.000 A 
ATOM     10  C   UNL     1       8.324  10.994  17.573  0.00  0.00    +0.000 A 
ATOM     11  C   UNL     1       9.052  12.105  17.990  0.00  0.00    +0.000 A 
ATOM     12  C   UNL     1       9.893  12.000  19.092  0.00  0.00    +0.000 A 
ATOM     13  C   UNL     1       9.946  10.781  19.750  0.00  0.00    +0.000 A 
ATOM     14  N   UNL     1       9.276   9.673  19.352  0.00  0.00    +0.000 NA
ENDBRANCH   8   9
ENDBRANCH   3   7
BRANCH   1  15
ATOM     15  O   UNL     1       4.797   3.634  18.209  0.00  0.00    +0.000 OA
BRANCH  15  21
ATOM     16 CL   UNL     1       1.310   2.514  21.846  0.00  0.00    +0.000 Cl
ATOM     17  C   UNL     1       1.796   2.898  20.245  0.00  0.00    +0.000 A 
ATOM     18  C   UNL     1       0.876   2.937  19.209  0.00  0.00    +0.000 A 
ATOM     19  N   UNL     1       1.209   3.210  17.927  0.00  0.00    +0.000 NA
ATOM     20  C   UNL     1       2.524   3.436  17.684  0.00  0.00    +0.000 A 
ATOM     21  C   UNL     1       3.528   3.412  18.653  0.00  0.00    +0.000 A 
ATOM     22  C   UNL     1       3.137   3.149  19.961  0.00  0.00    +0.000 A 
ENDBRANCH  15  21
ENDBRANCH   1  15
TORSDOF 4
ENDMDL
MODEL 5
REMARK VINA RESULT:      -7.9      5.287      7.297
REMARK  Name = 
REMARK  4 active torsions:
REMARK  status: ('A' for Active; 'I' for Inactive)
REMARK    1  A    between atoms: C_6  and  O_7
REMARK    2  A    between atoms: O_7  and  C_8
REMARK    3  A    between atoms: C_10  and  C_11
REMARK    4  A    between atoms: C_12  and  C_13
REMARK                            x       y       z     vdW  Elec       q    Type
REMARK                         _______ _______ _______ _____ _____    ______ ____
ROOT
ATOM      1  C   UNL     1       3.891   4.056  18.965  0.00  0.00    +0.000 C 
ATOM      2  C   UNL     1       3.190   5.310  19.398  0.00  0.00    +0.000 C 
ATOM      3  C   UNL     1       2.366   5.391  20.460  0.00  0.00    +0.000 C 
ATOM      4  C   UNL     1       2.080   4.193  21.323  0.00  0.00    +0.000 C 
ATOM      5  C   UNL     1       2.710   2.845  20.954  0.00  0.00    +0.000 C 
ATOM      6  C   UNL     1       3.570   2.743  19.695  0.00  0.00    +0.000 C 
ENDROOT
BRANCH   3   7
ATOM      7  C   UNL     1       1.737   6.638  20.804  0.00  0.00    +0.000 C 
ATOM      8  C   UNL     1       1.180   7.676  21.077  0.00  0.00    +0.000 C 
BRANCH   8   9
ATOM      9  C   UNL     1       0.558   8.925  21.406  0.00  0.00    +0.000 A 
ATOM     10  C   UNL     1       0.065   9.151  22.689  0.00  0.00    +0.000 A 
ATOM     11  C   UNL     1      -0.659  10.315  22.925  0.00  0.00    +0.000 A 
ATOM     12  C   UNL     1      -0.840  11.231  21.895  0.00  0.00    +0.000 A 
ATOM     13  C   UNL     1      -0.255  10.948  20.670  0.00  0.00    +0.000 A 
ATOM     14  N   UNL     1       0.428   9.811  20.399  0.00  0.00    +0.000 NA
ENDBRANCH   8   9
ENDBRANCH   3   7
BRANCH   1  15
ATOM     15  O   UNL     1       3.892   3.897  17.530  0.00  0.00    +0.000 OA
BRANCH  15  21
ATOM     16 CL   UNL     1       6.534   3.965  13.096  0.00  0.00    +0.000 Cl
ATOM     17  C   UNL     1       6.349   4.228  14.783  0.00  0.00    +0.000 A 
ATOM     18  C   UNL     1       7.410   4.668  15.557  0.00  0.00    +0.000 A 
ATOM     19  N   UNL     1       7.325   4.868  16.892  0.00  0.00    +0.000 NA
ATOM     20  C   UNL     1       6.125   4.597  17.464  0.00  0.00    +0.000 A 
ATOM     21  C   UNL     1       5.000   4.143  16.775  0.00  0.00    +0.000 A 
ATOM     22  C   UNL     1       5.127   3.973  15.401  0.00  0.00    +0.000 A 
ENDBRANCH  15  21
ENDBRANCH   1  15
TORSDOF 4
ENDMDL
MODEL 6
REMARK VINA RESULT:      -7.8      4.627      6.447
REMARK  Name = 
REMARK  4 active torsions:
REMARK  status: ('A' for Active; 'I' for Inactive)
REMARK    1  A    between atoms: C_6  and  O_7
REMARK    2  A    between atoms: O_7  and  C_8
REMARK    3  A    between atoms: C_10  and  C_11
REMARK    4  A    between atoms: C_12  and  C_13
REMARK                            x       y       z     vdW  Elec       q    Type
REMARK                         _______ _______ _______ _____ _____    ______ ____
ROOT
ATOM      1  C   UNL     1       4.471   4.131  18.641  0.00  0.00    +0.000 C 
ATOM      2  C   UNL     1       3.949   5.537  18.625  0.00  0.00    +0.000 C 
ATOM      3  C   UNL     1       2.705   5.882  18.242  0.00  0.00    +0.000 C 
ATOM      4  C   UNL     1       1.710   4.849  17.791  0.00  0.00    +0.000 C 
ATOM      5  C   UNL     1       2.142   3.379  17.729  0.00  0.00    +0.000 C 
ATOM      6  C   UNL     1       3.584   3.010  18.078  0.00  0.00    +0.000 C 
ENDROOT
BRANCH   3   7
ATOM      7  C   UNL     1       2.289   7.259  18.260  0.00  0.00    +0.000 C 
ATOM      8  C   UNL     1       1.939   8.415  18.308  0.00  0.00    +0.000 C 
BRANCH   8   9
ATOM      9  C   UNL     1       1.509   9.783  18.326  0.00  0.00    +0.000 A 
ATOM     10  C   UNL     1       2.421  10.811  18.100  0.00  0.00    +0.000 A 
ATOM     11  C   UNL     1       1.993  12.124  18.271  0.00  0.00    +0.000 A 
ATOM     12  C   UNL     1       0.672  12.375  18.623  0.00  0.00    +0.000 A 
ATOM     13  C   UNL     1      -0.177  11.288  18.761  0.00  0.00    +0.000 A 
ATOM     14  N   UNL     1       0.214   9.997  18.633  0.00  0.00    +0.000 NA
ENDBRANCH   8   9
ENDBRANCH   3   7
BRANCH   1  15
ATOM     15  O   UNL     1       5.831   4.045  18.163  0.00  0.00    +0.000 OA
BRANCH  15  21
ATOM     16 CL   UNL     1       5.665   3.452  13.038  0.00  0.00    +0.000 Cl
ATOM     17  C   UNL     1       6.189   4.216  14.484  0.00  0.00    +0.000 A 
ATOM     18  C   UNL     1       7.115   5.246  14.452  0.00  0.00    +0.000 A 
ATOM     19  N   UNL     1       7.580   5.865  15.562  0.00  0.00    +0.000 NA
ATOM     20  C   UNL     1       7.098   5.412  16.747  0.00  0.00    +0.000 A 
ATOM     21  C   UNL     1       6.171   4.378  16.886  0.00  0.00    +0.000 A 
ATOM     22  C   UNL     1       5.705   3.786  15.717  0.00  0.00    +0.000 A 
ENDBRANCH  15  21
ENDBRANCH   1  15
TORSDOF 4
ENDMDL
MODEL 7
REMARK VINA RESULT:      -7.8      1.165      1.401
REMARK  Name = 
REMARK  4 active torsions:
REMARK  status: ('A' for Active; 'I' for Inactive)
REMARK    1  A    between atoms: C_6  and  O_7
REMARK    2  A    between atoms: O_7  and  C_8
REMARK    3  A    between atoms: C_10  and  C_11
REMARK    4  A    between atoms: C_12  and  C_13
REMARK                            x       y       z     vdW  Elec       q    Type
REMARK                         _______ _______ _______ _____ _____    ______ ____
ROOT
ATOM      1  C   UNL     1       6.036   5.864  16.833  0.00  0.00    +0.000 C 
ATOM      2  C   UNL     1       6.679   7.204  17.040  0.00  0.00    +0.000 C 
ATOM      3  C   UNL     1       7.657   7.447  17.933  0.00  0.00    +0.000 C 
ATOM      4  C   UNL     1       8.201   6.358  18.815  0.00  0.00    +0.000 C 
ATOM      5  C   UNL     1       7.593   4.953  18.721  0.00  0.00    +0.000 C 
ATOM      6  C   UNL     1       6.422   4.710  17.770  0.00  0.00    +0.000 C 
ENDROOT
BRANCH   3   7
ATOM      7  C   UNL     1       8.218   8.766  18.063  0.00  0.00    +0.000 C 
ATOM      8  C   UNL     1       8.692   9.875  18.139  0.00  0.00    +0.000 C 
BRANCH   8   9
ATOM      9  C   UNL     1       9.265  11.183  18.269  0.00  0.00    +0.000 A 
ATOM     10  C   UNL     1      10.430  11.372  19.008  0.00  0.00    +0.000 A 
ATOM     11  C   UNL     1      10.870  12.673  19.230  0.00  0.00    +0.000 A 
ATOM     12  C   UNL     1      10.163  13.739  18.683  0.00  0.00    +0.000 A 
ATOM     13  C   UNL     1       9.052  13.446  17.907  0.00  0.00    +0.000 A 
ATOM     14  N   UNL     1       8.580  12.194  17.698  0.00  0.00    +0.000 NA
ENDBRANCH   8   9
ENDBRANCH   3   7
BRANCH   1  15
ATOM     15  O   UNL     1       4.607   5.964  16.649  0.00  0.00    +0.000 OA
BRANCH  15  21
ATOM     16 CL   UNL     1       1.479   5.213  20.685  0.00  0.00    +0.000 Cl
ATOM     17  C   UNL     1       2.240   4.746  19.218  0.00  0.00    +0.000 A 
ATOM     18  C   UNL     1       2.058   3.477  18.692  0.00  0.00    +0.000 A 
ATOM     19  N   UNL     1       2.653   3.050  17.555  0.00  0.00    +0.000 NA
ATOM     20  C   UNL     1       3.473   3.936  16.937  0.00  0.00    +0.000 A 
ATOM     21  C   UNL     1       3.729   5.232  17.390  0.00  0.00    +0.000 A 
ATOM     22  C   UNL     1       3.079   5.635  18.551  0.00  0.00    +0.000 A 
ENDBRANCH  15  21
ENDBRANCH   1  15
TORSDOF 4
ENDMDL
MODEL 8
REMARK VINA RESULT:      -7.8      1.416      1.614
REMARK  Name = 
REMARK  4 active torsions:
REMARK  status: ('A' for Active; 'I' for Inactive)
REMARK    1  A    between atoms: C_6  and  O_7
REMARK    2  A    between atoms: O_7  and  C_8
REMARK    3  A    between atoms: C_10  and  C_11
REMARK    4  A    between atoms: C_12  and  C_13
REMARK                            x       y       z     vdW  Elec       q    Type
REMARK                         _______ _______ _______ _____ _____    ______ ____
ROOT
ATOM      1  C   UNL     1       4.904   5.795  16.845  0.00  0.00    +0.000 C 
ATOM      2  C   UNL     1       5.716   7.010  17.181  0.00  0.00    +0.000 C 
ATOM      3  C   UNL     1       7.001   6.978  17.585  0.00  0.00    +0.000 C 
ATOM      4  C   UNL     1       7.744   5.679  17.730  0.00  0.00    +0.000 C 
ATOM      5  C   UNL     1       7.004   4.365  17.451  0.00  0.00    +0.000 C 
ATOM      6  C   UNL     1       5.521   4.408  17.082  0.00  0.00    +0.000 C 
ENDROOT
BRANCH   3   7
ATOM      7  C   UNL     1       7.704   8.197  17.886  0.00  0.00    +0.000 C 
ATOM      8  C   UNL     1       8.266   9.237  18.134  0.00  0.00    +0.000 C 
BRANCH   8   9
ATOM      9  C   UNL     1       8.970  10.454  18.418  0.00  0.00    +0.000 A 
ATOM     10  C   UNL     1       9.842  10.527  19.501  0.00  0.00    +0.000 A 
ATOM     11  C   UNL     1      10.391  11.764  19.827  0.00  0.00    +0.000 A 
ATOM     12  C   UNL     1      10.086  12.876  19.050  0.00  0.00    +0.000 A 
ATOM     13  C   UNL     1       9.259  12.690  17.953  0.00  0.00    +0.000 A 
ATOM     14  N   UNL     1       8.684  11.507  17.627  0.00  0.00    +0.000 NA
ENDBRANCH   8   9
ENDBRANCH   3   7
BRANCH   1  15
ATOM     15  O   UNL     1       3.552   5.884  17.344  0.00  0.00    +0.000 OA
BRANCH  15  21
ATOM     16 CL   UNL     1       2.315   3.446  21.722  0.00  0.00    +0.000 Cl
ATOM     17  C   UNL     1       2.331   3.634  20.015  0.00  0.00    +0.000 A 
ATOM     18  C   UNL     1       1.787   2.666  19.185  0.00  0.00    +0.000 A 
ATOM     19  N   UNL     1       1.796   2.752  17.836  0.00  0.00    +0.000 NA
ATOM     20  C   UNL     1       2.392   3.851  17.308  0.00  0.00    +0.000 A 
ATOM     21  C   UNL     1       2.975   4.875  18.056  0.00  0.00    +0.000 A 
ATOM     22  C   UNL     1       2.923   4.756  19.440  0.00  0.00    +0.000 A 
ENDBRANCH  15  21
ENDBRANCH   1  15
TORSDOF 4
ENDMDL
MODEL 9
REMARK VINA RESULT:      -7.7      4.360      7.173
REMARK  Name = 
REMARK  4 active torsions:
REMARK  status: ('A' for Active; 'I' for Inactive)
REMARK    1  A    between atoms: C_6  and  O_7
REMARK    2  A    between atoms: O_7  and  C_8
REMARK    3  A    between atoms: C_10  and  C_11
REMARK    4  A    between atoms: C_12  and  C_13
REMARK                            x       y       z     vdW  Elec       q    Type
REMARK                         _______ _______ _______ _____ _____    ______ ____
ROOT
ATOM      1  C   UNL     1       3.675   3.449  19.503  0.00  0.00    +0.000 C 
ATOM      2  C   UNL     1       3.179   4.813  19.880  0.00  0.00    +0.000 C 
ATOM      3  C   UNL     1       1.926   5.077  20.298  0.00  0.00    +0.000 C 
ATOM      4  C   UNL     1       0.897   3.988  20.427  0.00  0.00    +0.000 C 
ATOM      5  C   UNL     1       1.278   2.556  20.031  0.00  0.00    +0.000 C 
ATOM      6  C   UNL     1       2.674   2.283  19.472  0.00  0.00    +0.000 C 
ENDROOT
BRANCH   3   7
ATOM      7  C   UNL     1       1.537   6.419  20.641  0.00  0.00    +0.000 C 
ATOM      8  C   UNL     1       1.177   7.537  20.927  0.00  0.00    +0.000 C 
BRANCH   8   9
ATOM      9  C   UNL     1       0.788   8.878  21.254  0.00  0.00    +0.000 A 
ATOM     10  C   UNL     1       0.147   9.152  22.459  0.00  0.00    +0.000 A 
ATOM     11  C   UNL     1      -0.342  10.437  22.672  0.00  0.00    +0.000 A 
ATOM     12  C   UNL     1      -0.148  11.414  21.702  0.00  0.00    +0.000 A 
ATOM     13  C   UNL     1       0.560  11.061  20.563  0.00  0.00    +0.000 A 
ATOM     14  N   UNL     1       1.021   9.813  20.312  0.00  0.00    +0.000 NA
ENDBRANCH   8   9
ENDBRANCH   3   7
BRANCH   1  15
ATOM     15  O   UNL     1       4.518   3.476  18.331  0.00  0.00    +0.000 OA
BRANCH  15  21
ATOM     16 CL   UNL     1       8.198   7.082  18.634  0.00  0.00    +0.000 Cl
ATOM     17  C   UNL     1       6.801   6.362  17.943  0.00  0.00    +0.000 A 
ATOM     18  C   UNL     1       6.129   6.970  16.895  0.00  0.00    +0.000 A 
ATOM     19  N   UNL     1       5.011   6.459  16.331  0.00  0.00    +0.000 NA
ATOM     20  C   UNL     1       4.549   5.297  16.860  0.00  0.00    +0.000 A 
ATOM     21  C   UNL     1       5.148   4.613  17.919  0.00  0.00    +0.000 A 
ATOM     22  C   UNL     1       6.307   5.164  18.453  0.00  0.00    +0.000 A 
ENDBRANCH  15  21
ENDBRANCH   1  15
TORSDOF 4
ENDMDL
