MODEL 1
REMARK VINA RESULT:      -7.6      0.000      0.000
REMARK  Name = 
REMARK  8 active torsions:
REMARK  status: ('A' for Active; 'I' for Inactive)
REMARK    1  A    between atoms: C_1  and  O_2
REMARK    2  A    between atoms: O_2  and  C_3
REMARK    3  A    between atoms: C_6  and  C_7
REMARK    4  A    between atoms: N_9  and  C_10
REMARK    5  A    between atoms: C_10  and  C_11
REMARK    6  A    between atoms: C_10  and  C_15
REMARK    7  A    between atoms: C_11  and  C_12
REMARK    8  A    between atoms: C_12  and  O_14
REMARK                            x       y       z     vdW  Elec       q    Type
REMARK                         _______ _______ _______ _____ _____    ______ ____
ROOT
ATOM      1  C   UNL     1       2.681   6.244  19.183  0.00  0.00    +0.000 C 
ATOM      2  O   UNL     1       2.957   5.707  20.254  0.00  0.00    +0.000 OA
ATOM      3  N   UNL     1       2.883   5.649  17.955  0.00  0.00    +0.000 N 
ATOM      4  H   UNL     1       2.750   6.237  17.131  0.00  0.00    +0.000 HD
ENDROOT
BRANCH   1   8
ATOM      5  C   UNL     1       1.057  10.161  19.108  0.00  0.00    +0.000 A 
ATOM      6  C   UNL     1       1.619   9.628  17.949  0.00  0.00    +0.000 A 
ATOM      7  C   UNL     1       2.127   8.332  17.963  0.00  0.00    +0.000 A 
ATOM      8  C   UNL     1       2.079   7.611  19.149  0.00  0.00    +0.000 A 
ATOM      9  N   UNL     1       1.547   8.085  20.304  0.00  0.00    +0.000 NA
ATOM     10  C   UNL     1       1.058   9.347  20.246  0.00  0.00    +0.000 A 
ATOM     11 CL   UNL     1       0.393   9.877  21.745  0.00  0.00    +0.000 Cl
BRANCH   5  13
ATOM     12  C   UNL     1      -0.774  11.594  18.691  0.00  0.00    +0.000 C 
ATOM     13  O   UNL     1       0.549  11.429  19.192  0.00  0.00    +0.000 OA
ENDBRANCH   5  13
ENDBRANCH   1   8
BRANCH   3  14
ATOM     14  C   UNL     1       3.573   4.374  17.821  0.00  0.00    +0.000 C 
BRANCH  14  15
ATOM     15  C   UNL     1       4.876   4.483  17.037  0.00  0.00    +0.000 A 
ATOM     16  C   UNL     1       4.906   4.171  15.662  0.00  0.00    +0.000 A 
ATOM     17  C   UNL     1       6.087   4.248  14.922  0.00  0.00    +0.000 A 
ATOM     18  C   UNL     1       7.270   4.639  15.540  0.00  0.00    +0.000 A 
ATOM     19  C   UNL     1       7.270   4.947  16.898  0.00  0.00    +0.000 A 
ATOM     20  C   UNL     1       6.087   4.864  17.643  0.00  0.00    +0.000 A 
ATOM     21 CL   UNL     1       6.201   5.228  19.331  0.00  0.00    +0.000 Cl
ENDBRANCH  14  15
BRANCH  14  22
ATOM     22  C   UNL     1       2.645   3.266  17.301  0.00  0.00    +0.000 C 
BRANCH  22  23
ATOM     23  C   UNL     1       1.764   2.657  18.362  0.00  0.00    +0.000 C 
ATOM     24  O   UNL     1       0.907   3.257  18.993  0.00  0.00    +0.000 OA
BRANCH  23  25
ATOM     25  O   UNL     1       2.066   1.363  18.620  0.00  0.00    +0.000 OA
ATOM     26  H   UNL     1       2.070   1.129  19.568  0.00  0.00    +0.000 HD
ENDBRANCH  23  25
ENDBRANCH  22  23
ENDBRANCH  14  22
ENDBRANCH   3  14
TORSDOF 7
ENDMDL
MODEL 2
REMARK VINA RESULT:      -7.2      1.340      1.647
REMARK  Name = 
REMARK  8 active torsions:
REMARK  status: ('A' for Active; 'I' for Inactive)
REMARK    1  A    between atoms: C_1  and  O_2
REMARK    2  A    between atoms: O_2  and  C_3
REMARK    3  A    between atoms: C_6  and  C_7
REMARK    4  A    between atoms: N_9  and  C_10
REMARK    5  A    between atoms: C_10  and  C_11
REMARK    6  A    between atoms: C_10  and  C_15
REMARK    7  A    between atoms: C_11  and  C_12
REMARK    8  A    between atoms: C_12  and  O_14
REMARK                            x       y       z     vdW  Elec       q    Type
REMARK                         _______ _______ _______ _____ _____    ______ ____
ROOT
ATOM      1  C   UNL     1       2.670   5.688  19.712  0.00  0.00    +0.000 C 
ATOM      2  O   UNL     1       2.916   4.976  20.683  0.00  0.00    +0.000 OA
ATOM      3  N   UNL     1       2.912   5.311  18.407  0.00  0.00    +0.000 N 
ATOM      4  H   UNL     1       2.802   6.031  17.691  0.00  0.00    +0.000 HD
ENDROOT
BRANCH   1   8
ATOM      5  C   UNL     1       0.866   9.497  20.186  0.00  0.00    +0.000 A 
ATOM      6  C   UNL     1       0.722   8.539  21.188  0.00  0.00    +0.000 A 
ATOM      7  C   UNL     1       1.337   7.298  21.049  0.00  0.00    +0.000 A 
ATOM      8  C   UNL     1       2.062   7.041  19.893  0.00  0.00    +0.000 A 
ATOM      9  N   UNL     1       2.228   7.936  18.886  0.00  0.00    +0.000 NA
ATOM     10  C   UNL     1       1.620   9.133  19.064  0.00  0.00    +0.000 A 
ATOM     11 CL   UNL     1       1.881  10.220  17.753  0.00  0.00    +0.000 Cl
BRANCH   5  13
ATOM     12  C   UNL     1       0.031  11.247  21.535  0.00  0.00    +0.000 C 
ATOM     13  O   UNL     1       0.285  10.735  20.230  0.00  0.00    +0.000 OA
ENDBRANCH   5  13
ENDBRANCH   1   8
BRANCH   3  14
ATOM     14  C   UNL     1       3.612   4.077  18.079  0.00  0.00    +0.000 C 
BRANCH  14  15
ATOM     15  C   UNL     1       4.840   4.306  17.203  0.00  0.00    +0.000 A 
ATOM     16  C   UNL     1       4.811   3.962  15.837  0.00  0.00    +0.000 A 
ATOM     17  C   UNL     1       5.924   4.146  15.015  0.00  0.00    +0.000 A 
ATOM     18  C   UNL     1       7.095   4.679  15.540  0.00  0.00    +0.000 A 
ATOM     19  C   UNL     1       7.153   5.021  16.889  0.00  0.00    +0.000 A 
ATOM     20  C   UNL     1       6.040   4.831  17.716  0.00  0.00    +0.000 A 
ATOM     21 CL   UNL     1       6.226   5.250  19.385  0.00  0.00    +0.000 Cl
ENDBRANCH  14  15
BRANCH  14  22
ATOM     22  C   UNL     1       2.664   3.005  17.524  0.00  0.00    +0.000 C 
BRANCH  22  23
ATOM     23  C   UNL     1       1.708   2.444  18.545  0.00  0.00    +0.000 C 
ATOM     24  O   UNL     1       0.516   2.251  18.361  0.00  0.00    +0.000 OA
BRANCH  23  25
ATOM     25  O   UNL     1       2.285   2.239  19.753  0.00  0.00    +0.000 OA
ATOM     26  H   UNL     1       2.953   2.907  20.002  0.00  0.00    +0.000 HD
ENDBRANCH  23  25
ENDBRANCH  22  23
ENDBRANCH  14  22
ENDBRANCH   3  14
TORSDOF 7
ENDMDL
MODEL 3
REMARK VINA RESULT:      -7.0      2.680      4.280
REMARK  Name = 
REMARK  8 active torsions:
REMARK  status: ('A' for Active; 'I' for Inactive)
REMARK    1  A    between atoms: C_1  and  O_2
REMARK    2  A    between atoms: O_2  and  C_3
REMARK    3  A    between atoms: C_6  and  C_7
REMARK    4  A    between atoms: N_9  and  C_10
REMARK    5  A    between atoms: C_10  and  C_11
REMARK    6  A    between atoms: C_10  and  C_15
REMARK    7  A    between atoms: C_11  and  C_12
REMARK    8  A    between atoms: C_12  and  O_14
REMARK                            x       y       z     vdW  Elec       q    Type
REMARK                         _______ _______ _______ _____ _____    ______ ____
ROOT
ATOM      1  C   UNL     1       2.186   7.724  19.130  0.00  0.00    +0.000 C 
ATOM      2  O   UNL     1       2.025   7.763  17.912  0.00  0.00    +0.000 OA
ATOM      3  N   UNL     1       2.944   6.766  19.771  0.00  0.00    +0.000 N 
ATOM      4  H   UNL     1       2.894   6.745  20.791  0.00  0.00    +0.000 HD
ENDROOT
BRANCH   1   8
ATOM      5  C   UNL     1       0.321  10.606  21.621  0.00  0.00    +0.000 A 
ATOM      6  C   UNL     1       0.675   9.366  22.151  0.00  0.00    +0.000 A 
ATOM      7  C   UNL     1       1.314   8.429  21.344  0.00  0.00    +0.000 A 
ATOM      8  C   UNL     1       1.559   8.752  20.015  0.00  0.00    +0.000 A 
ATOM      9  N   UNL     1       1.230   9.940  19.450  0.00  0.00    +0.000 NA
ATOM     10  C   UNL     1       0.617  10.827  20.271  0.00  0.00    +0.000 A 
ATOM     11 CL   UNL     1       0.237  12.314  19.489  0.00  0.00    +0.000 Cl
BRANCH   5  13
ATOM     12  C   UNL     1      -1.417  11.135  23.131  0.00  0.00    +0.000 C 
ATOM     13  O   UNL     1      -0.323  11.580  22.334  0.00  0.00    +0.000 OA
ENDBRANCH   5  13
ENDBRANCH   1   8
BRANCH   3  14
ATOM     14  C   UNL     1       3.514   5.631  19.058  0.00  0.00    +0.000 C 
BRANCH  14  15
ATOM     15  C   UNL     1       2.581   4.425  19.020  0.00  0.00    +0.000 A 
ATOM     16  C   UNL     1       1.649   4.215  20.056  0.00  0.00    +0.000 A 
ATOM     17  C   UNL     1       0.793   3.112  20.055  0.00  0.00    +0.000 A 
ATOM     18  C   UNL     1       0.849   2.190  19.016  0.00  0.00    +0.000 A 
ATOM     19  C   UNL     1       1.766   2.370  17.983  0.00  0.00    +0.000 A 
ATOM     20  C   UNL     1       2.629   3.473  17.986  0.00  0.00    +0.000 A 
ATOM     21 CL   UNL     1       3.757   3.584  16.678  0.00  0.00    +0.000 Cl
ENDBRANCH  14  15
BRANCH  14  22
ATOM     22  C   UNL     1       4.926   5.288  19.553  0.00  0.00    +0.000 C 
BRANCH  22  23
ATOM     23  C   UNL     1       5.989   5.383  18.488  0.00  0.00    +0.000 C 
ATOM     24  O   UNL     1       6.156   6.338  17.746  0.00  0.00    +0.000 OA
BRANCH  23  25
ATOM     25  O   UNL     1       6.717   4.248  18.367  0.00  0.00    +0.000 OA
ATOM     26  H   UNL     1       6.202   3.423  18.459  0.00  0.00    +0.000 HD
ENDBRANCH  23  25
ENDBRANCH  22  23
ENDBRANCH  14  22
ENDBRANCH   3  14
TORSDOF 7
ENDMDL
MODEL 4
REMARK VINA RESULT:      -7.0      1.473      1.640
REMARK  Name = 
REMARK  8 active torsions:
REMARK  status: ('A' for Active; 'I' for Inactive)
REMARK    1  A    between atoms: C_1  and  O_2
REMARK    2  A    between atoms: O_2  and  C_3
REMARK    3  A    between atoms: C_6  and  C_7
REMARK    4  A    between atoms: N_9  and  C_10
REMARK    5  A    between atoms: C_10  and  C_11
REMARK    6  A    between atoms: C_10  and  C_15
REMARK    7  A    between atoms: C_11  and  C_12
REMARK    8  A    between atoms: C_12  and  O_14
REMARK                            x       y       z     vdW  Elec       q    Type
REMARK                         _______ _______ _______ _____ _____    ______ ____
ROOT
ATOM      1  C   UNL     1       2.770   6.228  18.720  0.00  0.00    +0.000 C 
ATOM      2  O   UNL     1       2.308   5.522  17.826  0.00  0.00    +0.000 OA
ATOM      3  N   UNL     1       3.905   5.911  19.436  0.00  0.00    +0.000 N 
ATOM      4  H   UNL     1       4.117   6.495  20.246  0.00  0.00    +0.000 HD
ENDROOT
BRANCH   1   8
ATOM      5  C   UNL     1       0.992   9.931  19.778  0.00  0.00    +0.000 A 
ATOM      6  C   UNL     1       1.383   9.708  18.458  0.00  0.00    +0.000 A 
ATOM      7  C   UNL     1       1.940   8.484  18.102  0.00  0.00    +0.000 A 
ATOM      8  C   UNL     1       2.113   7.520  19.087  0.00  0.00    +0.000 A 
ATOM      9  N   UNL     1       1.755   7.687  20.384  0.00  0.00    +0.000 NA
ATOM     10  C   UNL     1       1.210   8.890  20.688  0.00  0.00    +0.000 A 
ATOM     11 CL   UNL     1       0.773   9.028  22.349  0.00  0.00    +0.000 Cl
BRANCH   5  13
ATOM     12  C   UNL     1      -0.891  11.357  19.815  0.00  0.00    +0.000 C 
ATOM     13  O   UNL     1       0.451  11.106  20.222  0.00  0.00    +0.000 OA
ENDBRANCH   5  13
ENDBRANCH   1   8
BRANCH   3  14
ATOM     14  C   UNL     1       4.582   4.631  19.279  0.00  0.00    +0.000 C 
BRANCH  14  15
ATOM     15  C   UNL     1       5.427   4.557  18.011  0.00  0.00    +0.000 A 
ATOM     16  C   UNL     1       4.880   4.032  16.823  0.00  0.00    +0.000 A 
ATOM     17  C   UNL     1       5.634   3.938  15.652  0.00  0.00    +0.000 A 
ATOM     18  C   UNL     1       6.956   4.367  15.641  0.00  0.00    +0.000 A 
ATOM     19  C   UNL     1       7.524   4.885  16.803  0.00  0.00    +0.000 A 
ATOM     20  C   UNL     1       6.770   4.973  17.980  0.00  0.00    +0.000 A 
ATOM     21 CL   UNL     1       7.578   5.593  19.380  0.00  0.00    +0.000 Cl
ENDBRANCH  14  15
BRANCH  14  22
ATOM     22  C   UNL     1       3.618   3.445  19.433  0.00  0.00    +0.000 C 
BRANCH  22  23
ATOM     23  C   UNL     1       4.303   2.129  19.700  0.00  0.00    +0.000 C 
ATOM     24  O   UNL     1       5.047   1.903  20.642  0.00  0.00    +0.000 OA
BRANCH  23  25
ATOM     25  O   UNL     1       4.080   1.212  18.730  0.00  0.00    +0.000 OA
ATOM     26  H   UNL     1       4.405   0.315  18.937  0.00  0.00    +0.000 HD
ENDBRANCH  23  25
ENDBRANCH  22  23
ENDBRANCH  14  22
ENDBRANCH   3  14
TORSDOF 7
ENDMDL
MODEL 5
REMARK VINA RESULT:      -6.9      1.019      1.088
REMARK  Name = 
REMARK  8 active torsions:
REMARK  status: ('A' for Active; 'I' for Inactive)
REMARK    1  A    between atoms: C_1  and  O_2
REMARK    2  A    between atoms: O_2  and  C_3
REMARK    3  A    between atoms: C_6  and  C_7
REMARK    4  A    between atoms: N_9  and  C_10
REMARK    5  A    between atoms: C_10  and  C_11
REMARK    6  A    between atoms: C_10  and  C_15
REMARK    7  A    between atoms: C_11  and  C_12
REMARK    8  A    between atoms: C_12  and  O_14
REMARK                            x       y       z     vdW  Elec       q    Type
REMARK                         _______ _______ _______ _____ _____    ______ ____
ROOT
ATOM      1  C   UNL     1       2.460   6.450  19.540  0.00  0.00    +0.000 C 
ATOM      2  O   UNL     1       2.242   5.785  20.550  0.00  0.00    +0.000 OA
ATOM      3  N   UNL     1       3.192   5.991  18.465  0.00  0.00    +0.000 N 
ATOM      4  H   UNL     1       3.430   6.674  17.743  0.00  0.00    +0.000 HD
ENDROOT
BRANCH   1   8
ATOM      5  C   UNL     1       1.006  10.420  19.196  0.00  0.00    +0.000 A 
ATOM      6  C   UNL     1       1.635   9.821  18.105  0.00  0.00    +0.000 A 
ATOM      7  C   UNL     1       2.088   8.509  18.205  0.00  0.00    +0.000 A 
ATOM      8  C   UNL     1       1.918   7.837  19.409  0.00  0.00    +0.000 A 
ATOM      9  N   UNL     1       1.318   8.374  20.500  0.00  0.00    +0.000 NA
ATOM     10  C   UNL     1       0.886   9.651  20.359  0.00  0.00    +0.000 A 
ATOM     11 CL   UNL     1       0.128  10.264  21.779  0.00  0.00    +0.000 Cl
BRANCH   5  13
ATOM     12  C   UNL     1       1.537  12.715  19.365  0.00  0.00    +0.000 C 
ATOM     13  O   UNL     1       0.545  11.707  19.193  0.00  0.00    +0.000 OA
ENDBRANCH   5  13
ENDBRANCH   1   8
BRANCH   3  14
ATOM     14  C   UNL     1       3.887   4.711  18.496  0.00  0.00    +0.000 C 
BRANCH  14  15
ATOM     15  C   UNL     1       5.030   4.631  17.490  0.00  0.00    +0.000 A 
ATOM     16  C   UNL     1       4.790   4.174  16.178  0.00  0.00    +0.000 A 
ATOM     17  C   UNL     1       5.820   4.076  15.240  0.00  0.00    +0.000 A 
ATOM     18  C   UNL     1       7.116   4.432  15.592  0.00  0.00    +0.000 A 
ATOM     19  C   UNL     1       7.382   4.881  16.884  0.00  0.00    +0.000 A 
ATOM     20  C   UNL     1       6.352   4.974  17.828  0.00  0.00    +0.000 A 
ATOM     21 CL   UNL     1       6.792   5.503  19.415  0.00  0.00    +0.000 Cl
ENDBRANCH  14  15
BRANCH  14  22
ATOM     22  C   UNL     1       2.916   3.525  18.405  0.00  0.00    +0.000 C 
BRANCH  22  23
ATOM     23  C   UNL     1       3.363   2.307  19.173  0.00  0.00    +0.000 C 
ATOM     24  O   UNL     1       3.330   2.192  20.389  0.00  0.00    +0.000 OA
BRANCH  23  25
ATOM     25  O   UNL     1       3.898   1.349  18.380  0.00  0.00    +0.000 OA
ATOM     26  H   UNL     1       4.036   1.621  17.452  0.00  0.00    +0.000 HD
ENDBRANCH  23  25
ENDBRANCH  22  23
ENDBRANCH  14  22
ENDBRANCH   3  14
TORSDOF 7
ENDMDL
MODEL 6
REMARK VINA RESULT:      -6.9      1.712      2.039
REMARK  Name = 
REMARK  8 active torsions:
REMARK  status: ('A' for Active; 'I' for Inactive)
REMARK    1  A    between atoms: C_1  and  O_2
REMARK    2  A    between atoms: O_2  and  C_3
REMARK    3  A    between atoms: C_6  and  C_7
REMARK    4  A    between atoms: N_9  and  C_10
REMARK    5  A    between atoms: C_10  and  C_11
REMARK    6  A    between atoms: C_10  and  C_15
REMARK    7  A    between atoms: C_11  and  C_12
REMARK    8  A    between atoms: C_12  and  O_14
REMARK                            x       y       z     vdW  Elec       q    Type
REMARK                         _______ _______ _______ _____ _____    ______ ____
ROOT
ATOM      1  C   UNL     1       2.663   5.808  20.045  0.00  0.00    +0.000 C 
ATOM      2  O   UNL     1       2.523   4.979  20.942  0.00  0.00    +0.000 OA
ATOM      3  N   UNL     1       3.436   5.597  18.923  0.00  0.00    +0.000 N 
ATOM      4  H   UNL     1       3.594   6.402  18.314  0.00  0.00    +0.000 HD
ENDROOT
BRANCH   1   8
ATOM      5  C   UNL     1       0.623   9.524  20.204  0.00  0.00    +0.000 A 
ATOM      6  C   UNL     1       0.481   8.616  21.253  0.00  0.00    +0.000 A 
ATOM      7  C   UNL     1       1.171   7.408  21.217  0.00  0.00    +0.000 A 
ATOM      8  C   UNL     1       1.971   7.131  20.116  0.00  0.00    +0.000 A 
ATOM      9  N   UNL     1       2.140   7.976  19.069  0.00  0.00    +0.000 NA
ATOM     10  C   UNL     1       1.456   9.144  19.145  0.00  0.00    +0.000 A 
ATOM     11 CL   UNL     1       1.725  10.169  17.787  0.00  0.00    +0.000 Cl
BRANCH   5  13
ATOM     12  C   UNL     1      -0.500  11.227  21.394  0.00  0.00    +0.000 C 
ATOM     13  O   UNL     1      -0.028  10.725  20.147  0.00  0.00    +0.000 OA
ENDBRANCH   5  13
ENDBRANCH   1   8
BRANCH   3  14
ATOM     14  C   UNL     1       4.267   4.411  18.771  0.00  0.00    +0.000 C 
BRANCH  14  15
ATOM     15  C   UNL     1       5.218   4.500  17.583  0.00  0.00    +0.000 A 
ATOM     16  C   UNL     1       4.814   4.039  16.313  0.00  0.00    +0.000 A 
ATOM     17  C   UNL     1       5.669   4.094  15.211  0.00  0.00    +0.000 A 
ATOM     18  C   UNL     1       6.951   4.612  15.351  0.00  0.00    +0.000 A 
ATOM     19  C   UNL     1       7.378   5.069  16.596  0.00  0.00    +0.000 A 
ATOM     20  C   UNL     1       6.524   5.008  17.704  0.00  0.00    +0.000 A 
ATOM     21 CL   UNL     1       7.163   5.564  19.213  0.00  0.00    +0.000 Cl
ENDBRANCH  14  15
BRANCH  14  22
ATOM     22  C   UNL     1       3.437   3.119  18.787  0.00  0.00    +0.000 C 
BRANCH  22  23
ATOM     23  C   UNL     1       4.176   1.923  19.330  0.00  0.00    +0.000 C 
ATOM     24  O   UNL     1       4.816   1.905  20.371  0.00  0.00    +0.000 OA
BRANCH  23  25
ATOM     25  O   UNL     1       4.136   0.855  18.499  0.00  0.00    +0.000 OA
ATOM     26  H   UNL     1       4.995   0.619  18.098  0.00  0.00    +0.000 HD
ENDBRANCH  23  25
ENDBRANCH  22  23
ENDBRANCH  14  22
ENDBRANCH   3  14
TORSDOF 7
ENDMDL
MODEL 7
REMARK VINA RESULT:      -6.8      2.507      4.175
REMARK  Name = 
REMARK  8 active torsions:
REMARK  status: ('A' for Active; 'I' for Inactive)
REMARK    1  A    between atoms: C_1  and  O_2
REMARK    2  A    between atoms: O_2  and  C_3
REMARK    3  A    between atoms: C_6  and  C_7
REMARK    4  A    between atoms: N_9  and  C_10
REMARK    5  A    between atoms: C_10  and  C_11
REMARK    6  A    between atoms: C_10  and  C_15
REMARK    7  A    between atoms: C_11  and  C_12
REMARK    8  A    between atoms: C_12  and  O_14
REMARK                            x       y       z     vdW  Elec       q    Type
REMARK                         _______ _______ _______ _____ _____    ______ ____
ROOT
ATOM      1  C   UNL     1       2.085   7.930  18.966  0.00  0.00    +0.000 C 
ATOM      2  O   UNL     1       2.147   7.962  17.738  0.00  0.00    +0.000 OA
ATOM      3  N   UNL     1       2.635   6.924  19.733  0.00  0.00    +0.000 N 
ATOM      4  H   UNL     1       2.403   6.924  20.728  0.00  0.00    +0.000 HD
ENDROOT
BRANCH   1   8
ATOM      5  C   UNL     1       0.225  11.061  21.139  0.00  0.00    +0.000 A 
ATOM      6  C   UNL     1       0.554  11.256  19.798  0.00  0.00    +0.000 A 
ATOM      7  C   UNL     1       1.138  10.220  19.075  0.00  0.00    +0.000 A 
ATOM      8  C   UNL     1       1.400   9.020  19.723  0.00  0.00    +0.000 A 
ATOM      9  N   UNL     1       1.104   8.781  21.025  0.00  0.00    +0.000 NA
ATOM     10  C   UNL     1       0.531   9.812  21.692  0.00  0.00    +0.000 A 
ATOM     11 CL   UNL     1       0.176   9.434  23.335  0.00  0.00    +0.000 Cl
BRANCH   5  13
ATOM     12  C   UNL     1      -1.749  12.170  21.813  0.00  0.00    +0.000 C 
ATOM     13  O   UNL     1      -0.336  12.025  21.931  0.00  0.00    +0.000 OA
ENDBRANCH   5  13
ENDBRANCH   1   8
BRANCH   3  14
ATOM     14  C   UNL     1       3.224   5.734  19.135  0.00  0.00    +0.000 C 
BRANCH  14  15
ATOM     15  C   UNL     1       2.447   4.461  19.455  0.00  0.00    +0.000 A 
ATOM     16  C   UNL     1       1.992   4.217  20.766  0.00  0.00    +0.000 A 
ATOM     17  C   UNL     1       1.291   3.054  21.090  0.00  0.00    +0.000 A 
ATOM     18  C   UNL     1       1.027   2.105  20.110  0.00  0.00    +0.000 A 
ATOM     19  C   UNL     1       1.471   2.318  18.806  0.00  0.00    +0.000 A 
ATOM     20  C   UNL     1       2.180   3.482  18.481  0.00  0.00    +0.000 A 
ATOM     21 CL   UNL     1       2.722   3.633  16.844  0.00  0.00    +0.000 Cl
ENDBRANCH  14  15
BRANCH  14  22
ATOM     22  C   UNL     1       4.725   5.618  19.439  0.00  0.00    +0.000 C 
BRANCH  22  23
ATOM     23  C   UNL     1       5.544   5.091  18.289  0.00  0.00    +0.000 C 
ATOM     24  O   UNL     1       5.607   5.600  17.180  0.00  0.00    +0.000 OA
BRANCH  23  25
ATOM     25  O   UNL     1       6.163   3.921  18.573  0.00  0.00    +0.000 OA
ATOM     26  H   UNL     1       6.098   3.644  19.508  0.00  0.00    +0.000 HD
ENDBRANCH  23  25
ENDBRANCH  22  23
ENDBRANCH  14  22
ENDBRANCH   3  14
TORSDOF 7
ENDMDL
MODEL 8
REMARK VINA RESULT:      -6.8      1.515      1.714
REMARK  Name = 
REMARK  8 active torsions:
REMARK  status: ('A' for Active; 'I' for Inactive)
REMARK    1  A    between atoms: C_1  and  O_2
REMARK    2  A    between atoms: O_2  and  C_3
REMARK    3  A    between atoms: C_6  and  C_7
REMARK    4  A    between atoms: N_9  and  C_10
REMARK    5  A    between atoms: C_10  and  C_11
REMARK    6  A    between atoms: C_10  and  C_15
REMARK    7  A    between atoms: C_11  and  C_12
REMARK    8  A    between atoms: C_12  and  O_14
REMARK                            x       y       z     vdW  Elec       q    Type
REMARK                         _______ _______ _______ _____ _____    ______ ____
ROOT
ATOM      1  C   UNL     1       2.775   6.274  18.791  0.00  0.00    +0.000 C 
ATOM      2  O   UNL     1       2.456   5.666  17.771  0.00  0.00    +0.000 OA
ATOM      3  N   UNL     1       3.750   5.841  19.666  0.00  0.00    +0.000 N 
ATOM      4  H   UNL     1       3.834   6.347  20.549  0.00  0.00    +0.000 HD
ENDROOT
BRANCH   1   8
ATOM      5  C   UNL     1       0.980   9.976  19.822  0.00  0.00    +0.000 A 
ATOM      6  C   UNL     1       1.410   9.761  18.513  0.00  0.00    +0.000 A 
ATOM      7  C   UNL     1       1.974   8.537  18.165  0.00  0.00    +0.000 A 
ATOM      8  C   UNL     1       2.113   7.565  19.147  0.00  0.00    +0.000 A 
ATOM      9  N   UNL     1       1.715   7.725  20.434  0.00  0.00    +0.000 NA
ATOM     10  C   UNL     1       1.166   8.928  20.730  0.00  0.00    +0.000 A 
ATOM     11 CL   UNL     1       0.678   9.055  22.378  0.00  0.00    +0.000 Cl
BRANCH   5  13
ATOM     12  C   UNL     1       0.615  12.270  19.396  0.00  0.00    +0.000 C 
ATOM     13  O   UNL     1       0.431  11.150  20.258  0.00  0.00    +0.000 OA
ENDBRANCH   5  13
ENDBRANCH   1   8
BRANCH   3  14
ATOM     14  C   UNL     1       4.394   4.544  19.520  0.00  0.00    +0.000 C 
BRANCH  14  15
ATOM     15  C   UNL     1       5.254   4.445  18.264  0.00  0.00    +0.000 A 
ATOM     16  C   UNL     1       4.748   3.824  17.104  0.00  0.00    +0.000 A 
ATOM     17  C   UNL     1       5.518   3.706  15.945  0.00  0.00    +0.000 A 
ATOM     18  C   UNL     1       6.814   4.207  15.918  0.00  0.00    +0.000 A 
ATOM     19  C   UNL     1       7.341   4.819  17.053  0.00  0.00    +0.000 A 
ATOM     20  C   UNL     1       6.573   4.932  18.218  0.00  0.00    +0.000 A 
ATOM     21 CL   UNL     1       7.333   5.673  19.585  0.00  0.00    +0.000 Cl
ENDBRANCH  14  15
BRANCH  14  22
ATOM     22  C   UNL     1       3.398   3.384  19.663  0.00  0.00    +0.000 C 
BRANCH  22  23
ATOM     23  C   UNL     1       2.654   3.374  20.974  0.00  0.00    +0.000 C 
ATOM     24  O   UNL     1       2.831   2.570  21.877  0.00  0.00    +0.000 OA
BRANCH  23  25
ATOM     25  O   UNL     1       1.684   4.316  21.038  0.00  0.00    +0.000 OA
ATOM     26  H   UNL     1       0.820   3.989  21.357  0.00  0.00    +0.000 HD
ENDBRANCH  23  25
ENDBRANCH  22  23
ENDBRANCH  14  22
ENDBRANCH   3  14
TORSDOF 7
ENDMDL
MODEL 9
REMARK VINA RESULT:      -6.8      2.557      6.664
REMARK  Name = 
REMARK  8 active torsions:
REMARK  status: ('A' for Active; 'I' for Inactive)
REMARK    1  A    between atoms: C_1  and  O_2
REMARK    2  A    between atoms: O_2  and  C_3
REMARK    3  A    between atoms: C_6  and  C_7
REMARK    4  A    between atoms: N_9  and  C_10
REMARK    5  A    between atoms: C_10  and  C_11
REMARK    6  A    between atoms: C_10  and  C_15
REMARK    7  A    between atoms: C_11  and  C_12
REMARK    8  A    between atoms: C_12  and  O_14
REMARK                            x       y       z     vdW  Elec       q    Type
REMARK                         _______ _______ _______ _____ _____    ______ ____
ROOT
ATOM      1  C   UNL     1       3.451   4.788  18.119  0.00  0.00    +0.000 C 
ATOM      2  O   UNL     1       2.750   3.778  18.079  0.00  0.00    +0.000 OA
ATOM      3  N   UNL     1       3.257   5.817  19.016  0.00  0.00    +0.000 N 
ATOM      4  H   UNL     1       3.805   6.667  18.869  0.00  0.00    +0.000 HD
ENDROOT
BRANCH   1   8
ATOM      5  C   UNL     1       6.752   5.206  15.490  0.00  0.00    +0.000 A 
ATOM      6  C   UNL     1       5.775   4.250  15.219  0.00  0.00    +0.000 A 
ATOM      7  C   UNL     1       4.676   4.130  16.064  0.00  0.00    +0.000 A 
ATOM      8  C   UNL     1       4.597   4.959  17.175  0.00  0.00    +0.000 A 
ATOM      9  N   UNL     1       5.522   5.901  17.486  0.00  0.00    +0.000 NA
ATOM     10  C   UNL     1       6.573   5.990  16.635  0.00  0.00    +0.000 A 
ATOM     11 CL   UNL     1       7.701   7.212  17.087  0.00  0.00    +0.000 Cl
BRANCH   5  13
ATOM     12  C   UNL     1       7.708   5.144  13.330  0.00  0.00    +0.000 C 
ATOM     13  O   UNL     1       7.873   5.384  14.725  0.00  0.00    +0.000 OA
ENDBRANCH   5  13
ENDBRANCH   1   8
BRANCH   3  14
ATOM     14  C   UNL     1       2.110   5.853  19.912  0.00  0.00    +0.000 C 
BRANCH  14  15
ATOM     15  C   UNL     1       1.637   7.270  20.217  0.00  0.00    +0.000 A 
ATOM     16  C   UNL     1       1.094   7.582  21.480  0.00  0.00    +0.000 A 
ATOM     17  C   UNL     1       0.640   8.867  21.781  0.00  0.00    +0.000 A 
ATOM     18  C   UNL     1       0.718   9.874  20.826  0.00  0.00    +0.000 A 
ATOM     19  C   UNL     1       1.244   9.591  19.568  0.00  0.00    +0.000 A 
ATOM     20  C   UNL     1       1.694   8.301  19.261  0.00  0.00    +0.000 A 
ATOM     21 CL   UNL     1       2.294   8.044  17.658  0.00  0.00    +0.000 Cl
ENDBRANCH  14  15
BRANCH  14  22
ATOM     22  C   UNL     1       2.336   5.006  21.173  0.00  0.00    +0.000 C 
BRANCH  22  23
ATOM     23  C   UNL     1       1.523   3.737  21.213  0.00  0.00    +0.000 C 
ATOM     24  O   UNL     1       1.715   2.803  21.976  0.00  0.00    +0.000 OA
BRANCH  23  25
ATOM     25  O   UNL     1       0.578   3.685  20.245  0.00  0.00    +0.000 OA
ATOM     26  H   UNL     1      -0.336   3.585  20.574  0.00  0.00    +0.000 HD
ENDBRANCH  23  25
ENDBRANCH  22  23
ENDBRANCH  14  22
ENDBRANCH   3  14
TORSDOF 7
ENDMDL
