MODEL 1
REMARK VINA RESULT:      -8.6      0.000      0.000
REMARK  Name = 
REMARK  7 active torsions:
REMARK  status: ('A' for Active; 'I' for Inactive)
REMARK    1  A    between atoms: C_1  and  C_2
REMARK    2  A    between atoms: C_2  and  O_3
REMARK    3  A    between atoms: C_2  and  C_4
REMARK    4  A    between atoms: C_2  and  C_19
REMARK    5  A    between atoms: C_4  and  N_5
REMARK    6  A    between atoms: C_6  and  C_8
REMARK    7  A    between atoms: C_11  and  C_12
REMARK                            x       y       z     vdW  Elec       q    Type
REMARK                         _______ _______ _______ _____ _____    ______ ____
ROOT
ATOM      1  N   UNL     1       3.405   5.305  20.060  0.00  0.00    +0.000 N 
ATOM      2  C   UNL     1       2.117   5.738  20.288  0.00  0.00    +0.000 C 
ATOM      3  O   UNL     1       1.224   5.021  20.726  0.00  0.00    +0.000 OA
ATOM      4  H   UNL     1       3.979   5.816  19.398  0.00  0.00    +0.000 HD
ENDROOT
BRANCH   2   5
ATOM      5  C   UNL     1       1.838   7.148  19.928  0.00  0.00    +0.000 A 
ATOM      6  C   UNL     1       1.239   7.985  20.874  0.00  0.00    +0.000 A 
ATOM      7  C   UNL     1       0.971   9.314  20.558  0.00  0.00    +0.000 A 
ATOM      8  C   UNL     1       1.284   9.826  19.292  0.00  0.00    +0.000 A 
ATOM      9  C   UNL     1       1.903   8.984  18.357  0.00  0.00    +0.000 A 
ATOM     10  C   UNL     1       2.185   7.653  18.670  0.00  0.00    +0.000 A 
BRANCH   8  11
ATOM     11  C   UNL     1       1.007  11.220  18.942  0.00  0.00    +0.000 A 
ATOM     12  C   UNL     1       1.959  12.239  18.608  0.00  0.00    +0.000 A 
ATOM     13  C   UNL     1       1.369  13.447  18.312  0.00  0.00    +0.000 A 
ATOM     14  S   UNL     1      -0.335  13.370  18.424  0.00  0.00    +0.000 S 
ATOM     15  C   UNL     1      -0.283  11.717  18.865  0.00  0.00    +0.000 A 
ENDBRANCH   8  11
ENDBRANCH   2   5
BRANCH   1  16
ATOM     16  C   UNL     1       3.728   3.912  20.265  0.00  0.00    +0.000 C 
BRANCH  16  18
ATOM     17  C   UNL     1       2.874   2.591  18.280  0.00  0.00    +0.000 C 
ATOM     18  C   UNL     1       4.132   3.140  18.969  0.00  0.00    +0.000 C 
BRANCH  18  19
ATOM     19  C   UNL     1       4.960   4.117  18.120  0.00  0.00    +0.000 A 
ATOM     20  C   UNL     1       6.224   4.600  18.552  0.00  0.00    +0.000 A 
ATOM     21  C   UNL     1       7.151   5.130  17.646  0.00  0.00    +0.000 A 
ATOM     22  C   UNL     1       6.800   5.134  16.319  0.00  0.00    +0.000 A 
ATOM     23  C   UNL     1       5.538   4.783  15.904  0.00  0.00    +0.000 A 
ATOM     24  C   UNL     1       4.578   4.339  16.780  0.00  0.00    +0.000 A 
ATOM     25  O   UNL     1       5.431   4.754  14.546  0.00  0.00    +0.000 OA
ATOM     26  C   UNL     1       6.833   4.760  14.214  0.00  0.00    +0.000 C 
ATOM     27  O   UNL     1       7.635   5.346  15.263  0.00  0.00    +0.000 OA
ENDBRANCH  18  19
BRANCH  18  28
ATOM     28  O   UNL     1       4.912   1.995  19.343  0.00  0.00    +0.000 OA
ATOM     29  H   UNL     1       5.321   2.171  20.205  0.00  0.00    +0.000 HD
ENDBRANCH  18  28
ENDBRANCH  16  18
ENDBRANCH   1  16
TORSDOF 6
ENDMDL
MODEL 2
REMARK VINA RESULT:      -8.4      1.134      1.780
REMARK  Name = 
REMARK  7 active torsions:
REMARK  status: ('A' for Active; 'I' for Inactive)
REMARK    1  A    between atoms: C_1  and  C_2
REMARK    2  A    between atoms: C_2  and  O_3
REMARK    3  A    between atoms: C_2  and  C_4
REMARK    4  A    between atoms: C_2  and  C_19
REMARK    5  A    between atoms: C_4  and  N_5
REMARK    6  A    between atoms: C_6  and  C_8
REMARK    7  A    between atoms: C_11  and  C_12
REMARK                            x       y       z     vdW  Elec       q    Type
REMARK                         _______ _______ _______ _____ _____    ______ ____
ROOT
ATOM      1  N   UNL     1       3.400   5.422  19.511  0.00  0.00    +0.000 N 
ATOM      2  C   UNL     1       2.205   5.888  20.015  0.00  0.00    +0.000 C 
ATOM      3  O   UNL     1       1.402   5.188  20.623  0.00  0.00    +0.000 OA
ATOM      4  H   UNL     1       3.836   5.930  18.750  0.00  0.00    +0.000 HD
ENDROOT
BRANCH   2   5
ATOM      5  C   UNL     1       1.904   7.314  19.745  0.00  0.00    +0.000 A 
ATOM      6  C   UNL     1       1.298   8.081  20.744  0.00  0.00    +0.000 A 
ATOM      7  C   UNL     1       1.009   9.423  20.513  0.00  0.00    +0.000 A 
ATOM      8  C   UNL     1       1.309  10.017  19.280  0.00  0.00    +0.000 A 
ATOM      9  C   UNL     1       1.935   9.245  18.292  0.00  0.00    +0.000 A 
ATOM     10  C   UNL     1       2.238   7.902  18.520  0.00  0.00    +0.000 A 
BRANCH   8  11
ATOM     11  C   UNL     1       1.010  11.427  19.019  0.00  0.00    +0.000 A 
ATOM     12  C   UNL     1       1.918  12.439  18.563  0.00  0.00    +0.000 A 
ATOM     13  C   UNL     1       1.315  13.666  18.402  0.00  0.00    +0.000 A 
ATOM     14  S   UNL     1      -0.350  13.615  18.787  0.00  0.00    +0.000 S 
ATOM     15  C   UNL     1      -0.264  11.948  19.166  0.00  0.00    +0.000 A 
ENDBRANCH   8  11
ENDBRANCH   2   5
BRANCH   1  16
ATOM     16  C   UNL     1       3.712   4.016  19.621  0.00  0.00    +0.000 C 
BRANCH  16  18
ATOM     17  C   UNL     1       2.720   3.168  17.450  0.00  0.00    +0.000 C 
ATOM     18  C   UNL     1       4.015   3.309  18.262  0.00  0.00    +0.000 C 
BRANCH  18  19
ATOM     19  C   UNL     1       5.121   4.131  17.581  0.00  0.00    +0.000 A 
ATOM     20  C   UNL     1       4.913   4.779  16.335  0.00  0.00    +0.000 A 
ATOM     21  C   UNL     1       5.727   5.841  15.920  0.00  0.00    +0.000 A 
ATOM     22  C   UNL     1       6.714   6.249  16.783  0.00  0.00    +0.000 A 
ATOM     23  C   UNL     1       7.001   5.555  17.933  0.00  0.00    +0.000 A 
ATOM     24  C   UNL     1       6.275   4.458  18.325  0.00  0.00    +0.000 A 
ATOM     25  O   UNL     1       7.939   6.184  18.695  0.00  0.00    +0.000 OA
ATOM     26  C   UNL     1       7.899   7.481  18.067  0.00  0.00    +0.000 C 
ATOM     27  O   UNL     1       7.428   7.407  16.704  0.00  0.00    +0.000 OA
ENDBRANCH  18  19
BRANCH  18  28
ATOM     28  O   UNL     1       4.462   1.971  18.532  0.00  0.00    +0.000 OA
ATOM     29  H   UNL     1       5.053   1.695  17.815  0.00  0.00    +0.000 HD
ENDBRANCH  18  28
ENDBRANCH  16  18
ENDBRANCH   1  16
TORSDOF 6
ENDMDL
MODEL 3
REMARK VINA RESULT:      -8.4      0.524      1.247
REMARK  Name = 
REMARK  7 active torsions:
REMARK  status: ('A' for Active; 'I' for Inactive)
REMARK    1  A    between atoms: C_1  and  C_2
REMARK    2  A    between atoms: C_2  and  O_3
REMARK    3  A    between atoms: C_2  and  C_4
REMARK    4  A    between atoms: C_2  and  C_19
REMARK    5  A    between atoms: C_4  and  N_5
REMARK    6  A    between atoms: C_6  and  C_8
REMARK    7  A    between atoms: C_11  and  C_12
REMARK                            x       y       z     vdW  Elec       q    Type
REMARK                         _______ _______ _______ _____ _____    ______ ____
ROOT
ATOM      1  N   UNL     1       3.439   5.495  19.850  0.00  0.00    +0.000 N 
ATOM      2  C   UNL     1       2.204   5.917  20.294  0.00  0.00    +0.000 C 
ATOM      3  O   UNL     1       1.411   5.197  20.889  0.00  0.00    +0.000 OA
ATOM      4  H   UNL     1       3.882   6.003  19.093  0.00  0.00    +0.000 HD
ENDROOT
BRANCH   2   5
ATOM      5  C   UNL     1       1.849   7.320  19.971  0.00  0.00    +0.000 A 
ATOM      6  C   UNL     1       2.187   7.835  18.716  0.00  0.00    +0.000 A 
ATOM      7  C   UNL     1       1.860   9.148  18.391  0.00  0.00    +0.000 A 
ATOM      8  C   UNL     1       1.203   9.971  19.315  0.00  0.00    +0.000 A 
ATOM      9  C   UNL     1       0.849   9.439  20.563  0.00  0.00    +0.000 A 
ATOM     10  C   UNL     1       1.164   8.120  20.892  0.00  0.00    +0.000 A 
BRANCH   8  11
ATOM     11  C   UNL     1       0.853  11.356  18.991  0.00  0.00    +0.000 A 
ATOM     12  C   UNL     1      -0.446  11.875  18.677  0.00  0.00    +0.000 A 
ATOM     13  C   UNL     1      -0.437  13.229  18.433  0.00  0.00    +0.000 A 
ATOM     14  S   UNL     1       1.129  13.896  18.588  0.00  0.00    +0.000 S 
ATOM     15  C   UNL     1       1.796  12.370  18.985  0.00  0.00    +0.000 A 
ENDBRANCH   8  11
ENDBRANCH   2   5
BRANCH   1  16
ATOM     16  C   UNL     1       3.810   4.108  20.013  0.00  0.00    +0.000 C 
BRANCH  16  18
ATOM     17  C   UNL     1       2.677   2.980  18.048  0.00  0.00    +0.000 C 
ATOM     18  C   UNL     1       4.033   3.334  18.674  0.00  0.00    +0.000 C 
BRANCH  18  19
ATOM     19  C   UNL     1       4.937   4.221  17.803  0.00  0.00    +0.000 A 
ATOM     20  C   UNL     1       6.230   4.622  18.231  0.00  0.00    +0.000 A 
ATOM     21  C   UNL     1       7.199   5.055  17.317  0.00  0.00    +0.000 A 
ATOM     22  C   UNL     1       6.857   5.044  15.987  0.00  0.00    +0.000 A 
ATOM     23  C   UNL     1       5.576   4.774  15.573  0.00  0.00    +0.000 A 
ATOM     24  C   UNL     1       4.580   4.429  16.454  0.00  0.00    +0.000 A 
ATOM     25  O   UNL     1       5.474   4.711  14.216  0.00  0.00    +0.000 OA
ATOM     26  C   UNL     1       6.875   4.604  13.895  0.00  0.00    +0.000 C 
ATOM     27  O   UNL     1       7.712   5.161  14.933  0.00  0.00    +0.000 OA
ENDBRANCH  18  19
BRANCH  18  28
ATOM     28  O   UNL     1       4.672   2.083  18.971  0.00  0.00    +0.000 OA
ATOM     29  H   UNL     1       4.339   1.414  18.353  0.00  0.00    +0.000 HD
ENDBRANCH  18  28
ENDBRANCH  16  18
ENDBRANCH   1  16
TORSDOF 6
ENDMDL
MODEL 4
REMARK VINA RESULT:      -8.3      0.721      1.206
REMARK  Name = 
REMARK  7 active torsions:
REMARK  status: ('A' for Active; 'I' for Inactive)
REMARK    1  A    between atoms: C_1  and  C_2
REMARK    2  A    between atoms: C_2  and  O_3
REMARK    3  A    between atoms: C_2  and  C_4
REMARK    4  A    between atoms: C_2  and  C_19
REMARK    5  A    between atoms: C_4  and  N_5
REMARK    6  A    between atoms: C_6  and  C_8
REMARK    7  A    between atoms: C_11  and  C_12
REMARK                            x       y       z     vdW  Elec       q    Type
REMARK                         _______ _______ _______ _____ _____    ______ ____
ROOT
ATOM      1  N   UNL     1       2.131   4.812  18.771  0.00  0.00    +0.000 N 
ATOM      2  C   UNL     1       2.233   5.636  19.871  0.00  0.00    +0.000 C 
ATOM      3  O   UNL     1       2.509   5.238  20.998  0.00  0.00    +0.000 OA
ATOM      4  H   UNL     1       1.581   5.125  17.979  0.00  0.00    +0.000 HD
ENDROOT
BRANCH   2   5
ATOM      5  C   UNL     1       1.944   7.070  19.631  0.00  0.00    +0.000 A 
ATOM      6  C   UNL     1       2.246   7.624  18.383  0.00  0.00    +0.000 A 
ATOM      7  C   UNL     1       1.980   8.967  18.135  0.00  0.00    +0.000 A 
ATOM      8  C   UNL     1       1.421   9.781  19.129  0.00  0.00    +0.000 A 
ATOM      9  C   UNL     1       1.102   9.211  20.370  0.00  0.00    +0.000 A 
ATOM     10  C   UNL     1       1.356   7.862  20.622  0.00  0.00    +0.000 A 
BRANCH   8  11
ATOM     11  C   UNL     1       1.136  11.197  18.886  0.00  0.00    +0.000 A 
ATOM     12  C   UNL     1       2.068  12.220  18.511  0.00  0.00    +0.000 A 
ATOM     13  C   UNL     1       1.474  13.450  18.344  0.00  0.00    +0.000 A 
ATOM     14  S   UNL     1      -0.211  13.390  18.626  0.00  0.00    +0.000 S 
ATOM     15  C   UNL     1      -0.146  11.714  18.968  0.00  0.00    +0.000 A 
ENDBRANCH   8  11
ENDBRANCH   2   5
BRANCH   1  16
ATOM     16  C   UNL     1       2.273   3.384  18.943  0.00  0.00    +0.000 C 
BRANCH  16  18
ATOM     17  C   UNL     1       3.731   1.461  18.173  0.00  0.00    +0.000 C 
ATOM     18  C   UNL     1       3.738   2.857  18.813  0.00  0.00    +0.000 C 
BRANCH  18  19
ATOM     19  C   UNL     1       4.517   3.925  18.029  0.00  0.00    +0.000 A 
ATOM     20  C   UNL     1       5.575   4.665  18.621  0.00  0.00    +0.000 A 
ATOM     21  C   UNL     1       6.540   5.311  17.838  0.00  0.00    +0.000 A 
ATOM     22  C   UNL     1       6.439   5.171  16.476  0.00  0.00    +0.000 A 
ATOM     23  C   UNL     1       5.357   4.561  15.890  0.00  0.00    +0.000 A 
ATOM     24  C   UNL     1       4.350   3.992  16.630  0.00  0.00    +0.000 A 
ATOM     25  O   UNL     1       5.503   4.434  14.541  0.00  0.00    +0.000 OA
ATOM     26  C   UNL     1       6.918   4.691  14.448  0.00  0.00    +0.000 C 
ATOM     27  O   UNL     1       7.400   5.479  15.559  0.00  0.00    +0.000 OA
ENDBRANCH  18  19
BRANCH  18  28
ATOM     28  O   UNL     1       4.281   2.687  20.131  0.00  0.00    +0.000 OA
ATOM     29  H   UNL     1       5.138   3.139  20.170  0.00  0.00    +0.000 HD
ENDBRANCH  18  28
ENDBRANCH  16  18
ENDBRANCH   1  16
TORSDOF 6
ENDMDL
MODEL 5
REMARK VINA RESULT:      -8.3      2.007      2.779
REMARK  Name = 
REMARK  7 active torsions:
REMARK  status: ('A' for Active; 'I' for Inactive)
REMARK    1  A    between atoms: C_1  and  C_2
REMARK    2  A    between atoms: C_2  and  O_3
REMARK    3  A    between atoms: C_2  and  C_4
REMARK    4  A    between atoms: C_2  and  C_19
REMARK    5  A    between atoms: C_4  and  N_5
REMARK    6  A    between atoms: C_6  and  C_8
REMARK    7  A    between atoms: C_11  and  C_12
REMARK                            x       y       z     vdW  Elec       q    Type
REMARK                         _______ _______ _______ _____ _____    ______ ____
ROOT
ATOM      1  N   UNL     1       1.985   5.348  18.399  0.00  0.00    +0.000 N 
ATOM      2  C   UNL     1       2.504   6.611  18.217  0.00  0.00    +0.000 C 
ATOM      3  O   UNL     1       3.445   6.861  17.471  0.00  0.00    +0.000 OA
ATOM      4  H   UNL     1       1.469   5.154  19.250  0.00  0.00    +0.000 HD
ENDROOT
BRANCH   2   5
ATOM      5  C   UNL     1       1.879   7.687  19.023  0.00  0.00    +0.000 A 
ATOM      6  C   UNL     1       1.719   7.499  20.399  0.00  0.00    +0.000 A 
ATOM      7  C   UNL     1       1.138   8.497  21.175  0.00  0.00    +0.000 A 
ATOM      8  C   UNL     1       0.698   9.693  20.591  0.00  0.00    +0.000 A 
ATOM      9  C   UNL     1       0.882   9.880  19.214  0.00  0.00    +0.000 A 
ATOM     10  C   UNL     1       1.474   8.888  18.431  0.00  0.00    +0.000 A 
BRANCH   8  11
ATOM     11  C   UNL     1       0.083  10.753  21.393  0.00  0.00    +0.000 A 
ATOM     12  C   UNL     1      -0.766  10.597  22.538  0.00  0.00    +0.000 A 
ATOM     13  C   UNL     1      -1.168  11.799  23.075  0.00  0.00    +0.000 A 
ATOM     14  S   UNL     1      -0.524  13.129  22.216  0.00  0.00    +0.000 S 
ATOM     15  C   UNL     1       0.297  12.095  21.126  0.00  0.00    +0.000 A 
ENDBRANCH   8  11
ENDBRANCH   2   5
BRANCH   1  16
ATOM     16  C   UNL     1       2.617   4.225  17.747  0.00  0.00    +0.000 C 
BRANCH  16  18
ATOM     17  C   UNL     1       3.580   2.037  18.586  0.00  0.00    +0.000 C 
ATOM     18  C   UNL     1       3.768   3.560  18.568  0.00  0.00    +0.000 C 
BRANCH  18  19
ATOM     19  C   UNL     1       5.085   4.043  17.940  0.00  0.00    +0.000 A 
ATOM     20  C   UNL     1       5.310   3.993  16.539  0.00  0.00    +0.000 A 
ATOM     21  C   UNL     1       6.288   4.787  15.928  0.00  0.00    +0.000 A 
ATOM     22  C   UNL     1       6.999   5.640  16.736  0.00  0.00    +0.000 A 
ATOM     23  C   UNL     1       6.875   5.611  18.104  0.00  0.00    +0.000 A 
ATOM     24  C   UNL     1       5.984   4.781  18.739  0.00  0.00    +0.000 A 
ATOM     25  O   UNL     1       7.585   6.604  18.708  0.00  0.00    +0.000 OA
ATOM     26  C   UNL     1       7.833   7.431  17.554  0.00  0.00    +0.000 C 
ATOM     27  O   UNL     1       7.787   6.672  16.325  0.00  0.00    +0.000 OA
ENDBRANCH  18  19
BRANCH  18  28
ATOM     28  O   UNL     1       3.662   3.990  19.934  0.00  0.00    +0.000 OA
ATOM     29  H   UNL     1       3.941   3.260  20.508  0.00  0.00    +0.000 HD
ENDBRANCH  18  28
ENDBRANCH  16  18
ENDBRANCH   1  16
TORSDOF 6
ENDMDL
MODEL 6
REMARK VINA RESULT:      -8.1      2.039      2.756
REMARK  Name = 
REMARK  7 active torsions:
REMARK  status: ('A' for Active; 'I' for Inactive)
REMARK    1  A    between atoms: C_1  and  C_2
REMARK    2  A    between atoms: C_2  and  O_3
REMARK    3  A    between atoms: C_2  and  C_4
REMARK    4  A    between atoms: C_2  and  C_19
REMARK    5  A    between atoms: C_4  and  N_5
REMARK    6  A    between atoms: C_6  and  C_8
REMARK    7  A    between atoms: C_11  and  C_12
REMARK                            x       y       z     vdW  Elec       q    Type
REMARK                         _______ _______ _______ _____ _____    ______ ____
ROOT
ATOM      1  N   UNL     1       2.047   5.490  18.361  0.00  0.00    +0.000 N 
ATOM      2  C   UNL     1       2.585   6.737  18.131  0.00  0.00    +0.000 C 
ATOM      3  O   UNL     1       3.514   6.948  17.359  0.00  0.00    +0.000 OA
ATOM      4  H   UNL     1       1.545   5.330  19.227  0.00  0.00    +0.000 HD
ENDROOT
BRANCH   2   5
ATOM      5  C   UNL     1       1.996   7.848  18.917  0.00  0.00    +0.000 A 
ATOM      6  C   UNL     1       1.685   9.047  18.270  0.00  0.00    +0.000 A 
ATOM      7  C   UNL     1       1.128  10.102  18.988  0.00  0.00    +0.000 A 
ATOM      8  C   UNL     1       0.885   9.982  20.363  0.00  0.00    +0.000 A 
ATOM      9  C   UNL     1       1.182   8.768  20.998  0.00  0.00    +0.000 A 
ATOM     10  C   UNL     1       1.730   7.702  20.283  0.00  0.00    +0.000 A 
BRANCH   8  11
ATOM     11  C   UNL     1       0.302  11.082  21.134  0.00  0.00    +0.000 A 
ATOM     12  C   UNL     1       0.614  12.478  21.032  0.00  0.00    +0.000 A 
ATOM     13  C   UNL     1      -0.126  13.256  21.892  0.00  0.00    +0.000 A 
ATOM     14  S   UNL     1      -1.211  12.322  22.826  0.00  0.00    +0.000 S 
ATOM     15  C   UNL     1      -0.692  10.874  22.076  0.00  0.00    +0.000 A 
ENDBRANCH   8  11
ENDBRANCH   2   5
BRANCH   1  16
ATOM     16  C   UNL     1       2.646   4.336  17.730  0.00  0.00    +0.000 C 
BRANCH  16  18
ATOM     17  C   UNL     1       3.610   2.143  18.555  0.00  0.00    +0.000 C 
ATOM     18  C   UNL     1       3.793   3.668  18.553  0.00  0.00    +0.000 C 
BRANCH  18  19
ATOM     19  C   UNL     1       5.113   4.161  17.940  0.00  0.00    +0.000 A 
ATOM     20  C   UNL     1       5.344   4.136  16.539  0.00  0.00    +0.000 A 
ATOM     21  C   UNL     1       6.325   4.941  15.947  0.00  0.00    +0.000 A 
ATOM     22  C   UNL     1       7.032   5.778  16.774  0.00  0.00    +0.000 A 
ATOM     23  C   UNL     1       6.902   5.724  18.140  0.00  0.00    +0.000 A 
ATOM     24  C   UNL     1       6.009   4.883  18.756  0.00  0.00    +0.000 A 
ATOM     25  O   UNL     1       7.611   6.706  18.765  0.00  0.00    +0.000 OA
ATOM     26  C   UNL     1       7.864   7.553  17.628  0.00  0.00    +0.000 C 
ATOM     27  O   UNL     1       7.824   6.818  16.385  0.00  0.00    +0.000 OA
ENDBRANCH  18  19
BRANCH  18  28
ATOM     28  O   UNL     1       3.675   4.083  19.922  0.00  0.00    +0.000 OA
ATOM     29  H   UNL     1       3.176   4.915  19.948  0.00  0.00    +0.000 HD
ENDBRANCH  18  28
ENDBRANCH  16  18
ENDBRANCH   1  16
TORSDOF 6
ENDMDL
MODEL 7
REMARK VINA RESULT:      -8.0      1.018      1.607
REMARK  Name = 
REMARK  7 active torsions:
REMARK  status: ('A' for Active; 'I' for Inactive)
REMARK    1  A    between atoms: C_1  and  C_2
REMARK    2  A    between atoms: C_2  and  O_3
REMARK    3  A    between atoms: C_2  and  C_4
REMARK    4  A    between atoms: C_2  and  C_19
REMARK    5  A    between atoms: C_4  and  N_5
REMARK    6  A    between atoms: C_6  and  C_8
REMARK    7  A    between atoms: C_11  and  C_12
REMARK                            x       y       z     vdW  Elec       q    Type
REMARK                         _______ _______ _______ _____ _____    ______ ____
ROOT
ATOM      1  N   UNL     1       2.498   4.787  19.356  0.00  0.00    +0.000 N 
ATOM      2  C   UNL     1       3.178   5.961  19.593  0.00  0.00    +0.000 C 
ATOM      3  O   UNL     1       4.340   6.010  19.984  0.00  0.00    +0.000 OA
ATOM      4  H   UNL     1       1.485   4.800  19.377  0.00  0.00    +0.000 HD
ENDROOT
BRANCH   2   5
ATOM      5  C   UNL     1       2.403   7.208  19.387  0.00  0.00    +0.000 A 
ATOM      6  C   UNL     1       2.375   7.788  18.115  0.00  0.00    +0.000 A 
ATOM      7  C   UNL     1       1.650   8.956  17.899  0.00  0.00    +0.000 A 
ATOM      8  C   UNL     1       0.953   9.571  18.947  0.00  0.00    +0.000 A 
ATOM      9  C   UNL     1       0.970   8.970  20.214  0.00  0.00    +0.000 A 
ATOM     10  C   UNL     1       1.686   7.792  20.436  0.00  0.00    +0.000 A 
BRANCH   8  11
ATOM     11  C   UNL     1       0.188  10.801  18.738  0.00  0.00    +0.000 A 
ATOM     12  C   UNL     1      -1.222  10.920  18.501  0.00  0.00    +0.000 A 
ATOM     13  C   UNL     1      -1.633  12.226  18.360  0.00  0.00    +0.000 A 
ATOM     14  S   UNL     1      -0.334  13.326  18.518  0.00  0.00    +0.000 S 
ATOM     15  C   UNL     1       0.780  12.052  18.780  0.00  0.00    +0.000 A 
ENDBRANCH   8  11
ENDBRANCH   2   5
BRANCH   1  16
ATOM     16  C   UNL     1       3.141   3.527  19.654  0.00  0.00    +0.000 C 
BRANCH  16  18
ATOM     17  C   UNL     1       2.511   2.283  17.539  0.00  0.00    +0.000 C 
ATOM     18  C   UNL     1       3.684   2.764  18.404  0.00  0.00    +0.000 C 
BRANCH  18  19
ATOM     19  C   UNL     1       4.659   3.721  17.699  0.00  0.00    +0.000 A 
ATOM     20  C   UNL     1       5.937   4.022  18.239  0.00  0.00    +0.000 A 
ATOM     21  C   UNL     1       6.966   4.531  17.438  0.00  0.00    +0.000 A 
ATOM     22  C   UNL     1       6.698   4.698  16.102  0.00  0.00    +0.000 A 
ATOM     23  C   UNL     1       5.434   4.525  15.592  0.00  0.00    +0.000 A 
ATOM     24  C   UNL     1       4.382   4.108  16.370  0.00  0.00    +0.000 A 
ATOM     25  O   UNL     1       5.406   4.636  14.234  0.00  0.00    +0.000 OA
ATOM     26  C   UNL     1       6.819   4.521  13.975  0.00  0.00    +0.000 C 
ATOM     27  O   UNL     1       7.612   4.916  15.116  0.00  0.00    +0.000 OA
ENDBRANCH  18  19
BRANCH  18  28
ATOM     28  O   UNL     1       4.360   1.579  18.851  0.00  0.00    +0.000 OA
ATOM     29  H   UNL     1       3.701   0.881  18.982  0.00  0.00    +0.000 HD
ENDBRANCH  18  28
ENDBRANCH  16  18
ENDBRANCH   1  16
TORSDOF 6
ENDMDL
MODEL 8
REMARK VINA RESULT:      -8.0      1.736      2.221
REMARK  Name = 
REMARK  7 active torsions:
REMARK  status: ('A' for Active; 'I' for Inactive)
REMARK    1  A    between atoms: C_1  and  C_2
REMARK    2  A    between atoms: C_2  and  O_3
REMARK    3  A    between atoms: C_2  and  C_4
REMARK    4  A    between atoms: C_2  and  C_19
REMARK    5  A    between atoms: C_4  and  N_5
REMARK    6  A    between atoms: C_6  and  C_8
REMARK    7  A    between atoms: C_11  and  C_12
REMARK                            x       y       z     vdW  Elec       q    Type
REMARK                         _______ _______ _______ _____ _____    ______ ____
ROOT
ATOM      1  N   UNL     1       2.608   4.936  19.146  0.00  0.00    +0.000 N 
ATOM      2  C   UNL     1       3.224   6.144  19.390  0.00  0.00    +0.000 C 
ATOM      3  O   UNL     1       4.423   6.264  19.619  0.00  0.00    +0.000 OA
ATOM      4  H   UNL     1       1.610   4.860  19.307  0.00  0.00    +0.000 HD
ENDROOT
BRANCH   2   5
ATOM      5  C   UNL     1       2.335   7.330  19.404  0.00  0.00    +0.000 A 
ATOM      6  C   UNL     1       1.695   7.685  20.595  0.00  0.00    +0.000 A 
ATOM      7  C   UNL     1       0.859   8.797  20.632  0.00  0.00    +0.000 A 
ATOM      8  C   UNL     1       0.638   9.564  19.481  0.00  0.00    +0.000 A 
ATOM      9  C   UNL     1       1.301   9.213  18.297  0.00  0.00    +0.000 A 
ATOM     10  C   UNL     1       2.150   8.106  18.255  0.00  0.00    +0.000 A 
BRANCH   8  11
ATOM     11  C   UNL     1      -0.241  10.736  19.501  0.00  0.00    +0.000 A 
ATOM     12  C   UNL     1      -0.974  11.292  18.401  0.00  0.00    +0.000 A 
ATOM     13  C   UNL     1      -1.722  12.391  18.759  0.00  0.00    +0.000 A 
ATOM     14  S   UNL     1      -1.560  12.763  20.419  0.00  0.00    +0.000 S 
ATOM     15  C   UNL     1      -0.490  11.448  20.662  0.00  0.00    +0.000 A 
ENDBRANCH   8  11
ENDBRANCH   2   5
BRANCH   1  16
ATOM     16  C   UNL     1       3.380   3.719  19.239  0.00  0.00    +0.000 C 
BRANCH  16  18
ATOM     17  C   UNL     1       2.486   2.968  16.991  0.00  0.00    +0.000 C 
ATOM     18  C   UNL     1       3.744   3.073  17.864  0.00  0.00    +0.000 C 
BRANCH  18  19
ATOM     19  C   UNL     1       4.876   3.926  17.269  0.00  0.00    +0.000 A 
ATOM     20  C   UNL     1       4.670   4.763  16.140  0.00  0.00    +0.000 A 
ATOM     21  C   UNL     1       5.533   5.828  15.855  0.00  0.00    +0.000 A 
ATOM     22  C   UNL     1       6.568   6.049  16.729  0.00  0.00    +0.000 A 
ATOM     23  C   UNL     1       6.847   5.177  17.753  0.00  0.00    +0.000 A 
ATOM     24  C   UNL     1       6.069   4.075  18.008  0.00  0.00    +0.000 A 
ATOM     25  O   UNL     1       7.843   5.634  18.563  0.00  0.00    +0.000 OA
ATOM     26  C   UNL     1       7.862   7.010  18.134  0.00  0.00    +0.000 C 
ATOM     27  O   UNL     1       7.346   7.166  16.793  0.00  0.00    +0.000 OA
ENDBRANCH  18  19
BRANCH  18  28
ATOM     28  O   UNL     1       4.182   1.726  18.093  0.00  0.00    +0.000 OA
ATOM     29  H   UNL     1       3.768   1.404  18.910  0.00  0.00    +0.000 HD
ENDBRANCH  18  28
ENDBRANCH  16  18
ENDBRANCH   1  16
TORSDOF 6
ENDMDL
MODEL 9
REMARK VINA RESULT:      -7.9      4.808      6.633
REMARK  Name = 
REMARK  7 active torsions:
REMARK  status: ('A' for Active; 'I' for Inactive)
REMARK    1  A    between atoms: C_1  and  C_2
REMARK    2  A    between atoms: C_2  and  O_3
REMARK    3  A    between atoms: C_2  and  C_4
REMARK    4  A    between atoms: C_2  and  C_19
REMARK    5  A    between atoms: C_4  and  N_5
REMARK    6  A    between atoms: C_6  and  C_8
REMARK    7  A    between atoms: C_11  and  C_12
REMARK                            x       y       z     vdW  Elec       q    Type
REMARK                         _______ _______ _______ _____ _____    ______ ____
ROOT
ATOM      1  N   UNL     1       7.536   7.045  16.737  0.00  0.00    +0.000 N 
ATOM      2  C   UNL     1       7.923   7.402  18.011  0.00  0.00    +0.000 C 
ATOM      3  O   UNL     1       7.940   6.627  18.960  0.00  0.00    +0.000 OA
ATOM      4  H   UNL     1       7.217   7.771  16.105  0.00  0.00    +0.000 HD
ENDROOT
BRANCH   2   5
ATOM      5  C   UNL     1       8.290   8.826  18.197  0.00  0.00    +0.000 A 
ATOM      6  C   UNL     1       9.154   9.174  19.240  0.00  0.00    +0.000 A 
ATOM      7  C   UNL     1       9.515  10.504  19.431  0.00  0.00    +0.000 A 
ATOM      8  C   UNL     1       9.012  11.509  18.594  0.00  0.00    +0.000 A 
ATOM      9  C   UNL     1       8.163  11.148  17.539  0.00  0.00    +0.000 A 
ATOM     10  C   UNL     1       7.805   9.814  17.334  0.00  0.00    +0.000 A 
BRANCH   8  11
ATOM     11  C   UNL     1       9.380  12.914  18.783  0.00  0.00    +0.000 A 
ATOM     12  C   UNL     1      10.701  13.464  18.869  0.00  0.00    +0.000 A 
ATOM     13  C   UNL     1      10.703  14.831  19.032  0.00  0.00    +0.000 A 
ATOM     14  S   UNL     1       9.118  15.471  19.074  0.00  0.00    +0.000 S 
ATOM     15  C   UNL     1       8.429  13.918  18.870  0.00  0.00    +0.000 A 
ENDBRANCH   8  11
ENDBRANCH   2   5
BRANCH   1  16
ATOM     16  C   UNL     1       7.043   5.708  16.498  0.00  0.00    +0.000 C 
BRANCH  16  18
ATOM     17  C   UNL     1       5.580   4.645  14.724  0.00  0.00    +0.000 C 
ATOM     18  C   UNL     1       5.606   5.645  15.889  0.00  0.00    +0.000 C 
BRANCH  18  19
ATOM     19  C   UNL     1       4.655   5.311  17.050  0.00  0.00    +0.000 A 
ATOM     20  C   UNL     1       3.769   6.278  17.595  0.00  0.00    +0.000 A 
ATOM     21  C   UNL     1       2.641   5.899  18.333  0.00  0.00    +0.000 A 
ATOM     22  C   UNL     1       2.409   4.554  18.479  0.00  0.00    +0.000 A 
ATOM     23  C   UNL     1       3.319   3.614  18.062  0.00  0.00    +0.000 A 
ATOM     24  C   UNL     1       4.478   3.958  17.410  0.00  0.00    +0.000 A 
ATOM     25  O   UNL     1       2.851   2.343  18.205  0.00  0.00    +0.000 OA
ATOM     26  C   UNL     1       1.455   2.643  18.397  0.00  0.00    +0.000 C 
ATOM     27  O   UNL     1       1.254   3.976  18.914  0.00  0.00    +0.000 OA
ENDBRANCH  18  19
BRANCH  18  28
ATOM     28  O   UNL     1       5.293   6.925  15.321  0.00  0.00    +0.000 OA
ATOM     29  H   UNL     1       5.521   6.906  14.378  0.00  0.00    +0.000 HD
ENDBRANCH  18  28
ENDBRANCH  16  18
ENDBRANCH   1  16
TORSDOF 6
ENDMDL
