MODEL 1
REMARK VINA RESULT:      -8.3      0.000      0.000
REMARK  Name = 
REMARK  12 active torsions:
REMARK  status: ('A' for Active; 'I' for Inactive)
REMARK    1  A    between atoms: C_1  and  O_2
REMARK    2  A    between atoms: O_2  and  C_3
REMARK    3  A    between atoms: C_6  and  N_7
REMARK    4  A    between atoms: N_7  and  C_8
REMARK    5  A    between atoms: C_9  and  C_11
REMARK    6  A    between atoms: C_11  and  C_12
REMARK    7  A    between atoms: C_11  and  N_19
REMARK    8  A    between atoms: C_12  and  C_13
REMARK    9  A    between atoms: C_20  and  C_22
REMARK   10  A    between atoms: N_24  and  C_25
REMARK   11  A    between atoms: C_25  and  C_26
REMARK   12  A    between atoms: C_30  and  C_31
REMARK                            x       y       z     vdW  Elec       q    Type
REMARK                         _______ _______ _______ _____ _____    ______ ____
ROOT
ATOM      1  C   UNL     1       0.427  10.701  19.116  0.00  0.00    +0.000 C 
ENDROOT
BRANCH   1   4
ATOM      2  N   UNL     1       1.683  12.874  19.714  0.00  0.00    +0.000 N 
ATOM      3  C   UNL     1       1.756  13.194  18.288  0.00  0.00    +0.000 C 
ATOM      4  C   UNL     1       1.116  11.654  20.158  0.00  0.00    +0.000 C 
ATOM      5  O   UNL     1       1.045  11.327  21.351  0.00  0.00    +0.000 OA
BRANCH   2   9
ATOM      6  C   UNL     1       3.272  15.756  22.507  0.00  0.00    +0.000 A 
ATOM      7  C   UNL     1       4.119  14.960  21.744  0.00  0.00    +0.000 A 
ATOM      8  C   UNL     1       3.605  14.037  20.816  0.00  0.00    +0.000 A 
ATOM      9  C   UNL     1       2.227  13.858  20.639  0.00  0.00    +0.000 A 
ATOM     10  C   UNL     1       1.387  14.690  21.408  0.00  0.00    +0.000 A 
ATOM     11  C   UNL     1       1.899  15.624  22.332  0.00  0.00    +0.000 A 
BRANCH   6  13
ATOM     12  C   UNL     1       3.091  17.601  23.987  0.00  0.00    +0.000 C 
ATOM     13  O   UNL     1       3.891  16.577  23.408  0.00  0.00    +0.000 OA
ENDBRANCH   6  13
ENDBRANCH   2   9
ENDBRANCH   1   4
BRANCH   1  14
ATOM     14  N   UNL     1       0.915   9.333  19.370  0.00  0.00    +0.000 N 
ATOM     15  C   UNL     1       1.786   8.701  18.515  0.00  0.00    +0.000 C 
ATOM     16  O   UNL     1       2.176   9.226  17.472  0.00  0.00    +0.000 OA
ATOM     17  H   UNL     1       0.770   8.930  20.288  0.00  0.00    +0.000 HD
BRANCH  15  18
ATOM     18  C   UNL     1       2.191   7.358  18.901  0.00  0.00    +0.000 A 
ATOM     19  C   UNL     1       2.566   6.341  18.041  0.00  0.00    +0.000 A 
ATOM     20  N   UNL     1       2.884   5.304  18.866  0.00  0.00    +0.000 N 
ATOM     21  N   UNL     1       2.694   5.636  20.159  0.00  0.00    +0.000 NA
ATOM     22  N   UNL     1       2.254   6.890  20.190  0.00  0.00    +0.000 NA
BRANCH  20  23
ATOM     23  C   UNL     1       3.524   4.049  18.501  0.00  0.00    +0.000 C 
BRANCH  23  24
ATOM     24  C   UNL     1       4.833   4.238  17.770  0.00  0.00    +0.000 A 
ATOM     25  C   UNL     1       5.966   4.724  18.438  0.00  0.00    +0.000 A 
ATOM     26  C   UNL     1       7.164   4.938  17.753  0.00  0.00    +0.000 A 
ATOM     27  C   UNL     1       7.246   4.676  16.385  0.00  0.00    +0.000 A 
ATOM     28  C   UNL     1       6.126   4.203  15.697  0.00  0.00    +0.000 A 
ATOM     29  C   UNL     1       4.923   3.990  16.388  0.00  0.00    +0.000 A 
BRANCH  28  30
ATOM     30  C   UNL     1       6.205   3.944  14.289  0.00  0.00    +0.000 C 
ATOM     31  N   UNL     1       6.271   3.743  13.145  0.00  0.00    +0.000 NA
ENDBRANCH  28  30
ENDBRANCH  23  24
ENDBRANCH  20  23
ENDBRANCH  15  18
ENDBRANCH   1  14
BRANCH   1  32
ATOM     32  C   UNL     1      -1.110  10.771  19.272  0.00  0.00    +0.000 C 
BRANCH  32  33
ATOM     33  C   UNL     1      -1.995  10.728  18.030  0.00  0.00    +0.000 A 
ATOM     34  C   UNL     1      -1.770   9.910  16.915  0.00  0.00    +0.000 A 
ATOM     35  C   UNL     1      -2.714   9.819  15.883  0.00  0.00    +0.000 A 
ATOM     36  C   UNL     1      -3.881  10.575  15.927  0.00  0.00    +0.000 A 
ATOM     37  C   UNL     1      -4.093  11.446  16.990  0.00  0.00    +0.000 A 
ATOM     38  C   UNL     1      -3.159  11.522  18.028  0.00  0.00    +0.000 A 
ENDBRANCH  32  33
ENDBRANCH   1  32
TORSDOF 10
ENDMDL
MODEL 2
REMARK VINA RESULT:      -8.1      3.438     10.218
REMARK  Name = 
REMARK  12 active torsions:
REMARK  status: ('A' for Active; 'I' for Inactive)
REMARK    1  A    between atoms: C_1  and  O_2
REMARK    2  A    between atoms: O_2  and  C_3
REMARK    3  A    between atoms: C_6  and  N_7
REMARK    4  A    between atoms: N_7  and  C_8
REMARK    5  A    between atoms: C_9  and  C_11
REMARK    6  A    between atoms: C_11  and  C_12
REMARK    7  A    between atoms: C_11  and  N_19
REMARK    8  A    between atoms: C_12  and  C_13
REMARK    9  A    between atoms: C_20  and  C_22
REMARK   10  A    between atoms: N_24  and  C_25
REMARK   11  A    between atoms: C_25  and  C_26
REMARK   12  A    between atoms: C_30  and  C_31
REMARK                            x       y       z     vdW  Elec       q    Type
REMARK                         _______ _______ _______ _____ _____    ______ ____
ROOT
ATOM      1  C   UNL     1       2.424   6.753  19.926  0.00  0.00    +0.000 C 
ENDROOT
BRANCH   1   4
ATOM      2  N   UNL     1       4.276   5.863  18.367  0.00  0.00    +0.000 N 
ATOM      3  C   UNL     1       5.123   5.645  19.540  0.00  0.00    +0.000 C 
ATOM      4  C   UNL     1       2.997   6.459  18.493  0.00  0.00    +0.000 C 
ATOM      5  O   UNL     1       2.249   6.682  17.532  0.00  0.00    +0.000 OA
BRANCH   2   9
ATOM      6  C   UNL     1       5.936   4.670  14.565  0.00  0.00    +0.000 A 
ATOM      7  C   UNL     1       5.539   3.720  15.500  0.00  0.00    +0.000 A 
ATOM      8  C   UNL     1       4.977   4.105  16.730  0.00  0.00    +0.000 A 
ATOM      9  C   UNL     1       4.816   5.453  17.078  0.00  0.00    +0.000 A 
ATOM     10  C   UNL     1       5.206   6.397  16.107  0.00  0.00    +0.000 A 
ATOM     11  C   UNL     1       5.761   6.015  14.869  0.00  0.00    +0.000 A 
BRANCH   6  13
ATOM     12  C   UNL     1       5.689   3.363  12.601  0.00  0.00    +0.000 C 
ATOM     13  O   UNL     1       6.514   4.172  13.431  0.00  0.00    +0.000 OA
ENDBRANCH   6  13
ENDBRANCH   2   9
ENDBRANCH   1   4
BRANCH   1  14
ATOM     14  N   UNL     1       1.584   7.962  19.832  0.00  0.00    +0.000 N 
ATOM     15  C   UNL     1       1.275   8.719  20.937  0.00  0.00    +0.000 C 
ATOM     16  O   UNL     1       1.648   8.409  22.068  0.00  0.00    +0.000 OA
ATOM     17  H   UNL     1       1.404   8.356  18.917  0.00  0.00    +0.000 HD
BRANCH  15  18
ATOM     18  C   UNL     1       0.449   9.891  20.691  0.00  0.00    +0.000 A 
ATOM     19  C   UNL     1       0.353  10.584  19.496  0.00  0.00    +0.000 A 
ATOM     20  N   UNL     1      -0.556  11.567  19.750  0.00  0.00    +0.000 N 
ATOM     21  N   UNL     1      -0.984  11.514  21.027  0.00  0.00    +0.000 NA
ATOM     22  N   UNL     1      -0.361  10.500  21.618  0.00  0.00    +0.000 NA
BRANCH  20  23
ATOM     23  C   UNL     1      -1.176  12.466  18.789  0.00  0.00    +0.000 C 
BRANCH  23  24
ATOM     24  C   UNL     1      -2.255  11.804  17.962  0.00  0.00    +0.000 A 
ATOM     25  C   UNL     1      -1.981  11.328  16.671  0.00  0.00    +0.000 A 
ATOM     26  C   UNL     1      -2.987  10.754  15.892  0.00  0.00    +0.000 A 
ATOM     27  C   UNL     1      -4.286  10.650  16.389  0.00  0.00    +0.000 A 
ATOM     28  C   UNL     1      -4.583  11.127  17.668  0.00  0.00    +0.000 A 
ATOM     29  C   UNL     1      -3.571  11.706  18.449  0.00  0.00    +0.000 A 
BRANCH  28  30
ATOM     30  C   UNL     1      -5.922  11.033  18.176  0.00  0.00    +0.000 C 
ATOM     31  N   UNL     1      -7.009  10.956  18.579  0.00  0.00    +0.000 NA
ENDBRANCH  28  30
ENDBRANCH  23  24
ENDBRANCH  20  23
ENDBRANCH  15  18
ENDBRANCH   1  14
BRANCH   1  32
ATOM     32  C   UNL     1       1.590   5.547  20.418  0.00  0.00    +0.000 C 
BRANCH  32  33
ATOM     33  C   UNL     1       1.880   4.155  19.863  0.00  0.00    +0.000 A 
ATOM     34  C   UNL     1       1.286   3.612  18.716  0.00  0.00    +0.000 A 
ATOM     35  C   UNL     1       1.720   2.388  18.188  0.00  0.00    +0.000 A 
ATOM     36  C   UNL     1       2.727   1.666  18.819  0.00  0.00    +0.000 A 
ATOM     37  C   UNL     1       3.282   2.152  19.999  0.00  0.00    +0.000 A 
ATOM     38  C   UNL     1       2.860   3.382  20.514  0.00  0.00    +0.000 A 
ENDBRANCH  32  33
ENDBRANCH   1  32
TORSDOF 10
ENDMDL
MODEL 3
REMARK VINA RESULT:      -8.0      3.418     10.020
REMARK  Name = 
REMARK  12 active torsions:
REMARK  status: ('A' for Active; 'I' for Inactive)
REMARK    1  A    between atoms: C_1  and  O_2
REMARK    2  A    between atoms: O_2  and  C_3
REMARK    3  A    between atoms: C_6  and  N_7
REMARK    4  A    between atoms: N_7  and  C_8
REMARK    5  A    between atoms: C_9  and  C_11
REMARK    6  A    between atoms: C_11  and  C_12
REMARK    7  A    between atoms: C_11  and  N_19
REMARK    8  A    between atoms: C_12  and  C_13
REMARK    9  A    between atoms: C_20  and  C_22
REMARK   10  A    between atoms: N_24  and  C_25
REMARK   11  A    between atoms: C_25  and  C_26
REMARK   12  A    between atoms: C_30  and  C_31
REMARK                            x       y       z     vdW  Elec       q    Type
REMARK                         _______ _______ _______ _____ _____    ______ ____
ROOT
ATOM      1  C   UNL     1       2.596   6.573  19.870  0.00  0.00    +0.000 C 
ENDROOT
BRANCH   1   4
ATOM      2  N   UNL     1       4.509   5.736  18.355  0.00  0.00    +0.000 N 
ATOM      3  C   UNL     1       5.320   5.503  19.550  0.00  0.00    +0.000 C 
ATOM      4  C   UNL     1       3.219   6.315  18.451  0.00  0.00    +0.000 C 
ATOM      5  O   UNL     1       2.499   6.549  17.471  0.00  0.00    +0.000 OA
BRANCH   2   9
ATOM      6  C   UNL     1       6.185   4.614  14.538  0.00  0.00    +0.000 A 
ATOM      7  C   UNL     1       6.453   5.858  15.097  0.00  0.00    +0.000 A 
ATOM      8  C   UNL     1       5.927   6.218  16.351  0.00  0.00    +0.000 A 
ATOM      9  C   UNL     1       5.094   5.357  17.076  0.00  0.00    +0.000 A 
ATOM     10  C   UNL     1       4.854   4.093  16.501  0.00  0.00    +0.000 A 
ATOM     11  C   UNL     1       5.387   3.724  15.249  0.00  0.00    +0.000 A 
BRANCH   6  13
ATOM     12  C   UNL     1       6.133   3.350  12.532  0.00  0.00    +0.000 C 
ATOM     13  O   UNL     1       6.712   4.402  13.295  0.00  0.00    +0.000 OA
ENDBRANCH   6  13
ENDBRANCH   2   9
ENDBRANCH   1   4
BRANCH   1  14
ATOM     14  N   UNL     1       1.739   7.769  19.771  0.00  0.00    +0.000 N 
ATOM     15  C   UNL     1       1.435   8.538  20.870  0.00  0.00    +0.000 C 
ATOM     16  O   UNL     1       1.828   8.250  21.999  0.00  0.00    +0.000 OA
ATOM     17  H   UNL     1       1.540   8.148  18.853  0.00  0.00    +0.000 HD
BRANCH  15  18
ATOM     18  C   UNL     1       0.589   9.695  20.618  0.00  0.00    +0.000 A 
ATOM     19  C   UNL     1       0.608  10.487  19.483  0.00  0.00    +0.000 A 
ATOM     20  N   UNL     1      -0.373  11.408  19.699  0.00  0.00    +0.000 N 
ATOM     21  N   UNL     1      -0.952  11.226  20.903  0.00  0.00    +0.000 NA
ATOM     22  N   UNL     1      -0.358  10.188  21.482  0.00  0.00    +0.000 NA
BRANCH  20  23
ATOM     23  C   UNL     1      -0.913  12.365  18.745  0.00  0.00    +0.000 C 
BRANCH  23  24
ATOM     24  C   UNL     1      -2.188  11.893  18.085  0.00  0.00    +0.000 A 
ATOM     25  C   UNL     1      -3.404  11.897  18.785  0.00  0.00    +0.000 A 
ATOM     26  C   UNL     1      -4.574  11.423  18.189  0.00  0.00    +0.000 A 
ATOM     27  C   UNL     1      -4.547  10.929  16.885  0.00  0.00    +0.000 A 
ATOM     28  C   UNL     1      -3.344  10.904  16.174  0.00  0.00    +0.000 A 
ATOM     29  C   UNL     1      -2.169  11.380  16.775  0.00  0.00    +0.000 A 
BRANCH  28  30
ATOM     30  C   UNL     1      -3.312  10.386  14.836  0.00  0.00    +0.000 C 
ATOM     31  N   UNL     1      -3.279   9.972  13.751  0.00  0.00    +0.000 NA
ENDBRANCH  28  30
ENDBRANCH  23  24
ENDBRANCH  20  23
ENDBRANCH  15  18
ENDBRANCH   1  14
BRANCH   1  32
ATOM     32  C   UNL     1       1.770   5.345  20.316  0.00  0.00    +0.000 C 
BRANCH  32  33
ATOM     33  C   UNL     1       2.071   3.976  19.712  0.00  0.00    +0.000 A 
ATOM     34  C   UNL     1       1.486   3.471  18.543  0.00  0.00    +0.000 A 
ATOM     35  C   UNL     1       1.930   2.270  17.974  0.00  0.00    +0.000 A 
ATOM     36  C   UNL     1       2.940   1.531  18.583  0.00  0.00    +0.000 A 
ATOM     37  C   UNL     1       3.486   1.978  19.781  0.00  0.00    +0.000 A 
ATOM     38  C   UNL     1       3.054   3.187  20.339  0.00  0.00    +0.000 A 
ENDBRANCH  32  33
ENDBRANCH   1  32
TORSDOF 10
ENDMDL
MODEL 4
REMARK VINA RESULT:      -8.0      3.629     10.223
REMARK  Name = 
REMARK  12 active torsions:
REMARK  status: ('A' for Active; 'I' for Inactive)
REMARK    1  A    between atoms: C_1  and  O_2
REMARK    2  A    between atoms: O_2  and  C_3
REMARK    3  A    between atoms: C_6  and  N_7
REMARK    4  A    between atoms: N_7  and  C_8
REMARK    5  A    between atoms: C_9  and  C_11
REMARK    6  A    between atoms: C_11  and  C_12
REMARK    7  A    between atoms: C_11  and  N_19
REMARK    8  A    between atoms: C_12  and  C_13
REMARK    9  A    between atoms: C_20  and  C_22
REMARK   10  A    between atoms: N_24  and  C_25
REMARK   11  A    between atoms: C_25  and  C_26
REMARK   12  A    between atoms: C_30  and  C_31
REMARK                            x       y       z     vdW  Elec       q    Type
REMARK                         _______ _______ _______ _____ _____    ______ ____
ROOT
ATOM      1  C   UNL     1       0.858   9.810  20.365  0.00  0.00    +0.000 C 
ENDROOT
BRANCH   1   4
ATOM      2  N   UNL     1       1.959   7.678  19.418  0.00  0.00    +0.000 N 
ATOM      3  C   UNL     1       2.329   8.432  18.220  0.00  0.00    +0.000 C 
ATOM      4  C   UNL     1       1.191   8.277  20.447  0.00  0.00    +0.000 C 
ATOM      5  O   UNL     1       0.836   7.680  21.472  0.00  0.00    +0.000 OA
BRANCH   2   9
ATOM      6  C   UNL     1       3.225   3.557  19.629  0.00  0.00    +0.000 A 
ATOM      7  C   UNL     1       3.546   4.347  18.531  0.00  0.00    +0.000 A 
ATOM      8  C   UNL     1       3.156   5.697  18.470  0.00  0.00    +0.000 A 
ATOM      9  C   UNL     1       2.407   6.295  19.491  0.00  0.00    +0.000 A 
ATOM     10  C   UNL     1       2.111   5.481  20.604  0.00  0.00    +0.000 A 
ATOM     11  C   UNL     1       2.509   4.131  20.673  0.00  0.00    +0.000 A 
BRANCH   6  13
ATOM     12  C   UNL     1       3.515   1.636  18.268  0.00  0.00    +0.000 C 
ATOM     13  O   UNL     1       3.617   2.250  19.547  0.00  0.00    +0.000 OA
ENDBRANCH   6  13
ENDBRANCH   2   9
ENDBRANCH   1   4
BRANCH   1  14
ATOM     14  N   UNL     1      -0.429   9.952  19.658  0.00  0.00    +0.000 N 
ATOM     15  C   UNL     1      -0.616  10.888  18.669  0.00  0.00    +0.000 C 
ATOM     16  O   UNL     1       0.265  11.685  18.348  0.00  0.00    +0.000 OA
ATOM     17  H   UNL     1      -1.118   9.216  19.755  0.00  0.00    +0.000 HD
BRANCH  15  18
ATOM     18  C   UNL     1      -1.933  10.902  18.051  0.00  0.00    +0.000 A 
ATOM     19  C   UNL     1      -3.030  11.626  18.486  0.00  0.00    +0.000 A 
ATOM     20  N   UNL     1      -4.003  11.341  17.576  0.00  0.00    +0.000 N 
ATOM     21  N   UNL     1      -3.558  10.472  16.646  0.00  0.00    +0.000 NA
ATOM     22  N   UNL     1      -2.294  10.184  16.938  0.00  0.00    +0.000 NA
BRANCH  20  23
ATOM     23  C   UNL     1      -5.303  11.982  17.441  0.00  0.00    +0.000 C 
BRANCH  23  24
ATOM     24  C   UNL     1      -6.187  11.796  18.653  0.00  0.00    +0.000 A 
ATOM     25  C   UNL     1      -6.644  12.901  19.386  0.00  0.00    +0.000 A 
ATOM     26  C   UNL     1      -7.426  12.728  20.529  0.00  0.00    +0.000 A 
ATOM     27  C   UNL     1      -7.760  11.445  20.963  0.00  0.00    +0.000 A 
ATOM     28  C   UNL     1      -7.306  10.329  20.254  0.00  0.00    +0.000 A 
ATOM     29  C   UNL     1      -6.518  10.506  19.107  0.00  0.00    +0.000 A 
BRANCH  28  30
ATOM     30  C   UNL     1      -7.638   9.008  20.705  0.00  0.00    +0.000 C 
ATOM     31  N   UNL     1      -7.916   7.939  21.068  0.00  0.00    +0.000 NA
ENDBRANCH  28  30
ENDBRANCH  23  24
ENDBRANCH  20  23
ENDBRANCH  15  18
ENDBRANCH   1  14
BRANCH   1  32
ATOM     32  C   UNL     1       0.766  10.408  21.788  0.00  0.00    +0.000 C 
BRANCH  32  33
ATOM     33  C   UNL     1      -0.346  11.399  22.119  0.00  0.00    +0.000 A 
ATOM     34  C   UNL     1      -1.525  11.078  22.806  0.00  0.00    +0.000 A 
ATOM     35  C   UNL     1      -2.425  12.077  23.202  0.00  0.00    +0.000 A 
ATOM     36  C   UNL     1      -2.183  13.409  22.885  0.00  0.00    +0.000 A 
ATOM     37  C   UNL     1      -1.055  13.743  22.143  0.00  0.00    +0.000 A 
ATOM     38  C   UNL     1      -0.149  12.747  21.764  0.00  0.00    +0.000 A 
ENDBRANCH  32  33
ENDBRANCH   1  32
TORSDOF 10
ENDMDL
MODEL 5
REMARK VINA RESULT:      -7.7      2.878      9.686
REMARK  Name = 
REMARK  12 active torsions:
REMARK  status: ('A' for Active; 'I' for Inactive)
REMARK    1  A    between atoms: C_1  and  O_2
REMARK    2  A    between atoms: O_2  and  C_3
REMARK    3  A    between atoms: C_6  and  N_7
REMARK    4  A    between atoms: N_7  and  C_8
REMARK    5  A    between atoms: C_9  and  C_11
REMARK    6  A    between atoms: C_11  and  C_12
REMARK    7  A    between atoms: C_11  and  N_19
REMARK    8  A    between atoms: C_12  and  C_13
REMARK    9  A    between atoms: C_20  and  C_22
REMARK   10  A    between atoms: N_24  and  C_25
REMARK   11  A    between atoms: C_25  and  C_26
REMARK   12  A    between atoms: C_30  and  C_31
REMARK                            x       y       z     vdW  Elec       q    Type
REMARK                         _______ _______ _______ _____ _____    ______ ____
ROOT
ATOM      1  C   UNL     1       0.477  10.013  18.915  0.00  0.00    +0.000 C 
ENDROOT
BRANCH   1   4
ATOM      2  N   UNL     1       2.073   8.003  19.174  0.00  0.00    +0.000 N 
ATOM      3  C   UNL     1       1.534   7.781  20.515  0.00  0.00    +0.000 C 
ATOM      4  C   UNL     1       1.648   9.105  18.391  0.00  0.00    +0.000 C 
ATOM      5  O   UNL     1       2.084   9.349  17.258  0.00  0.00    +0.000 OA
BRANCH   2   9
ATOM      6  C   UNL     1       5.063   5.227  17.763  0.00  0.00    +0.000 A 
ATOM      7  C   UNL     1       4.441   5.042  18.993  0.00  0.00    +0.000 A 
ATOM      8  C   UNL     1       3.450   5.932  19.445  0.00  0.00    +0.000 A 
ATOM      9  C   UNL     1       3.066   7.051  18.696  0.00  0.00    +0.000 A 
ATOM     10  C   UNL     1       3.694   7.207  17.443  0.00  0.00    +0.000 A 
ATOM     11  C   UNL     1       4.680   6.312  16.982  0.00  0.00    +0.000 A 
BRANCH   6  13
ATOM     12  C   UNL     1       7.376   4.704  17.782  0.00  0.00    +0.000 C 
ATOM     13  O   UNL     1       6.043   4.325  17.459  0.00  0.00    +0.000 OA
ENDBRANCH   6  13
ENDBRANCH   2   9
ENDBRANCH   1   4
BRANCH   1  14
ATOM     14  N   UNL     1       1.014  11.374  19.097  0.00  0.00    +0.000 N 
ATOM     15  C   UNL     1       1.281  11.889  20.344  0.00  0.00    +0.000 C 
ATOM     16  O   UNL     1       1.050  11.258  21.375  0.00  0.00    +0.000 OA
ATOM     17  H   UNL     1       1.385  11.861  18.291  0.00  0.00    +0.000 HD
BRANCH  15  18
ATOM     18  C   UNL     1       1.820  13.240  20.369  0.00  0.00    +0.000 A 
ATOM     19  C   UNL     1       2.290  13.950  19.278  0.00  0.00    +0.000 A 
ATOM     20  N   UNL     1       2.652  15.158  19.794  0.00  0.00    +0.000 N 
ATOM     21  N   UNL     1       2.450  15.196  21.127  0.00  0.00    +0.000 NA
ATOM     22  N   UNL     1       1.955  14.019  21.492  0.00  0.00    +0.000 NA
BRANCH  20  23
ATOM     23  C   UNL     1       3.031  16.355  19.059  0.00  0.00    +0.000 C 
BRANCH  23  24
ATOM     24  C   UNL     1       1.873  16.998  18.329  0.00  0.00    +0.000 A 
ATOM     25  C   UNL     1       2.062  17.614  17.084  0.00  0.00    +0.000 A 
ATOM     26  C   UNL     1       1.002  18.244  16.429  0.00  0.00    +0.000 A 
ATOM     27  C   UNL     1      -0.265  18.273  17.013  0.00  0.00    +0.000 A 
ATOM     28  C   UNL     1      -0.473  17.675  18.259  0.00  0.00    +0.000 A 
ATOM     29  C   UNL     1       0.595  17.044  18.915  0.00  0.00    +0.000 A 
BRANCH  28  30
ATOM     30  C   UNL     1      -1.772  17.714  18.866  0.00  0.00    +0.000 C 
ATOM     31  N   UNL     1      -2.825  17.755  19.356  0.00  0.00    +0.000 NA
ENDBRANCH  28  30
ENDBRANCH  23  24
ENDBRANCH  20  23
ENDBRANCH  15  18
ENDBRANCH   1  14
BRANCH   1  32
ATOM     32  C   UNL     1      -0.685  10.017  17.893  0.00  0.00    +0.000 C 
BRANCH  32  33
ATOM     33  C   UNL     1      -2.031  10.619  18.287  0.00  0.00    +0.000 A 
ATOM     34  C   UNL     1      -2.201  11.664  19.205  0.00  0.00    +0.000 A 
ATOM     35  C   UNL     1      -3.455  12.260  19.396  0.00  0.00    +0.000 A 
ATOM     36  C   UNL     1      -4.569  11.798  18.702  0.00  0.00    +0.000 A 
ATOM     37  C   UNL     1      -4.436  10.717  17.837  0.00  0.00    +0.000 A 
ATOM     38  C   UNL     1      -3.180  10.134  17.634  0.00  0.00    +0.000 A 
ENDBRANCH  32  33
ENDBRANCH   1  32
TORSDOF 10
ENDMDL
MODEL 6
REMARK VINA RESULT:      -7.6      3.699     10.947
REMARK  Name = 
REMARK  12 active torsions:
REMARK  status: ('A' for Active; 'I' for Inactive)
REMARK    1  A    between atoms: C_1  and  O_2
REMARK    2  A    between atoms: O_2  and  C_3
REMARK    3  A    between atoms: C_6  and  N_7
REMARK    4  A    between atoms: N_7  and  C_8
REMARK    5  A    between atoms: C_9  and  C_11
REMARK    6  A    between atoms: C_11  and  C_12
REMARK    7  A    between atoms: C_11  and  N_19
REMARK    8  A    between atoms: C_12  and  C_13
REMARK    9  A    between atoms: C_20  and  C_22
REMARK   10  A    between atoms: N_24  and  C_25
REMARK   11  A    between atoms: C_25  and  C_26
REMARK   12  A    between atoms: C_30  and  C_31
REMARK                            x       y       z     vdW  Elec       q    Type
REMARK                         _______ _______ _______ _____ _____    ______ ____
ROOT
ATOM      1  C   UNL     1       2.540   6.773  19.868  0.00  0.00    +0.000 C 
ENDROOT
BRANCH   1   4
ATOM      2  N   UNL     1       4.388   5.842  18.328  0.00  0.00    +0.000 N 
ATOM      3  C   UNL     1       5.279   5.766  19.486  0.00  0.00    +0.000 C 
ATOM      4  C   UNL     1       3.085   6.384  18.446  0.00  0.00    +0.000 C 
ATOM      5  O   UNL     1       2.298   6.487  17.496  0.00  0.00    +0.000 OA
BRANCH   2   9
ATOM      6  C   UNL     1       5.876   4.349  14.561  0.00  0.00    +0.000 A 
ATOM      7  C   UNL     1       5.714   5.714  14.774  0.00  0.00    +0.000 A 
ATOM      8  C   UNL     1       5.251   6.205  16.008  0.00  0.00    +0.000 A 
ATOM      9  C   UNL     1       4.910   5.347  17.062  0.00  0.00    +0.000 A 
ATOM     10  C   UNL     1       5.102   3.970  16.831  0.00  0.00    +0.000 A 
ATOM     11  C   UNL     1       5.575   3.475  15.599  0.00  0.00    +0.000 A 
BRANCH   6  13
ATOM     12  C   UNL     1       5.307   3.381  12.471  0.00  0.00    +0.000 C 
ATOM     13  O   UNL     1       6.283   3.995  13.305  0.00  0.00    +0.000 OA
ENDBRANCH   6  13
ENDBRANCH   2   9
ENDBRANCH   1   4
BRANCH   1  14
ATOM     14  N   UNL     1       1.662   7.947  19.705  0.00  0.00    +0.000 N 
ATOM     15  C   UNL     1       1.235   8.690  20.780  0.00  0.00    +0.000 C 
ATOM     16  O   UNL     1       1.529   8.394  21.938  0.00  0.00    +0.000 OA
ATOM     17  H   UNL     1       1.540   8.335  18.778  0.00  0.00    +0.000 HD
BRANCH  15  18
ATOM     18  C   UNL     1       0.385   9.828  20.466  0.00  0.00    +0.000 A 
ATOM     19  C   UNL     1      -0.005  10.822  21.347  0.00  0.00    +0.000 A 
ATOM     20  N   UNL     1      -0.756  11.668  20.587  0.00  0.00    +0.000 N 
ATOM     21  N   UNL     1      -0.855  11.223  19.318  0.00  0.00    +0.000 NA
ATOM     22  N   UNL     1      -0.172  10.086  19.237  0.00  0.00    +0.000 NA
BRANCH  20  23
ATOM     23  C   UNL     1      -1.256  12.983  20.961  0.00  0.00    +0.000 C 
BRANCH  23  24
ATOM     24  C   UNL     1      -2.514  12.926  21.796  0.00  0.00    +0.000 A 
ATOM     25  C   UNL     1      -2.446  12.759  23.187  0.00  0.00    +0.000 A 
ATOM     26  C   UNL     1      -3.609  12.665  23.954  0.00  0.00    +0.000 A 
ATOM     27  C   UNL     1      -4.861  12.729  23.341  0.00  0.00    +0.000 A 
ATOM     28  C   UNL     1      -4.951  12.884  21.955  0.00  0.00    +0.000 A 
ATOM     29  C   UNL     1      -3.781  12.977  21.187  0.00  0.00    +0.000 A 
BRANCH  28  30
ATOM     30  C   UNL     1      -6.237  12.939  21.322  0.00  0.00    +0.000 C 
ATOM     31  N   UNL     1      -7.279  12.975  20.807  0.00  0.00    +0.000 NA
ENDBRANCH  28  30
ENDBRANCH  23  24
ENDBRANCH  20  23
ENDBRANCH  15  18
ENDBRANCH   1  14
BRANCH   1  32
ATOM     32  C   UNL     1       1.756   5.586  20.475  0.00  0.00    +0.000 C 
BRANCH  32  33
ATOM     33  C   UNL     1       1.963   4.181  19.916  0.00  0.00    +0.000 A 
ATOM     34  C   UNL     1       1.226   3.623  18.863  0.00  0.00    +0.000 A 
ATOM     35  C   UNL     1       1.581   2.385  18.309  0.00  0.00    +0.000 A 
ATOM     36  C   UNL     1       2.655   1.665  18.823  0.00  0.00    +0.000 A 
ATOM     37  C   UNL     1       3.358   2.169  19.912  0.00  0.00    +0.000 A 
ATOM     38  C   UNL     1       3.013   3.412  20.452  0.00  0.00    +0.000 A 
ENDBRANCH  32  33
ENDBRANCH   1  32
TORSDOF 10
ENDMDL
MODEL 7
REMARK VINA RESULT:      -7.5      3.226      9.978
REMARK  Name = 
REMARK  12 active torsions:
REMARK  status: ('A' for Active; 'I' for Inactive)
REMARK    1  A    between atoms: C_1  and  O_2
REMARK    2  A    between atoms: O_2  and  C_3
REMARK    3  A    between atoms: C_6  and  N_7
REMARK    4  A    between atoms: N_7  and  C_8
REMARK    5  A    between atoms: C_9  and  C_11
REMARK    6  A    between atoms: C_11  and  C_12
REMARK    7  A    between atoms: C_11  and  N_19
REMARK    8  A    between atoms: C_12  and  C_13
REMARK    9  A    between atoms: C_20  and  C_22
REMARK   10  A    between atoms: N_24  and  C_25
REMARK   11  A    between atoms: C_25  and  C_26
REMARK   12  A    between atoms: C_30  and  C_31
REMARK                            x       y       z     vdW  Elec       q    Type
REMARK                         _______ _______ _______ _____ _____    ______ ____
ROOT
ATOM      1  C   UNL     1       2.308   6.968  19.791  0.00  0.00    +0.000 C 
ENDROOT
BRANCH   1   4
ATOM      2  N   UNL     1       4.229   5.880  18.456  0.00  0.00    +0.000 N 
ATOM      3  C   UNL     1       4.742   5.315  19.705  0.00  0.00    +0.000 C 
ATOM      4  C   UNL     1       3.102   6.739  18.455  0.00  0.00    +0.000 C 
ATOM      5  O   UNL     1       2.638   7.257  17.430  0.00  0.00    +0.000 OA
BRANCH   2   9
ATOM      6  C   UNL     1       6.375   4.811  14.867  0.00  0.00    +0.000 A 
ATOM      7  C   UNL     1       5.201   4.154  15.219  0.00  0.00    +0.000 A 
ATOM      8  C   UNL     1       4.487   4.516  16.375  0.00  0.00    +0.000 A 
ATOM      9  C   UNL     1       4.936   5.528  17.233  0.00  0.00    +0.000 A 
ATOM     10  C   UNL     1       6.117   6.194  16.846  0.00  0.00    +0.000 A 
ATOM     11  C   UNL     1       6.830   5.841  15.682  0.00  0.00    +0.000 A 
BRANCH   6  13
ATOM     12  C   UNL     1       6.208   3.563  12.857  0.00  0.00    +0.000 C 
ATOM     13  O   UNL     1       7.002   4.335  13.750  0.00  0.00    +0.000 OA
ENDBRANCH   6  13
ENDBRANCH   2   9
ENDBRANCH   1   4
BRANCH   1  14
ATOM     14  N   UNL     1       1.803   8.354  19.780  0.00  0.00    +0.000 N 
ATOM     15  C   UNL     1       1.296   8.951  20.910  0.00  0.00    +0.000 C 
ATOM     16  O   UNL     1       1.198   8.352  21.980  0.00  0.00    +0.000 OA
ATOM     17  H   UNL     1       2.022   8.942  18.986  0.00  0.00    +0.000 HD
BRANCH  15  18
ATOM     18  C   UNL     1       0.848  10.327  20.751  0.00  0.00    +0.000 A 
ATOM     19  C   UNL     1       0.578  10.963  19.552  0.00  0.00    +0.000 A 
ATOM     20  N   UNL     1       0.166  12.209  19.919  0.00  0.00    +0.000 N 
ATOM     21  N   UNL     1       0.201  12.357  21.258  0.00  0.00    +0.000 NA
ATOM     22  N   UNL     1       0.634  11.214  21.778  0.00  0.00    +0.000 NA
BRANCH  20  23
ATOM     23  C   UNL     1      -0.427  13.230  19.067  0.00  0.00    +0.000 C 
BRANCH  23  24
ATOM     24  C   UNL     1       0.495  14.401  18.811  0.00  0.00    +0.000 A 
ATOM     25  C   UNL     1      -0.002  15.712  18.778  0.00  0.00    +0.000 A 
ATOM     26  C   UNL     1       0.842  16.790  18.501  0.00  0.00    +0.000 A 
ATOM     27  C   UNL     1       2.196  16.573  18.246  0.00  0.00    +0.000 A 
ATOM     28  C   UNL     1       2.710  15.273  18.263  0.00  0.00    +0.000 A 
ATOM     29  C   UNL     1       1.859  14.192  18.540  0.00  0.00    +0.000 A 
BRANCH  28  30
ATOM     30  C   UNL     1       4.099  15.047  17.989  0.00  0.00    +0.000 C 
ATOM     31  N   UNL     1       5.225  14.867  17.759  0.00  0.00    +0.000 NA
ENDBRANCH  28  30
ENDBRANCH  23  24
ENDBRANCH  20  23
ENDBRANCH  15  18
ENDBRANCH   1  14
BRANCH   1  32
ATOM     32  C   UNL     1       1.137   5.962  19.889  0.00  0.00    +0.000 C 
BRANCH  32  33
ATOM     33  C   UNL     1       1.424   4.465  19.817  0.00  0.00    +0.000 A 
ATOM     34  C   UNL     1       1.381   3.698  18.645  0.00  0.00    +0.000 A 
ATOM     35  C   UNL     1       1.806   2.362  18.640  0.00  0.00    +0.000 A 
ATOM     36  C   UNL     1       2.243   1.757  19.814  0.00  0.00    +0.000 A 
ATOM     37  C   UNL     1       2.228   2.479  21.003  0.00  0.00    +0.000 A 
ATOM     38  C   UNL     1       1.820   3.817  21.003  0.00  0.00    +0.000 A 
ENDBRANCH  32  33
ENDBRANCH   1  32
TORSDOF 10
ENDMDL
MODEL 8
REMARK VINA RESULT:      -7.4      3.480     10.857
REMARK  Name = 
REMARK  12 active torsions:
REMARK  status: ('A' for Active; 'I' for Inactive)
REMARK    1  A    between atoms: C_1  and  O_2
REMARK    2  A    between atoms: O_2  and  C_3
REMARK    3  A    between atoms: C_6  and  N_7
REMARK    4  A    between atoms: N_7  and  C_8
REMARK    5  A    between atoms: C_9  and  C_11
REMARK    6  A    between atoms: C_11  and  C_12
REMARK    7  A    between atoms: C_11  and  N_19
REMARK    8  A    between atoms: C_12  and  C_13
REMARK    9  A    between atoms: C_20  and  C_22
REMARK   10  A    between atoms: N_24  and  C_25
REMARK   11  A    between atoms: C_25  and  C_26
REMARK   12  A    between atoms: C_30  and  C_31
REMARK                            x       y       z     vdW  Elec       q    Type
REMARK                         _______ _______ _______ _____ _____    ______ ____
ROOT
ATOM      1  C   UNL     1       2.491   6.934  19.710  0.00  0.00    +0.000 C 
ENDROOT
BRANCH   1   4
ATOM      2  N   UNL     1       4.392   5.889  18.314  0.00  0.00    +0.000 N 
ATOM      3  C   UNL     1       5.094   5.569  19.557  0.00  0.00    +0.000 C 
ATOM      4  C   UNL     1       3.171   6.607  18.332  0.00  0.00    +0.000 C 
ATOM      5  O   UNL     1       2.545   6.918  17.310  0.00  0.00    +0.000 OA
BRANCH   2   9
ATOM      6  C   UNL     1       6.176   4.589  14.604  0.00  0.00    +0.000 A 
ATOM      7  C   UNL     1       6.612   5.747  15.239  0.00  0.00    +0.000 A 
ATOM      8  C   UNL     1       6.049   6.161  16.459  0.00  0.00    +0.000 A 
ATOM      9  C   UNL     1       5.013   5.446  17.074  0.00  0.00    +0.000 A 
ATOM     10  C   UNL     1       4.601   4.264  16.424  0.00  0.00    +0.000 A 
ATOM     11  C   UNL     1       5.170   3.841  15.206  0.00  0.00    +0.000 A 
BRANCH   6  13
ATOM     12  C   UNL     1       6.078   3.415  12.546  0.00  0.00    +0.000 C 
ATOM     13  O   UNL     1       6.765   4.321  13.401  0.00  0.00    +0.000 OA
ENDBRANCH   6  13
ENDBRANCH   2   9
ENDBRANCH   1   4
BRANCH   1  14
ATOM     14  N   UNL     1       1.791   8.224  19.569  0.00  0.00    +0.000 N 
ATOM     15  C   UNL     1       1.293   8.904  20.655  0.00  0.00    +0.000 C 
ATOM     16  O   UNL     1       1.368   8.455  21.799  0.00  0.00    +0.000 OA
ATOM     17  H   UNL     1       1.859   8.718  18.687  0.00  0.00    +0.000 HD
BRANCH  15  18
ATOM     18  C   UNL     1       0.638  10.170  20.364  0.00  0.00    +0.000 A 
ATOM     19  C   UNL     1      -0.653  10.331  19.893  0.00  0.00    +0.000 A 
ATOM     20  N   UNL     1      -0.815  11.682  19.811  0.00  0.00    +0.000 N 
ATOM     21  N   UNL     1       0.309  12.328  20.179  0.00  0.00    +0.000 NA
ATOM     22  N   UNL     1       1.213  11.410  20.505  0.00  0.00    +0.000 NA
BRANCH  20  23
ATOM     23  C   UNL     1      -2.049  12.410  19.557  0.00  0.00    +0.000 C 
BRANCH  23  24
ATOM     24  C   UNL     1      -2.528  13.206  20.749  0.00  0.00    +0.000 A 
ATOM     25  C   UNL     1      -2.336  14.594  20.810  0.00  0.00    +0.000 A 
ATOM     26  C   UNL     1      -2.741  15.324  21.930  0.00  0.00    +0.000 A 
ATOM     27  C   UNL     1      -3.338  14.676  23.011  0.00  0.00    +0.000 A 
ATOM     28  C   UNL     1      -3.528  13.292  22.976  0.00  0.00    +0.000 A 
ATOM     29  C   UNL     1      -3.119  12.561  21.850  0.00  0.00    +0.000 A 
BRANCH  28  30
ATOM     30  C   UNL     1      -4.132  12.622  24.092  0.00  0.00    +0.000 C 
ATOM     31  N   UNL     1      -4.615  12.084  25.002  0.00  0.00    +0.000 NA
ENDBRANCH  28  30
ENDBRANCH  23  24
ENDBRANCH  20  23
ENDBRANCH  15  18
ENDBRANCH   1  14
BRANCH   1  32
ATOM     32  C   UNL     1       1.496   5.812  20.088  0.00  0.00    +0.000 C 
BRANCH  32  33
ATOM     33  C   UNL     1       1.796   4.372  19.681  0.00  0.00    +0.000 A 
ATOM     34  C   UNL     1       1.375   3.776  18.484  0.00  0.00    +0.000 A 
ATOM     35  C   UNL     1       1.821   2.498  18.118  0.00  0.00    +0.000 A 
ATOM     36  C   UNL     1       2.664   1.778  18.959  0.00  0.00    +0.000 A 
ATOM     37  C   UNL     1       3.038   2.322  20.183  0.00  0.00    +0.000 A 
ATOM     38  C   UNL     1       2.606   3.604  20.539  0.00  0.00    +0.000 A 
ENDBRANCH  32  33
ENDBRANCH   1  32
TORSDOF 10
ENDMDL
MODEL 9
REMARK VINA RESULT:      -7.4      3.588     11.060
REMARK  Name = 
REMARK  12 active torsions:
REMARK  status: ('A' for Active; 'I' for Inactive)
REMARK    1  A    between atoms: C_1  and  O_2
REMARK    2  A    between atoms: O_2  and  C_3
REMARK    3  A    between atoms: C_6  and  N_7
REMARK    4  A    between atoms: N_7  and  C_8
REMARK    5  A    between atoms: C_9  and  C_11
REMARK    6  A    between atoms: C_11  and  C_12
REMARK    7  A    between atoms: C_11  and  N_19
REMARK    8  A    between atoms: C_12  and  C_13
REMARK    9  A    between atoms: C_20  and  C_22
REMARK   10  A    between atoms: N_24  and  C_25
REMARK   11  A    between atoms: C_25  and  C_26
REMARK   12  A    between atoms: C_30  and  C_31
REMARK                            x       y       z     vdW  Elec       q    Type
REMARK                         _______ _______ _______ _____ _____    ______ ____
ROOT
ATOM      1  C   UNL     1       2.600   6.684  19.784  0.00  0.00    +0.000 C 
ENDROOT
BRANCH   1   4
ATOM      2  N   UNL     1       4.496   5.774  18.290  0.00  0.00    +0.000 N 
ATOM      3  C   UNL     1       5.314   5.583  19.488  0.00  0.00    +0.000 C 
ATOM      4  C   UNL     1       3.212   6.365  18.372  0.00  0.00    +0.000 C 
ATOM      5  O   UNL     1       2.487   6.566  17.388  0.00  0.00    +0.000 OA
BRANCH   2   9
ATOM      6  C   UNL     1       6.139   4.479  14.514  0.00  0.00    +0.000 A 
ATOM      7  C   UNL     1       6.209   5.812  14.903  0.00  0.00    +0.000 A 
ATOM      8  C   UNL     1       5.696   6.233  16.143  0.00  0.00    +0.000 A 
ATOM      9  C   UNL     1       5.071   5.342  17.024  0.00  0.00    +0.000 A 
ATOM     10  C   UNL     1       5.030   3.992  16.618  0.00  0.00    +0.000 A 
ATOM     11  C   UNL     1       5.552   3.564  15.381  0.00  0.00    +0.000 A 
BRANCH   6  13
ATOM     12  C   UNL     1       5.845   3.333  12.458  0.00  0.00    +0.000 C 
ATOM     13  O   UNL     1       6.627   4.204  13.267  0.00  0.00    +0.000 OA
ENDBRANCH   6  13
ENDBRANCH   2   9
ENDBRANCH   1   4
BRANCH   1  14
ATOM     14  N   UNL     1       1.800   7.915  19.658  0.00  0.00    +0.000 N 
ATOM     15  C   UNL     1       1.349   8.605  20.759  0.00  0.00    +0.000 C 
ATOM     16  O   UNL     1       1.554   8.213  21.906  0.00  0.00    +0.000 OA
ATOM     17  H   UNL     1       1.756   8.374  18.756  0.00  0.00    +0.000 HD
BRANCH  15  18
ATOM     18  C   UNL     1       0.583   9.811  20.480  0.00  0.00    +0.000 A 
ATOM     19  C   UNL     1       0.441  10.899  21.323  0.00  0.00    +0.000 A 
ATOM     20  N   UNL     1      -0.328  11.774  20.616  0.00  0.00    +0.000 N 
ATOM     21  N   UNL     1      -0.671  11.259  19.418  0.00  0.00    +0.000 NA
ATOM     22  N   UNL     1      -0.132  10.048  19.332  0.00  0.00    +0.000 NA
BRANCH  20  23
ATOM     23  C   UNL     1      -0.624  13.159  20.949  0.00  0.00    +0.000 C 
BRANCH  23  24
ATOM     24  C   UNL     1      -1.540  13.303  22.143  0.00  0.00    +0.000 A 
ATOM     25  C   UNL     1      -2.712  12.539  22.245  0.00  0.00    +0.000 A 
ATOM     26  C   UNL     1      -3.579  12.701  23.327  0.00  0.00    +0.000 A 
ATOM     27  C   UNL     1      -3.292  13.635  24.323  0.00  0.00    +0.000 A 
ATOM     28  C   UNL     1      -2.135  14.415  24.235  0.00  0.00    +0.000 A 
ATOM     29  C   UNL     1      -1.266  14.251  23.145  0.00  0.00    +0.000 A 
BRANCH  28  30
ATOM     30  C   UNL     1      -1.844  15.384  25.251  0.00  0.00    +0.000 C 
ATOM     31  N   UNL     1      -1.607  16.176  26.068  0.00  0.00    +0.000 NA
ENDBRANCH  28  30
ENDBRANCH  23  24
ENDBRANCH  20  23
ENDBRANCH  15  18
ENDBRANCH   1  14
BRANCH   1  32
ATOM     32  C   UNL     1       1.717   5.505  20.255  0.00  0.00    +0.000 C 
BRANCH  32  33
ATOM     33  C   UNL     1       1.994   4.099  19.729  0.00  0.00    +0.000 A 
ATOM     34  C   UNL     1       1.382   3.532  18.602  0.00  0.00    +0.000 A 
ATOM     35  C   UNL     1       1.804   2.295  18.097  0.00  0.00    +0.000 A 
ATOM     36  C   UNL     1       2.818   1.584  18.730  0.00  0.00    +0.000 A 
ATOM     37  C   UNL     1       3.392   2.095  19.890  0.00  0.00    +0.000 A 
ATOM     38  C   UNL     1       2.982   3.339  20.382  0.00  0.00    +0.000 A 
ENDBRANCH  32  33
ENDBRANCH   1  32
TORSDOF 10
ENDMDL
