MODEL 1
REMARK VINA RESULT:      -8.2      0.000      0.000
REMARK  Name = 
REMARK  3 active torsions:
REMARK  status: ('A' for Active; 'I' for Inactive)
REMARK    1  A    between atoms: O_1  and  C_2
REMARK    2  A    between atoms: C_6  and  C_7
REMARK    3  A    between atoms: C_12  and  O_13
REMARK                            x       y       z     vdW  Elec       q    Type
REMARK                         _______ _______ _______ _____ _____    ______ ____
ROOT
ATOM      1  C   UNL     1       3.645   6.387  17.803  0.00  0.00    +0.000 A 
ATOM      2  C   UNL     1       5.020   6.564  17.560  0.00  0.00    +0.000 A 
ATOM      3  C   UNL     1       5.861   5.480  17.367  0.00  0.00    +0.000 A 
ATOM      4  C   UNL     1       5.354   4.190  17.456  0.00  0.00    +0.000 A 
ATOM      5  C   UNL     1       3.991   3.941  17.733  0.00  0.00    +0.000 A 
ATOM      6  C   UNL     1       3.467   2.628  17.867  0.00  0.00    +0.000 A 
ATOM      7  C   UNL     1       2.120   2.393  18.125  0.00  0.00    +0.000 A 
ATOM      8  C   UNL     1       1.250   3.460  18.234  0.00  0.00    +0.000 A 
ATOM      9  C   UNL     1       1.737   4.763  18.100  0.00  0.00    +0.000 A 
ATOM     10  C   UNL     1       3.109   5.056  17.880  0.00  0.00    +0.000 A 
ENDROOT
BRANCH   1  15
ATOM     11  C   UNL     1       0.367   9.411  20.869  0.00  0.00    +0.000 A 
ATOM     12  C   UNL     1       0.956   8.227  21.311  0.00  0.00    +0.000 A 
ATOM     13  C   UNL     1       1.842   7.521  20.479  0.00  0.00    +0.000 A 
ATOM     14  C   UNL     1       2.092   8.006  19.177  0.00  0.00    +0.000 A 
ATOM     15  C   UNL     1       2.838   7.608  18.014  0.00  0.00    +0.000 A 
ATOM     16  N   UNL     1       2.643   8.500  17.024  0.00  0.00    +0.000 NA
ATOM     17  O   UNL     1       1.834   9.491  17.528  0.00  0.00    +0.000 OA
ATOM     18  C   UNL     1       1.482   9.190  18.801  0.00  0.00    +0.000 A 
ATOM     19  C   UNL     1       0.628   9.938  19.608  0.00  0.00    +0.000 A 
BRANCH  11  20
ATOM     20  O   UNL     1      -0.501  10.102  21.665  0.00  0.00    +0.000 OA
ATOM     21  H   UNL     1      -1.184  10.512  21.110  0.00  0.00    +0.000 HD
ENDBRANCH  11  20
ENDBRANCH   1  15
BRANCH   6  22
ATOM     22  O   UNL     1       4.221   1.486  17.766  0.00  0.00    +0.000 OA
ATOM     23  H   UNL     1       4.714   1.341  18.583  0.00  0.00    +0.000 HD
ENDBRANCH   6  22
TORSDOF 3
ENDMDL
MODEL 2
REMARK VINA RESULT:      -8.1      3.205      6.425
REMARK  Name = 
REMARK  3 active torsions:
REMARK  status: ('A' for Active; 'I' for Inactive)
REMARK    1  A    between atoms: O_1  and  C_2
REMARK    2  A    between atoms: C_6  and  C_7
REMARK    3  A    between atoms: C_12  and  O_13
REMARK                            x       y       z     vdW  Elec       q    Type
REMARK                         _______ _______ _______ _____ _____    ______ ____
ROOT
ATOM      1  C   UNL     1       4.259   5.594  17.445  0.00  0.00    +0.000 A 
ATOM      2  C   UNL     1       3.738   6.859  17.776  0.00  0.00    +0.000 A 
ATOM      3  C   UNL     1       2.624   6.986  18.591  0.00  0.00    +0.000 A 
ATOM      4  C   UNL     1       1.980   5.848  19.060  0.00  0.00    +0.000 A 
ATOM      5  C   UNL     1       2.430   4.548  18.734  0.00  0.00    +0.000 A 
ATOM      6  C   UNL     1       1.756   3.377  19.173  0.00  0.00    +0.000 A 
ATOM      7  C   UNL     1       2.216   2.102  18.859  0.00  0.00    +0.000 A 
ATOM      8  C   UNL     1       3.373   1.955  18.121  0.00  0.00    +0.000 A 
ATOM      9  C   UNL     1       4.059   3.090  17.682  0.00  0.00    +0.000 A 
ATOM     10  C   UNL     1       3.608   4.413  17.937  0.00  0.00    +0.000 A 
ENDROOT
BRANCH   1  15
ATOM     11  C   UNL     1       6.690   4.013  12.875  0.00  0.00    +0.000 A 
ATOM     12  C   UNL     1       5.349   3.761  13.158  0.00  0.00    +0.000 A 
ATOM     13  C   UNL     1       4.769   4.250  14.341  0.00  0.00    +0.000 A 
ATOM     14  C   UNL     1       5.574   4.962  15.255  0.00  0.00    +0.000 A 
ATOM     15  C   UNL     1       5.438   5.568  16.552  0.00  0.00    +0.000 A 
ATOM     16  N   UNL     1       6.621   6.081  16.938  0.00  0.00    +0.000 NA
ATOM     17  O   UNL     1       7.507   5.872  15.907  0.00  0.00    +0.000 OA
ATOM     18  C   UNL     1       6.897   5.184  14.913  0.00  0.00    +0.000 A 
ATOM     19  C   UNL     1       7.500   4.749  13.736  0.00  0.00    +0.000 A 
BRANCH  11  20
ATOM     20  O   UNL     1       7.268   3.537  11.733  0.00  0.00    +0.000 OA
ATOM     21  H   UNL     1       8.106   4.002  11.582  0.00  0.00    +0.000 HD
ENDBRANCH  11  20
ENDBRANCH   1  15
BRANCH   6  22
ATOM     22  O   UNL     1       0.608   3.386  19.923  0.00  0.00    +0.000 OA
ATOM     23  H   UNL     1       0.689   4.019  20.647  0.00  0.00    +0.000 HD
ENDBRANCH   6  22
TORSDOF 3
ENDMDL
MODEL 3
REMARK VINA RESULT:      -7.9      1.098      2.644
REMARK  Name = 
REMARK  3 active torsions:
REMARK  status: ('A' for Active; 'I' for Inactive)
REMARK    1  A    between atoms: O_1  and  C_2
REMARK    2  A    between atoms: C_6  and  C_7
REMARK    3  A    between atoms: C_12  and  O_13
REMARK                            x       y       z     vdW  Elec       q    Type
REMARK                         _______ _______ _______ _____ _____    ______ ____
ROOT
ATOM      1  C   UNL     1       2.665   6.390  17.941  0.00  0.00    +0.000 A 
ATOM      2  C   UNL     1       1.693   5.376  18.027  0.00  0.00    +0.000 A 
ATOM      3  C   UNL     1       1.997   4.061  17.712  0.00  0.00    +0.000 A 
ATOM      4  C   UNL     1       3.270   3.738  17.260  0.00  0.00    +0.000 A 
ATOM      5  C   UNL     1       4.282   4.714  17.116  0.00  0.00    +0.000 A 
ATOM      6  C   UNL     1       5.575   4.405  16.617  0.00  0.00    +0.000 A 
ATOM      7  C   UNL     1       6.568   5.371  16.493  0.00  0.00    +0.000 A 
ATOM      8  C   UNL     1       6.311   6.669  16.885  0.00  0.00    +0.000 A 
ATOM      9  C   UNL     1       5.049   7.001  17.385  0.00  0.00    +0.000 A 
ATOM     10  C   UNL     1       3.988   6.062  17.490  0.00  0.00    +0.000 A 
ENDROOT
BRANCH   1  15
ATOM     11  C   UNL     1       0.673   9.978  21.470  0.00  0.00    +0.000 A 
ATOM     12  C   UNL     1       0.983   8.662  21.806  0.00  0.00    +0.000 A 
ATOM     13  C   UNL     1       1.550   7.800  20.852  0.00  0.00    +0.000 A 
ATOM     14  C   UNL     1       1.760   8.275  19.539  0.00  0.00    +0.000 A 
ATOM     15  C   UNL     1       2.233   7.763  18.281  0.00  0.00    +0.000 A 
ATOM     16  N   UNL     1       2.157   8.727  17.344  0.00  0.00    +0.000 NA
ATOM     17  O   UNL     1       1.698   9.863  17.969  0.00  0.00    +0.000 OA
ATOM     18  C   UNL     1       1.436   9.593  19.270  0.00  0.00    +0.000 A 
ATOM     19  C   UNL     1       0.908  10.489  20.196  0.00  0.00    +0.000 A 
BRANCH  11  20
ATOM     20  O   UNL     1       0.114  10.823  22.385  0.00  0.00    +0.000 OA
ATOM     21  H   UNL     1       0.046  10.367  23.240  0.00  0.00    +0.000 HD
ENDBRANCH  11  20
ENDBRANCH   1  15
BRANCH   6  22
ATOM     22  O   UNL     1       5.962   3.153  16.209  0.00  0.00    +0.000 OA
ATOM     23  H   UNL     1       6.665   2.820  16.781  0.00  0.00    +0.000 HD
ENDBRANCH   6  22
TORSDOF 3
ENDMDL
MODEL 4
REMARK VINA RESULT:      -7.8      1.778      2.326
REMARK  Name = 
REMARK  3 active torsions:
REMARK  status: ('A' for Active; 'I' for Inactive)
REMARK    1  A    between atoms: O_1  and  C_2
REMARK    2  A    between atoms: C_6  and  C_7
REMARK    3  A    between atoms: C_12  and  O_13
REMARK                            x       y       z     vdW  Elec       q    Type
REMARK                         _______ _______ _______ _____ _____    ______ ____
ROOT
ATOM      1  C   UNL     1       3.171   5.560  19.425  0.00  0.00    +0.000 A 
ATOM      2  C   UNL     1       4.555   5.803  19.354  0.00  0.00    +0.000 A 
ATOM      3  C   UNL     1       5.442   4.803  18.989  0.00  0.00    +0.000 A 
ATOM      4  C   UNL     1       4.969   3.523  18.728  0.00  0.00    +0.000 A 
ATOM      5  C   UNL     1       3.595   3.203  18.817  0.00  0.00    +0.000 A 
ATOM      6  C   UNL     1       3.102   1.890  18.593  0.00  0.00    +0.000 A 
ATOM      7  C   UNL     1       1.746   1.588  18.669  0.00  0.00    +0.000 A 
ATOM      8  C   UNL     1       0.838   2.591  18.946  0.00  0.00    +0.000 A 
ATOM      9  C   UNL     1       1.294   3.893  19.164  0.00  0.00    +0.000 A 
ATOM     10  C   UNL     1       2.671   4.243  19.142  0.00  0.00    +0.000 A 
ENDROOT
BRANCH   1  15
ATOM     11  C   UNL     1       1.161  10.519  18.614  0.00  0.00    +0.000 A 
ATOM     12  C   UNL     1       1.974   9.860  17.694  0.00  0.00    +0.000 A 
ATOM     13  C   UNL     1       2.415   8.550  17.946  0.00  0.00    +0.000 A 
ATOM     14  C   UNL     1       2.058   7.930  19.162  0.00  0.00    +0.000 A 
ATOM     15  C   UNL     1       2.312   6.689  19.844  0.00  0.00    +0.000 A 
ATOM     16  N   UNL     1       1.701   6.699  21.043  0.00  0.00    +0.000 NA
ATOM     17  O   UNL     1       1.014   7.886  21.137  0.00  0.00    +0.000 OA
ATOM     18  C   UNL     1       1.243   8.635  20.032  0.00  0.00    +0.000 A 
ATOM     19  C   UNL     1       0.755   9.918  19.803  0.00  0.00    +0.000 A 
BRANCH  11  20
ATOM     20  O   UNL     1       0.732  11.795  18.385  0.00  0.00    +0.000 OA
ATOM     21  H   UNL     1      -0.231  11.833  18.500  0.00  0.00    +0.000 HD
ENDBRANCH  11  20
ENDBRANCH   1  15
BRANCH   6  22
ATOM     22  O   UNL     1       3.896   0.811  18.297  0.00  0.00    +0.000 OA
ATOM     23  H   UNL     1       3.420  -0.010  18.472  0.00  0.00    +0.000 HD
ENDBRANCH   6  22
TORSDOF 3
ENDMDL
MODEL 5
REMARK VINA RESULT:      -7.6      4.237      5.527
REMARK  Name = 
REMARK  3 active torsions:
REMARK  status: ('A' for Active; 'I' for Inactive)
REMARK    1  A    between atoms: O_1  and  C_2
REMARK    2  A    between atoms: C_6  and  C_7
REMARK    3  A    between atoms: C_12  and  O_13
REMARK                            x       y       z     vdW  Elec       q    Type
REMARK                         _______ _______ _______ _____ _____    ______ ____
ROOT
ATOM      1  C   UNL     1       5.863   4.671  18.002  0.00  0.00    +0.000 A 
ATOM      2  C   UNL     1       6.584   5.648  18.713  0.00  0.00    +0.000 A 
ATOM      3  C   UNL     1       7.480   6.489  18.071  0.00  0.00    +0.000 A 
ATOM      4  C   UNL     1       7.707   6.343  16.708  0.00  0.00    +0.000 A 
ATOM      5  C   UNL     1       7.043   5.357  15.943  0.00  0.00    +0.000 A 
ATOM      6  C   UNL     1       7.296   5.170  14.558  0.00  0.00    +0.000 A 
ATOM      7  C   UNL     1       6.627   4.207  13.809  0.00  0.00    +0.000 A 
ATOM      8  C   UNL     1       5.668   3.418  14.413  0.00  0.00    +0.000 A 
ATOM      9  C   UNL     1       5.394   3.585  15.773  0.00  0.00    +0.000 A 
ATOM     10  C   UNL     1       6.081   4.523  16.590  0.00  0.00    +0.000 A 
ENDROOT
BRANCH   1  15
ATOM     11  C   UNL     1       0.882   2.903  19.163  0.00  0.00    +0.000 A 
ATOM     12  C   UNL     1       1.161   3.780  18.116  0.00  0.00    +0.000 A 
ATOM     13  C   UNL     1       2.486   4.154  17.837  0.00  0.00    +0.000 A 
ATOM     14  C   UNL     1       3.524   3.662  18.658  0.00  0.00    +0.000 A 
ATOM     15  C   UNL     1       4.948   3.812  18.784  0.00  0.00    +0.000 A 
ATOM     16  N   UNL     1       5.388   3.089  19.831  0.00  0.00    +0.000 NA
ATOM     17  O   UNL     1       4.299   2.434  20.355  0.00  0.00    +0.000 OA
ATOM     18  C   UNL     1       3.182   2.790  19.678  0.00  0.00    +0.000 A 
ATOM     19  C   UNL     1       1.886   2.366  19.963  0.00  0.00    +0.000 A 
BRANCH  11  20
ATOM     20  O   UNL     1      -0.402   2.538  19.449  0.00  0.00    +0.000 OA
ATOM     21  H   UNL     1      -0.953   3.335  19.515  0.00  0.00    +0.000 HD
ENDBRANCH  11  20
ENDBRANCH   1  15
BRANCH   6  22
ATOM     22  O   UNL     1       8.211   5.897  13.838  0.00  0.00    +0.000 OA
ATOM     23  H   UNL     1       8.146   5.677  12.900  0.00  0.00    +0.000 HD
ENDBRANCH   6  22
TORSDOF 3
ENDMDL
MODEL 6
REMARK VINA RESULT:      -7.5      1.801      3.291
REMARK  Name = 
REMARK  3 active torsions:
REMARK  status: ('A' for Active; 'I' for Inactive)
REMARK    1  A    between atoms: O_1  and  C_2
REMARK    2  A    between atoms: C_6  and  C_7
REMARK    3  A    between atoms: C_12  and  O_13
REMARK                            x       y       z     vdW  Elec       q    Type
REMARK                         _______ _______ _______ _____ _____    ______ ____
ROOT
ATOM      1  C   UNL     1       2.779   5.233  18.451  0.00  0.00    +0.000 A 
ATOM      2  C   UNL     1       1.962   4.103  18.260  0.00  0.00    +0.000 A 
ATOM      3  C   UNL     1       2.392   3.025  17.503  0.00  0.00    +0.000 A 
ATOM      4  C   UNL     1       3.635   3.070  16.884  0.00  0.00    +0.000 A 
ATOM      5  C   UNL     1       4.489   4.189  17.005  0.00  0.00    +0.000 A 
ATOM      6  C   UNL     1       5.744   4.266  16.344  0.00  0.00    +0.000 A 
ATOM      7  C   UNL     1       6.584   5.366  16.481  0.00  0.00    +0.000 A 
ATOM      8  C   UNL     1       6.211   6.412  17.301  0.00  0.00    +0.000 A 
ATOM      9  C   UNL     1       4.984   6.361  17.969  0.00  0.00    +0.000 A 
ATOM     10  C   UNL     1       4.072   5.281  17.827  0.00  0.00    +0.000 A 
ENDROOT
BRANCH   1  15
ATOM     11  C   UNL     1       1.310  10.413  18.997  0.00  0.00    +0.000 A 
ATOM     12  C   UNL     1       1.760   9.865  17.797  0.00  0.00    +0.000 A 
ATOM     13  C   UNL     1       2.072   8.497  17.714  0.00  0.00    +0.000 A 
ATOM     14  C   UNL     1       1.964   7.699  18.873  0.00  0.00    +0.000 A 
ATOM     15  C   UNL     1       2.219   6.338  19.259  0.00  0.00    +0.000 A 
ATOM     16  N   UNL     1       1.947   6.181  20.569  0.00  0.00    +0.000 NA
ATOM     17  O   UNL     1       1.475   7.387  21.030  0.00  0.00    +0.000 OA
ATOM     18  C   UNL     1       1.505   8.302  20.032  0.00  0.00    +0.000 A 
ATOM     19  C   UNL     1       1.151   9.643  20.146  0.00  0.00    +0.000 A 
BRANCH  11  20
ATOM     20  O   UNL     1       1.011  11.742  19.093  0.00  0.00    +0.000 OA
ATOM     21  H   UNL     1       1.257  12.184  18.264  0.00  0.00    +0.000 HD
ENDBRANCH  11  20
ENDBRANCH   1  15
BRANCH   6  22
ATOM     22  O   UNL     1       6.237   3.289  15.515  0.00  0.00    +0.000 OA
ATOM     23  H   UNL     1       5.884   2.428  15.771  0.00  0.00    +0.000 HD
ENDBRANCH   6  22
TORSDOF 3
ENDMDL
MODEL 7
REMARK VINA RESULT:      -7.5      3.338      6.866
REMARK  Name = 
REMARK  3 active torsions:
REMARK  status: ('A' for Active; 'I' for Inactive)
REMARK    1  A    between atoms: O_1  and  C_2
REMARK    2  A    between atoms: C_6  and  C_7
REMARK    3  A    between atoms: C_12  and  O_13
REMARK                            x       y       z     vdW  Elec       q    Type
REMARK                         _______ _______ _______ _____ _____    ______ ____
ROOT
ATOM      1  C   UNL     1       5.077   5.089  17.766  0.00  0.00    +0.000 A 
ATOM      2  C   UNL     1       5.236   3.906  18.511  0.00  0.00    +0.000 A 
ATOM      3  C   UNL     1       4.423   3.627  19.599  0.00  0.00    +0.000 A 
ATOM      4  C   UNL     1       3.460   4.548  19.993  0.00  0.00    +0.000 A 
ATOM      5  C   UNL     1       3.274   5.771  19.311  0.00  0.00    +0.000 A 
ATOM      6  C   UNL     1       2.321   6.739  19.727  0.00  0.00    +0.000 A 
ATOM      7  C   UNL     1       2.135   7.934  19.040  0.00  0.00    +0.000 A 
ATOM      8  C   UNL     1       2.874   8.190  17.903  0.00  0.00    +0.000 A 
ATOM      9  C   UNL     1       3.815   7.253  17.466  0.00  0.00    +0.000 A 
ATOM     10  C   UNL     1       4.074   6.039  18.157  0.00  0.00    +0.000 A 
ENDROOT
BRANCH   1  15
ATOM     11  C   UNL     1       6.699   4.009  12.716  0.00  0.00    +0.000 A 
ATOM     12  C   UNL     1       5.534   3.488  13.277  0.00  0.00    +0.000 A 
ATOM     13  C   UNL     1       5.144   3.856  14.576  0.00  0.00    +0.000 A 
ATOM     14  C   UNL     1       5.972   4.725  15.318  0.00  0.00    +0.000 A 
ATOM     15  C   UNL     1       6.008   5.300  16.636  0.00  0.00    +0.000 A 
ATOM     16  N   UNL     1       7.118   6.049  16.772  0.00  0.00    +0.000 NA
ATOM     17  O   UNL     1       7.775   6.020  15.565  0.00  0.00    +0.000 OA
ATOM     18  C   UNL     1       7.112   5.213  14.703  0.00  0.00    +0.000 A 
ATOM     19  C   UNL     1       7.513   4.903  13.406  0.00  0.00    +0.000 A 
BRANCH  11  20
ATOM     20  O   UNL     1       7.091   3.654  11.458  0.00  0.00    +0.000 OA
ATOM     21  H   UNL     1       6.524   2.933  11.139  0.00  0.00    +0.000 HD
ENDBRANCH  11  20
ENDBRANCH   1  15
BRANCH   6  22
ATOM     22  O   UNL     1       1.515   6.599  20.829  0.00  0.00    +0.000 OA
ATOM     23  H   UNL     1       1.375   7.458  21.248  0.00  0.00    +0.000 HD
ENDBRANCH   6  22
TORSDOF 3
ENDMDL
MODEL 8
REMARK VINA RESULT:      -7.4      1.264      1.298
REMARK  Name = 
REMARK  3 active torsions:
REMARK  status: ('A' for Active; 'I' for Inactive)
REMARK    1  A    between atoms: O_1  and  C_2
REMARK    2  A    between atoms: C_6  and  C_7
REMARK    3  A    between atoms: C_12  and  O_13
REMARK                            x       y       z     vdW  Elec       q    Type
REMARK                         _______ _______ _______ _____ _____    ______ ____
ROOT
ATOM      1  C   UNL     1       3.076   6.822  18.328  0.00  0.00    +0.000 A 
ATOM      2  C   UNL     1       4.193   6.986  17.488  0.00  0.00    +0.000 A 
ATOM      3  C   UNL     1       5.074   5.943  17.252  0.00  0.00    +0.000 A 
ATOM      4  C   UNL     1       4.882   4.722  17.887  0.00  0.00    +0.000 A 
ATOM      5  C   UNL     1       3.802   4.502  18.771  0.00  0.00    +0.000 A 
ATOM      6  C   UNL     1       3.617   3.273  19.458  0.00  0.00    +0.000 A 
ATOM      7  C   UNL     1       2.542   3.061  20.315  0.00  0.00    +0.000 A 
ATOM      8  C   UNL     1       1.605   4.059  20.494  0.00  0.00    +0.000 A 
ATOM      9  C   UNL     1       1.759   5.277  19.826  0.00  0.00    +0.000 A 
ATOM     10  C   UNL     1       2.861   5.558  18.976  0.00  0.00    +0.000 A 
ENDROOT
BRANCH   1  15
ATOM     11  C   UNL     1       0.082   9.994  21.531  0.00  0.00    +0.000 A 
ATOM     12  C   UNL     1       0.837   8.922  22.002  0.00  0.00    +0.000 A 
ATOM     13  C   UNL     1       1.636   8.174  21.120  0.00  0.00    +0.000 A 
ATOM     14  C   UNL     1       1.628   8.499  19.746  0.00  0.00    +0.000 A 
ATOM     15  C   UNL     1       2.208   8.002  18.528  0.00  0.00    +0.000 A 
ATOM     16  N   UNL     1       1.775   8.740  17.488  0.00  0.00    +0.000 NA
ATOM     17  O   UNL     1       0.974   9.731  18.002  0.00  0.00    +0.000 OA
ATOM     18  C   UNL     1       0.861   9.579  19.343  0.00  0.00    +0.000 A 
ATOM     19  C   UNL     1       0.086  10.367  20.190  0.00  0.00    +0.000 A 
BRANCH  11  20
ATOM     20  O   UNL     1      -0.704  10.723  22.376  0.00  0.00    +0.000 OA
ATOM     21  H   UNL     1      -0.234  11.535  22.629  0.00  0.00    +0.000 HD
ENDBRANCH  11  20
ENDBRANCH   1  15
BRANCH   6  22
ATOM     22  O   UNL     1       4.466   2.199  19.355  0.00  0.00    +0.000 OA
ATOM     23  H   UNL     1       4.727   2.070  18.435  0.00  0.00    +0.000 HD
ENDBRANCH   6  22
TORSDOF 3
ENDMDL
MODEL 9
REMARK VINA RESULT:      -7.3      1.264      2.975
REMARK  Name = 
REMARK  3 active torsions:
REMARK  status: ('A' for Active; 'I' for Inactive)
REMARK    1  A    between atoms: O_1  and  C_2
REMARK    2  A    between atoms: C_6  and  C_7
REMARK    3  A    between atoms: C_12  and  O_13
REMARK                            x       y       z     vdW  Elec       q    Type
REMARK                         _______ _______ _______ _____ _____    ______ ____
ROOT
ATOM      1  C   UNL     1       3.498   6.398  17.854  0.00  0.00    +0.000 A 
ATOM      2  C   UNL     1       2.775   5.191  17.817  0.00  0.00    +0.000 A 
ATOM      3  C   UNL     1       3.411   3.980  17.598  0.00  0.00    +0.000 A 
ATOM      4  C   UNL     1       4.781   3.952  17.369  0.00  0.00    +0.000 A 
ATOM      5  C   UNL     1       5.560   5.132  17.356  0.00  0.00    +0.000 A 
ATOM      6  C   UNL     1       6.953   5.123  17.082  0.00  0.00    +0.000 A 
ATOM      7  C   UNL     1       7.714   6.288  17.087  0.00  0.00    +0.000 A 
ATOM      8  C   UNL     1       7.113   7.494  17.389  0.00  0.00    +0.000 A 
ATOM      9  C   UNL     1       5.745   7.531  17.669  0.00  0.00    +0.000 A 
ATOM     10  C   UNL     1       4.917   6.378  17.633  0.00  0.00    +0.000 A 
ENDROOT
BRANCH   1  15
ATOM     11  C   UNL     1       0.315   9.492  20.952  0.00  0.00    +0.000 A 
ATOM     12  C   UNL     1       0.879   8.293  21.386  0.00  0.00    +0.000 A 
ATOM     13  C   UNL     1       1.742   7.569  20.546  0.00  0.00    +0.000 A 
ATOM     14  C   UNL     1       1.994   8.051  19.244  0.00  0.00    +0.000 A 
ATOM     15  C   UNL     1       2.721   7.638  18.075  0.00  0.00    +0.000 A 
ATOM     16  N   UNL     1       2.539   8.536  17.088  0.00  0.00    +0.000 NA
ATOM     17  O   UNL     1       1.757   9.545  17.600  0.00  0.00    +0.000 OA
ATOM     18  C   UNL     1       1.408   9.250  18.875  0.00  0.00    +0.000 A 
ATOM     19  C   UNL     1       0.579  10.016  19.690  0.00  0.00    +0.000 A 
BRANCH  11  20
ATOM     20  O   UNL     1      -0.530  10.201  21.756  0.00  0.00    +0.000 OA
ATOM     21  H   UNL     1      -0.175  10.214  22.659  0.00  0.00    +0.000 HD
ENDBRANCH  11  20
ENDBRANCH   1  15
BRANCH   6  22
ATOM     22  O   UNL     1       7.670   3.992  16.783  0.00  0.00    +0.000 OA
ATOM     23  H   UNL     1       8.420   3.905  17.386  0.00  0.00    +0.000 HD
ENDBRANCH   6  22
TORSDOF 3
ENDMDL
