MODEL 1
REMARK VINA RESULT:      -6.3      0.000      0.000
REMARK  Name = 
REMARK  4 active torsions:
REMARK  status: ('A' for Active; 'I' for Inactive)
REMARK    1  A    between atoms: C_2  and  SE_4
REMARK    2  A    between atoms: SE_4  and  C_5
REMARK    3  A    between atoms: C_5  and  C_6
REMARK    4  A    between atoms: C_9  and  N_10
REMARK                            x       y       z     vdW  Elec       q    Type
REMARK                         _______ _______ _______ _____ _____    ______ ____
ROOT
ATOM      1  C   UNL     1       4.107   5.495  18.460  0.00  0.00    +0.000 A 
ATOM      2  C   UNL     1       4.042   6.549  17.540  0.00  0.00    +0.000 A 
ATOM      3  C   UNL     1       3.180   7.627  17.749  0.00  0.00    +0.000 A 
ATOM      4  C   UNL     1       2.349   7.680  18.890  0.00  0.00    +0.000 A 
ATOM      5  C   UNL     1       2.406   6.603  19.800  0.00  0.00    +0.000 A 
ATOM      6  C   UNL     1       3.271   5.525  19.585  0.00  0.00    +0.000 A 
ENDROOT
BRANCH   4   7
ATOM      7  N   UNL     1       1.476   8.819  19.124  0.00  0.00    +0.000 N 
ATOM      8  C   UNL     1       0.926   9.195  20.304  0.00  0.00    +0.000 A 
ATOM      9  C   UNL     1       0.145  10.317  20.129  0.00  0.00    +0.000 A 
ATOM     10  C   UNL     1       0.214  10.641  18.794  0.00  0.00    +0.000 A 
ATOM     11  C   UNL     1       1.038   9.707  18.201  0.00  0.00    +0.000 A 
ENDBRANCH   4   7
BRANCH   1  12
ATOM     12  C   UNL     1       5.080   4.364  18.239  0.00  0.00    +0.000 C 
BRANCH  12  13
ATOM     13 SE   UNL     1       5.264   4.100  16.307  0.00  0.00    +0.000 Se
BRANCH  13  15
ATOM     14  N   UNL     1       7.923   4.205  17.141  0.00  0.00    +0.000 NA
ATOM     15  C   UNL     1       7.117   4.612  16.228  0.00  0.00    +0.000 C 
ATOM     16  N   UNL     1       7.593   5.371  15.129  0.00  0.00    +0.000 N 
ATOM     17  H   UNL     1       8.928   4.434  17.113  0.00  0.00    +0.000 HD
ATOM     18  H   UNL     1       8.592   5.609  15.044  0.00  0.00    +0.000 HD
ATOM     19  H   UNL     1       6.942   5.671  14.389  0.00  0.00    +0.000 HD
ENDBRANCH  13  15
ENDBRANCH  12  13
ENDBRANCH   1  12
TORSDOF 4
ENDMDL
MODEL 2
REMARK VINA RESULT:      -6.2      4.289      6.017
REMARK  Name = 
REMARK  4 active torsions:
REMARK  status: ('A' for Active; 'I' for Inactive)
REMARK    1  A    between atoms: C_2  and  SE_4
REMARK    2  A    between atoms: SE_4  and  C_5
REMARK    3  A    between atoms: C_5  and  C_6
REMARK    4  A    between atoms: C_9  and  N_10
REMARK                            x       y       z     vdW  Elec       q    Type
REMARK                         _______ _______ _______ _____ _____    ______ ____
ROOT
ATOM      1  C   UNL     1       3.462   2.893  18.473  0.00  0.00    +0.000 A 
ATOM      2  C   UNL     1       4.491   3.034  19.414  0.00  0.00    +0.000 A 
ATOM      3  C   UNL     1       5.450   4.039  19.275  0.00  0.00    +0.000 A 
ATOM      4  C   UNL     1       5.411   4.934  18.183  0.00  0.00    +0.000 A 
ATOM      5  C   UNL     1       4.383   4.771  17.231  0.00  0.00    +0.000 A 
ATOM      6  C   UNL     1       3.424   3.761  17.373  0.00  0.00    +0.000 A 
ENDROOT
BRANCH   4   7
ATOM      7  N   UNL     1       6.391   6.001  18.059  0.00  0.00    +0.000 N 
ATOM      8  C   UNL     1       7.534   6.143  18.774  0.00  0.00    +0.000 A 
ATOM      9  C   UNL     1       8.198   7.286  18.384  0.00  0.00    +0.000 A 
ATOM     10  C   UNL     1       7.437   7.869  17.398  0.00  0.00    +0.000 A 
ATOM     11  C   UNL     1       6.335   7.060  17.218  0.00  0.00    +0.000 A 
ENDBRANCH   4   7
BRANCH   1  12
ATOM     12  C   UNL     1       2.408   1.832  18.667  0.00  0.00    +0.000 C 
BRANCH  12  13
ATOM     13 SE   UNL     1       0.727   2.732  19.116  0.00  0.00    +0.000 Se
BRANCH  13  15
ATOM     14  N   UNL     1       1.539   2.665  21.783  0.00  0.00    +0.000 NA
ATOM     15  C   UNL     1       1.347   3.454  20.789  0.00  0.00    +0.000 C 
ATOM     16  N   UNL     1       1.655   4.834  20.891  0.00  0.00    +0.000 N 
ATOM     17  H   UNL     1       1.901   3.012  22.684  0.00  0.00    +0.000 HD
ATOM     18  H   UNL     1       2.036   5.228  21.763  0.00  0.00    +0.000 HD
ATOM     19  H   UNL     1       1.520   5.454  20.079  0.00  0.00    +0.000 HD
ENDBRANCH  13  15
ENDBRANCH  12  13
ENDBRANCH   1  12
TORSDOF 4
ENDMDL
MODEL 3
REMARK VINA RESULT:      -6.1      3.375      4.578
REMARK  Name = 
REMARK  4 active torsions:
REMARK  status: ('A' for Active; 'I' for Inactive)
REMARK    1  A    between atoms: C_2  and  SE_4
REMARK    2  A    between atoms: SE_4  and  C_5
REMARK    3  A    between atoms: C_5  and  C_6
REMARK    4  A    between atoms: C_9  and  N_10
REMARK                            x       y       z     vdW  Elec       q    Type
REMARK                         _______ _______ _______ _____ _____    ______ ____
ROOT
ATOM      1  C   UNL     1       4.587   5.228  16.493  0.00  0.00    +0.000 A 
ATOM      2  C   UNL     1       4.123   6.038  17.537  0.00  0.00    +0.000 A 
ATOM      3  C   UNL     1       3.440   5.483  18.620  0.00  0.00    +0.000 A 
ATOM      4  C   UNL     1       3.197   4.093  18.689  0.00  0.00    +0.000 A 
ATOM      5  C   UNL     1       3.650   3.288  17.623  0.00  0.00    +0.000 A 
ATOM      6  C   UNL     1       4.333   3.849  16.538  0.00  0.00    +0.000 A 
ENDROOT
BRANCH   4   7
ATOM      7  N   UNL     1       2.515   3.513  19.835  0.00  0.00    +0.000 N 
ATOM      8  C   UNL     1       1.176   3.431  20.030  0.00  0.00    +0.000 A 
ATOM      9  C   UNL     1       0.908   2.828  21.241  0.00  0.00    +0.000 A 
ATOM     10  C   UNL     1       2.125   2.532  21.812  0.00  0.00    +0.000 A 
ATOM     11  C   UNL     1       3.092   2.961  20.929  0.00  0.00    +0.000 A 
ENDBRANCH   4   7
BRANCH   1  12
ATOM     12  C   UNL     1       5.365   5.841  15.355  0.00  0.00    +0.000 C 
BRANCH  12  13
ATOM     13 SE   UNL     1       7.079   4.901  15.227  0.00  0.00    +0.000 Se
BRANCH  13  15
ATOM     14  N   UNL     1       7.834   4.127  17.797  0.00  0.00    +0.000 NA
ATOM     15  C   UNL     1       7.564   5.152  17.072  0.00  0.00    +0.000 C 
ATOM     16  N   UNL     1       7.690   6.463  17.597  0.00  0.00    +0.000 N 
ATOM     17  H   UNL     1       8.128   4.226  18.780  0.00  0.00    +0.000 HD
ATOM     18  H   UNL     1       7.998   6.616  18.567  0.00  0.00    +0.000 HD
ATOM     19  H   UNL     1       7.494   7.278  16.998  0.00  0.00    +0.000 HD
ENDBRANCH  13  15
ENDBRANCH  12  13
ENDBRANCH   1  12
TORSDOF 4
ENDMDL
MODEL 4
REMARK VINA RESULT:      -6.1      3.466      4.569
REMARK  Name = 
REMARK  4 active torsions:
REMARK  status: ('A' for Active; 'I' for Inactive)
REMARK    1  A    between atoms: C_2  and  SE_4
REMARK    2  A    between atoms: SE_4  and  C_5
REMARK    3  A    between atoms: C_5  and  C_6
REMARK    4  A    between atoms: C_9  and  N_10
REMARK                            x       y       z     vdW  Elec       q    Type
REMARK                         _______ _______ _______ _____ _____    ______ ____
ROOT
ATOM      1  C   UNL     1       5.404   5.691  16.824  0.00  0.00    +0.000 A 
ATOM      2  C   UNL     1       4.632   6.352  17.788  0.00  0.00    +0.000 A 
ATOM      3  C   UNL     1       3.552   5.712  18.398  0.00  0.00    +0.000 A 
ATOM      4  C   UNL     1       3.210   4.384  18.058  0.00  0.00    +0.000 A 
ATOM      5  C   UNL     1       3.981   3.733  17.072  0.00  0.00    +0.000 A 
ATOM      6  C   UNL     1       5.061   4.380  16.462  0.00  0.00    +0.000 A 
ENDROOT
BRANCH   4   7
ATOM      7  N   UNL     1       2.106   3.707  18.720  0.00  0.00    +0.000 N 
ATOM      8  C   UNL     1       1.471   4.099  19.851  0.00  0.00    +0.000 A 
ATOM      9  C   UNL     1       0.485   3.194  20.182  0.00  0.00    +0.000 A 
ATOM     10  C   UNL     1       0.516   2.209  19.222  0.00  0.00    +0.000 A 
ATOM     11  C   UNL     1       1.519   2.548  18.338  0.00  0.00    +0.000 A 
ENDBRANCH   4   7
BRANCH   1  12
ATOM     12  C   UNL     1       6.596   6.383  16.212  0.00  0.00    +0.000 C 
BRANCH  12  13
ATOM     13 SE   UNL     1       7.644   7.171  17.667  0.00  0.00    +0.000 Se
BRANCH  13  15
ATOM     14  N   UNL     1       7.672   5.506  19.903  0.00  0.00    +0.000 NA
ATOM     15  C   UNL     1       7.878   5.526  18.636  0.00  0.00    +0.000 C 
ATOM     16  N   UNL     1       8.205   4.336  17.938  0.00  0.00    +0.000 N 
ATOM     17  H   UNL     1       7.758   4.635  20.449  0.00  0.00    +0.000 HD
ATOM     18  H   UNL     1       8.284   3.437  18.433  0.00  0.00    +0.000 HD
ATOM     19  H   UNL     1       8.344   4.359  16.917  0.00  0.00    +0.000 HD
ENDBRANCH  13  15
ENDBRANCH  12  13
ENDBRANCH   1  12
TORSDOF 4
ENDMDL
MODEL 5
REMARK VINA RESULT:      -6.1      0.884      1.272
REMARK  Name = 
REMARK  4 active torsions:
REMARK  status: ('A' for Active; 'I' for Inactive)
REMARK    1  A    between atoms: C_2  and  SE_4
REMARK    2  A    between atoms: SE_4  and  C_5
REMARK    3  A    between atoms: C_5  and  C_6
REMARK    4  A    between atoms: C_9  and  N_10
REMARK                            x       y       z     vdW  Elec       q    Type
REMARK                         _______ _______ _______ _____ _____    ______ ____
ROOT
ATOM      1  C   UNL     1       3.698   4.933  18.342  0.00  0.00    +0.000 A 
ATOM      2  C   UNL     1       3.609   6.141  17.639  0.00  0.00    +0.000 A 
ATOM      3  C   UNL     1       2.912   7.227  18.172  0.00  0.00    +0.000 A 
ATOM      4  C   UNL     1       2.275   7.133  19.429  0.00  0.00    +0.000 A 
ATOM      5  C   UNL     1       2.353   5.906  20.121  0.00  0.00    +0.000 A 
ATOM      6  C   UNL     1       3.052   4.820  19.582  0.00  0.00    +0.000 A 
ENDROOT
BRANCH   4   7
ATOM      7  N   UNL     1       1.578   8.276  19.998  0.00  0.00    +0.000 N 
ATOM      8  C   UNL     1       1.216   8.447  21.292  0.00  0.00    +0.000 A 
ATOM      9  C   UNL     1       0.560   9.649  21.447  0.00  0.00    +0.000 A 
ATOM     10  C   UNL     1       0.514  10.237  20.204  0.00  0.00    +0.000 A 
ATOM     11  C   UNL     1       1.146   9.374  19.334  0.00  0.00    +0.000 A 
ENDBRANCH   4   7
BRANCH   1  12
ATOM     12  C   UNL     1       4.497   3.788  17.772  0.00  0.00    +0.000 C 
BRANCH  12  13
ATOM     13 SE   UNL     1       5.218   4.363  16.044  0.00  0.00    +0.000 Se
BRANCH  13  15
ATOM     14  N   UNL     1       7.466   6.000  16.252  0.00  0.00    +0.000 NA
ATOM     15  C   UNL     1       6.914   4.947  16.738  0.00  0.00    +0.000 C 
ATOM     16  N   UNL     1       7.508   4.256  17.825  0.00  0.00    +0.000 N 
ATOM     17  H   UNL     1       8.359   6.359  16.622  0.00  0.00    +0.000 HD
ATOM     18  H   UNL     1       8.390   4.585  18.242  0.00  0.00    +0.000 HD
ATOM     19  H   UNL     1       7.044   3.427  18.222  0.00  0.00    +0.000 HD
ENDBRANCH  13  15
ENDBRANCH  12  13
ENDBRANCH   1  12
TORSDOF 4
ENDMDL
MODEL 6
REMARK VINA RESULT:      -6.0      4.325      6.960
REMARK  Name = 
REMARK  4 active torsions:
REMARK  status: ('A' for Active; 'I' for Inactive)
REMARK    1  A    between atoms: C_2  and  SE_4
REMARK    2  A    between atoms: SE_4  and  C_5
REMARK    3  A    between atoms: C_5  and  C_6
REMARK    4  A    between atoms: C_9  and  N_10
REMARK                            x       y       z     vdW  Elec       q    Type
REMARK                         _______ _______ _______ _____ _____    ______ ____
ROOT
ATOM      1  C   UNL     1       5.369   4.910  18.086  0.00  0.00    +0.000 A 
ATOM      2  C   UNL     1       6.695   4.581  17.780  0.00  0.00    +0.000 A 
ATOM      3  C   UNL     1       7.103   4.422  16.454  0.00  0.00    +0.000 A 
ATOM      4  C   UNL     1       6.188   4.585  15.390  0.00  0.00    +0.000 A 
ATOM      5  C   UNL     1       4.850   4.896  15.709  0.00  0.00    +0.000 A 
ATOM      6  C   UNL     1       4.446   5.053  17.040  0.00  0.00    +0.000 A 
ENDROOT
BRANCH   4   7
ATOM      7  N   UNL     1       6.622   4.453  14.008  0.00  0.00    +0.000 N 
ATOM      8  C   UNL     1       7.544   5.212  13.368  0.00  0.00    +0.000 A 
ATOM      9  C   UNL     1       7.678   4.796  12.061  0.00  0.00    +0.000 A 
ATOM     10  C   UNL     1       6.807   3.745  11.890  0.00  0.00    +0.000 A 
ATOM     11  C   UNL     1       6.172   3.555  13.099  0.00  0.00    +0.000 A 
ENDBRANCH   4   7
BRANCH   1  12
ATOM     12  C   UNL     1       4.961   5.125  19.522  0.00  0.00    +0.000 C 
BRANCH  12  13
ATOM     13 SE   UNL     1       3.385   4.015  19.869  0.00  0.00    +0.000 Se
BRANCH  13  15
ATOM     14  N   UNL     1       5.109   1.863  20.284  0.00  0.00    +0.000 NA
ATOM     15  C   UNL     1       4.245   2.342  19.464  0.00  0.00    +0.000 C 
ATOM     16  N   UNL     1       3.870   1.618  18.304  0.00  0.00    +0.000 N 
ATOM     17  H   UNL     1       5.566   0.954  20.114  0.00  0.00    +0.000 HD
ATOM     18  H   UNL     1       4.283   0.697  18.099  0.00  0.00    +0.000 HD
ATOM     19  H   UNL     1       3.158   2.001  17.666  0.00  0.00    +0.000 HD
ENDBRANCH  13  15
ENDBRANCH  12  13
ENDBRANCH   1  12
TORSDOF 4
ENDMDL
MODEL 7
REMARK VINA RESULT:      -6.0      0.710      1.458
REMARK  Name = 
REMARK  4 active torsions:
REMARK  status: ('A' for Active; 'I' for Inactive)
REMARK    1  A    between atoms: C_2  and  SE_4
REMARK    2  A    between atoms: SE_4  and  C_5
REMARK    3  A    between atoms: C_5  and  C_6
REMARK    4  A    between atoms: C_9  and  N_10
REMARK                            x       y       z     vdW  Elec       q    Type
REMARK                         _______ _______ _______ _____ _____    ______ ____
ROOT
ATOM      1  C   UNL     1       3.954   5.093  18.370  0.00  0.00    +0.000 A 
ATOM      2  C   UNL     1       3.863   6.315  17.692  0.00  0.00    +0.000 A 
ATOM      3  C   UNL     1       3.075   7.353  18.193  0.00  0.00    +0.000 A 
ATOM      4  C   UNL     1       2.348   7.196  19.394  0.00  0.00    +0.000 A 
ATOM      5  C   UNL     1       2.429   5.955  20.059  0.00  0.00    +0.000 A 
ATOM      6  C   UNL     1       3.219   4.917  19.552  0.00  0.00    +0.000 A 
ENDROOT
BRANCH   4   7
ATOM      7  N   UNL     1       1.555   8.290  19.932  0.00  0.00    +0.000 N 
ATOM      8  C   UNL     1       1.132   9.393  19.268  0.00  0.00    +0.000 A 
ATOM      9  C   UNL     1       0.418  10.213  20.115  0.00  0.00    +0.000 A 
ATOM     10  C   UNL     1       0.403   9.595  21.344  0.00  0.00    +0.000 A 
ATOM     11  C   UNL     1       1.107   8.417  21.204  0.00  0.00    +0.000 A 
ENDBRANCH   4   7
BRANCH   1  12
ATOM     12  C   UNL     1       4.848   4.002  17.837  0.00  0.00    +0.000 C 
BRANCH  12  13
ATOM     13 SE   UNL     1       5.120   4.331  15.926  0.00  0.00    +0.000 Se
BRANCH  13  15
ATOM     14  N   UNL     1       7.604   5.292  15.099  0.00  0.00    +0.000 NA
ATOM     15  C   UNL     1       7.002   4.705  16.069  0.00  0.00    +0.000 C 
ATOM     16  N   UNL     1       7.693   4.396  17.268  0.00  0.00    +0.000 N 
ATOM     17  H   UNL     1       8.604   5.536  15.155  0.00  0.00    +0.000 HD
ATOM     18  H   UNL     1       8.688   4.636  17.382  0.00  0.00    +0.000 HD
ATOM     19  H   UNL     1       7.194   3.946  18.050  0.00  0.00    +0.000 HD
ENDBRANCH  13  15
ENDBRANCH  12  13
ENDBRANCH   1  12
TORSDOF 4
ENDMDL
MODEL 8
REMARK VINA RESULT:      -6.0      4.138      4.872
REMARK  Name = 
REMARK  4 active torsions:
REMARK  status: ('A' for Active; 'I' for Inactive)
REMARK    1  A    between atoms: C_2  and  SE_4
REMARK    2  A    between atoms: SE_4  and  C_5
REMARK    3  A    between atoms: C_5  and  C_6
REMARK    4  A    between atoms: C_9  and  N_10
REMARK                            x       y       z     vdW  Elec       q    Type
REMARK                         _______ _______ _______ _____ _____    ______ ____
ROOT
ATOM      1  C   UNL     1       5.872   4.424  16.721  0.00  0.00    +0.000 A 
ATOM      2  C   UNL     1       6.171   4.558  18.083  0.00  0.00    +0.000 A 
ATOM      3  C   UNL     1       5.212   4.269  19.056  0.00  0.00    +0.000 A 
ATOM      4  C   UNL     1       3.917   3.838  18.692  0.00  0.00    +0.000 A 
ATOM      5  C   UNL     1       3.619   3.726  17.318  0.00  0.00    +0.000 A 
ATOM      6  C   UNL     1       4.583   4.019  16.346  0.00  0.00    +0.000 A 
ENDROOT
BRANCH   4   7
ATOM      7  N   UNL     1       2.931   3.505  19.707  0.00  0.00    +0.000 N 
ATOM      8  C   UNL     1       3.142   2.806  20.849  0.00  0.00    +0.000 A 
ATOM      9  C   UNL     1       1.964   2.678  21.553  0.00  0.00    +0.000 A 
ATOM     10  C   UNL     1       0.993   3.318  20.817  0.00  0.00    +0.000 A 
ATOM     11  C   UNL     1       1.613   3.817  19.691  0.00  0.00    +0.000 A 
ENDBRANCH   4   7
BRANCH   1  12
ATOM     12  C   UNL     1       6.936   4.695  15.688  0.00  0.00    +0.000 C 
BRANCH  12  13
ATOM     13 SE   UNL     1       6.294   4.006  13.971  0.00  0.00    +0.000 Se
BRANCH  13  15
ATOM     14  N   UNL     1       7.457   4.948  11.618  0.00  0.00    +0.000 NA
ATOM     15  C   UNL     1       7.557   4.983  12.897  0.00  0.00    +0.000 C 
ATOM     16  N   UNL     1       8.540   5.790  13.523  0.00  0.00    +0.000 N 
ATOM     17  H   UNL     1       8.096   5.485  11.012  0.00  0.00    +0.000 HD
ATOM     18  H   UNL     1       9.191   6.360  12.964  0.00  0.00    +0.000 HD
ATOM     19  H   UNL     1       8.595   5.830  14.551  0.00  0.00    +0.000 HD
ENDBRANCH  13  15
ENDBRANCH  12  13
ENDBRANCH   1  12
TORSDOF 4
ENDMDL
MODEL 9
REMARK VINA RESULT:      -6.0      0.329      1.545
REMARK  Name = 
REMARK  4 active torsions:
REMARK  status: ('A' for Active; 'I' for Inactive)
REMARK    1  A    between atoms: C_2  and  SE_4
REMARK    2  A    between atoms: SE_4  and  C_5
REMARK    3  A    between atoms: C_5  and  C_6
REMARK    4  A    between atoms: C_9  and  N_10
REMARK                            x       y       z     vdW  Elec       q    Type
REMARK                         _______ _______ _______ _____ _____    ______ ____
ROOT
ATOM      1  C   UNL     1       3.889   5.387  18.583  0.00  0.00    +0.000 A 
ATOM      2  C   UNL     1       3.106   5.531  19.736  0.00  0.00    +0.000 A 
ATOM      3  C   UNL     1       2.319   6.669  19.926  0.00  0.00    +0.000 A 
ATOM      4  C   UNL     1       2.295   7.703  18.964  0.00  0.00    +0.000 A 
ATOM      5  C   UNL     1       3.103   7.558  17.817  0.00  0.00    +0.000 A 
ATOM      6  C   UNL     1       3.891   6.417  17.631  0.00  0.00    +0.000 A 
ENDROOT
BRANCH   4   7
ATOM      7  N   UNL     1       1.449   8.871  19.148  0.00  0.00    +0.000 N 
ATOM      8  C   UNL     1       1.109   9.787  18.208  0.00  0.00    +0.000 A 
ATOM      9  C   UNL     1       0.304  10.759  18.761  0.00  0.00    +0.000 A 
ATOM     10  C   UNL     1       0.144  10.432  20.087  0.00  0.00    +0.000 A 
ATOM     11  C   UNL     1       0.855   9.270  20.298  0.00  0.00    +0.000 A 
ENDBRANCH   4   7
BRANCH   1  12
ATOM     12  C   UNL     1       4.694   4.129  18.374  0.00  0.00    +0.000 C 
BRANCH  12  13
ATOM     13 SE   UNL     1       5.192   4.044  16.482  0.00  0.00    +0.000 Se
BRANCH  13  15
ATOM     14  N   UNL     1       7.674   4.296  17.727  0.00  0.00    +0.000 NA
ATOM     15  C   UNL     1       6.979   4.713  16.732  0.00  0.00    +0.000 C 
ATOM     16  N   UNL     1       7.538   5.603  15.780  0.00  0.00    +0.000 N 
ATOM     17  H   UNL     1       8.646   4.609  17.874  0.00  0.00    +0.000 HD
ATOM     18  H   UNL     1       8.511   5.930  15.871  0.00  0.00    +0.000 HD
ATOM     19  H   UNL     1       6.979   5.911  14.972  0.00  0.00    +0.000 HD
ENDBRANCH  13  15
ENDBRANCH  12  13
ENDBRANCH   1  12
TORSDOF 4
ENDMDL
