MODEL 1
REMARK VINA RESULT:      -9.2      0.000      0.000
REMARK  Name = 
REMARK  10 active torsions:
REMARK  status: ('A' for Active; 'I' for Inactive)
REMARK    1  A    between atoms: C_1  and  N_2
REMARK    2  A    between atoms: C_5  and  C_6
REMARK    3  A    between atoms: C_11  and  O_12
REMARK    4  A    between atoms: O_12  and  C_13
REMARK    5  A    between atoms: C_15  and  N_16
REMARK    6  A    between atoms: C_17  and  C_19
REMARK    7  A    between atoms: C_23  and  C_24
REMARK    8  A    between atoms: C_24  and  C_25
REMARK    9  A    between atoms: C_24  and  C_26
REMARK   10  A    between atoms: C_30  and  C_31
REMARK                            x       y       z     vdW  Elec       q    Type
REMARK                         _______ _______ _______ _____ _____    ______ ____
ROOT
ATOM      1  C   UNL     1      -0.436  11.110  18.956  0.00  0.00    +0.000 A 
ATOM      2  C   UNL     1       0.100   9.831  18.738  0.00  0.00    +0.000 A 
ATOM      3  C   UNL     1       1.392   9.661  18.247  0.00  0.00    +0.000 A 
ATOM      4  C   UNL     1       2.190  10.795  18.073  0.00  0.00    +0.000 A 
ATOM      5  C   UNL     1       1.711  12.062  18.430  0.00  0.00    +0.000 A 
ATOM      6  C   UNL     1       0.393  12.235  18.885  0.00  0.00    +0.000 A 
ATOM      7  C   UNL     1      -0.073  13.593  19.322  0.00  0.00    +0.000 C 
ENDROOT
BRANCH   3   8
ATOM      8  N   UNL     1       1.922   8.401  17.895  0.00  0.00    +0.000 N 
ATOM      9  C   UNL     1       2.312   7.403  18.774  0.00  0.00    +0.000 C 
ATOM     10  O   UNL     1       2.313   7.448  20.001  0.00  0.00    +0.000 OA
ATOM     11  H   UNL     1       2.096   8.244  16.910  0.00  0.00    +0.000 HD
BRANCH   9  12
ATOM     12  C   UNL     1       2.874   6.186  18.143  0.00  0.00    +0.000 A 
ATOM     13  C   UNL     1       2.174   4.979  18.092  0.00  0.00    +0.000 A 
ATOM     14  C   UNL     1       2.747   3.884  17.446  0.00  0.00    +0.000 A 
ATOM     15  C   UNL     1       4.003   4.000  16.840  0.00  0.00    +0.000 A 
ATOM     16  C   UNL     1       4.721   5.206  16.889  0.00  0.00    +0.000 A 
ATOM     17  C   UNL     1       4.151   6.288  17.572  0.00  0.00    +0.000 A 
BRANCH  16  18
ATOM     18  C   UNL     1       6.018   5.348  16.112  0.00  0.00    +0.000 C 
ATOM     19  C   UNL     1       7.156   4.729  16.932  0.00  0.00    +0.000 C 
ATOM     20  C   UNL     1       5.990   4.739  14.707  0.00  0.00    +0.000 C 
ENDBRANCH  16  18
ENDBRANCH   9  12
ENDBRANCH   3   8
BRANCH   1  21
ATOM     21  O   UNL     1      -1.796  11.263  19.210  0.00  0.00    +0.000 OA
BRANCH  21  27
ATOM     22  C   UNL     1      -3.981  11.644  18.194  0.00  0.00    +0.000 A 
ATOM     23  C   UNL     1      -4.734  11.486  17.009  0.00  0.00    +0.000 A 
ATOM     24  C   UNL     1      -4.148  11.078  15.813  0.00  0.00    +0.000 A 
ATOM     25  C   UNL     1      -2.791  10.862  15.800  0.00  0.00    +0.000 A 
ATOM     26  N   UNL     1      -2.015  11.018  16.885  0.00  0.00    +0.000 NA
ATOM     27  C   UNL     1      -2.615  11.328  18.072  0.00  0.00    +0.000 A 
BRANCH  22  32
ATOM     28  C   UNL     1      -3.499  15.559  21.727  0.00  0.00    +0.000 C 
ATOM     29  N   UNL     1      -4.257  14.462  22.289  0.00  0.00    +0.000 N 
ATOM     30  C   UNL     1      -4.778  13.523  21.407  0.00  0.00    +0.000 A 
ATOM     31  C   UNL     1      -4.070  13.043  20.305  0.00  0.00    +0.000 A 
ATOM     32  C   UNL     1      -4.659  12.129  19.424  0.00  0.00    +0.000 A 
ATOM     33  C   UNL     1      -5.942  11.673  19.766  0.00  0.00    +0.000 A 
ATOM     34  C   UNL     1      -6.555  12.151  20.911  0.00  0.00    +0.000 A 
ATOM     35  N   UNL     1      -6.008  13.076  21.719  0.00  0.00    +0.000 NA
ATOM     36  H   UNL     1      -5.034  14.740  22.885  0.00  0.00    +0.000 HD
ENDBRANCH  22  32
ENDBRANCH  21  27
ENDBRANCH   1  21
TORSDOF 6
ENDMDL
MODEL 2
REMARK VINA RESULT:      -9.2      1.859      2.847
REMARK  Name = 
REMARK  10 active torsions:
REMARK  status: ('A' for Active; 'I' for Inactive)
REMARK    1  A    between atoms: C_1  and  N_2
REMARK    2  A    between atoms: C_5  and  C_6
REMARK    3  A    between atoms: C_11  and  O_12
REMARK    4  A    between atoms: O_12  and  C_13
REMARK    5  A    between atoms: C_15  and  N_16
REMARK    6  A    between atoms: C_17  and  C_19
REMARK    7  A    between atoms: C_23  and  C_24
REMARK    8  A    between atoms: C_24  and  C_25
REMARK    9  A    between atoms: C_24  and  C_26
REMARK   10  A    between atoms: C_30  and  C_31
REMARK                            x       y       z     vdW  Elec       q    Type
REMARK                         _______ _______ _______ _____ _____    ______ ____
ROOT
ATOM      1  C   UNL     1      -0.178  10.792  20.709  0.00  0.00    +0.000 A 
ATOM      2  C   UNL     1       0.436   9.782  19.951  0.00  0.00    +0.000 A 
ATOM      3  C   UNL     1       1.123   8.735  20.560  0.00  0.00    +0.000 A 
ATOM      4  C   UNL     1       1.099   8.649  21.955  0.00  0.00    +0.000 A 
ATOM      5  C   UNL     1       0.362   9.570  22.710  0.00  0.00    +0.000 A 
ATOM      6  C   UNL     1      -0.294  10.649  22.096  0.00  0.00    +0.000 A 
ATOM      7  C   UNL     1      -1.129  11.583  22.922  0.00  0.00    +0.000 C 
ENDROOT
BRANCH   3   8
ATOM      8  N   UNL     1       1.859   7.773  19.836  0.00  0.00    +0.000 N 
ATOM      9  C   UNL     1       2.266   7.878  18.515  0.00  0.00    +0.000 C 
ATOM     10  O   UNL     1       2.025   8.791  17.731  0.00  0.00    +0.000 OA
ATOM     11  H   UNL     1       2.045   6.897  20.310  0.00  0.00    +0.000 HD
BRANCH   9  12
ATOM     12  C   UNL     1       2.996   6.704  17.981  0.00  0.00    +0.000 A 
ATOM     13  C   UNL     1       4.309   6.791  17.511  0.00  0.00    +0.000 A 
ATOM     14  C   UNL     1       4.949   5.637  17.060  0.00  0.00    +0.000 A 
ATOM     15  C   UNL     1       4.289   4.403  17.096  0.00  0.00    +0.000 A 
ATOM     16  C   UNL     1       2.968   4.303  17.560  0.00  0.00    +0.000 A 
ATOM     17  C   UNL     1       2.323   5.474  17.976  0.00  0.00    +0.000 A 
BRANCH  16  18
ATOM     18  C   UNL     1       2.320   2.938  17.714  0.00  0.00    +0.000 C 
ATOM     19  C   UNL     1       3.383   1.936  18.178  0.00  0.00    +0.000 C 
ATOM     20  C   UNL     1       1.117   2.907  18.663  0.00  0.00    +0.000 C 
ENDBRANCH  16  18
ENDBRANCH   9  12
ENDBRANCH   3   8
BRANCH   1  21
ATOM     21  O   UNL     1      -0.642  11.948  20.087  0.00  0.00    +0.000 OA
BRANCH  21  27
ATOM     22  C   UNL     1      -2.991  12.184  19.471  0.00  0.00    +0.000 A 
ATOM     23  C   UNL     1      -3.981  11.761  18.556  0.00  0.00    +0.000 A 
ATOM     24  C   UNL     1      -3.667  11.006  17.428  0.00  0.00    +0.000 A 
ATOM     25  C   UNL     1      -2.345  10.705  17.200  0.00  0.00    +0.000 A 
ATOM     26  N   UNL     1      -1.355  11.097  18.017  0.00  0.00    +0.000 NA
ATOM     27  C   UNL     1      -1.685  11.757  19.167  0.00  0.00    +0.000 A 
BRANCH  22  32
ATOM     28  C   UNL     1      -2.437  17.182  21.128  0.00  0.00    +0.000 C 
ATOM     29  N   UNL     1      -2.736  16.310  22.244  0.00  0.00    +0.000 N 
ATOM     30  C   UNL     1      -3.256  15.055  21.956  0.00  0.00    +0.000 A 
ATOM     31  C   UNL     1      -2.797  14.268  20.900  0.00  0.00    +0.000 A 
ATOM     32  C   UNL     1      -3.387  13.027  20.628  0.00  0.00    +0.000 A 
ATOM     33  C   UNL     1      -4.383  12.603  21.521  0.00  0.00    +0.000 A 
ATOM     34  C   UNL     1      -4.740  13.415  22.584  0.00  0.00    +0.000 A 
ATOM     35  N   UNL     1      -4.213  14.632  22.801  0.00  0.00    +0.000 NA
ATOM     36  H   UNL     1      -3.355  16.711  22.945  0.00  0.00    +0.000 HD
ENDBRANCH  22  32
ENDBRANCH  21  27
ENDBRANCH   1  21
TORSDOF 6
ENDMDL
MODEL 3
REMARK VINA RESULT:      -9.1      2.349      4.171
REMARK  Name = 
REMARK  10 active torsions:
REMARK  status: ('A' for Active; 'I' for Inactive)
REMARK    1  A    between atoms: C_1  and  N_2
REMARK    2  A    between atoms: C_5  and  C_6
REMARK    3  A    between atoms: C_11  and  O_12
REMARK    4  A    between atoms: O_12  and  C_13
REMARK    5  A    between atoms: C_15  and  N_16
REMARK    6  A    between atoms: C_17  and  C_19
REMARK    7  A    between atoms: C_23  and  C_24
REMARK    8  A    between atoms: C_24  and  C_25
REMARK    9  A    between atoms: C_24  and  C_26
REMARK   10  A    between atoms: C_30  and  C_31
REMARK                            x       y       z     vdW  Elec       q    Type
REMARK                         _______ _______ _______ _____ _____    ______ ____
ROOT
ATOM      1  C   UNL     1      -0.657  10.153  21.087  0.00  0.00    +0.000 A 
ATOM      2  C   UNL     1      -0.013   9.206  20.275  0.00  0.00    +0.000 A 
ATOM      3  C   UNL     1       1.064   8.460  20.747  0.00  0.00    +0.000 A 
ATOM      4  C   UNL     1       1.428   8.596  22.090  0.00  0.00    +0.000 A 
ATOM      5  C   UNL     1       0.692   9.428  22.943  0.00  0.00    +0.000 A 
ATOM      6  C   UNL     1      -0.366  10.212  22.455  0.00  0.00    +0.000 A 
ATOM      7  C   UNL     1      -1.177  11.045  23.403  0.00  0.00    +0.000 C 
ENDROOT
BRANCH   3   8
ATOM      8  N   UNL     1       1.818   7.593  19.927  0.00  0.00    +0.000 N 
ATOM      9  C   UNL     1       2.368   7.905  18.694  0.00  0.00    +0.000 C 
ATOM     10  O   UNL     1       2.263   8.961  18.076  0.00  0.00    +0.000 OA
ATOM     11  H   UNL     1       1.902   6.635  20.243  0.00  0.00    +0.000 HD
BRANCH   9  12
ATOM     12  C   UNL     1       3.083   6.797  18.019  0.00  0.00    +0.000 A 
ATOM     13  C   UNL     1       4.278   6.992  17.323  0.00  0.00    +0.000 A 
ATOM     14  C   UNL     1       4.919   5.896  16.746  0.00  0.00    +0.000 A 
ATOM     15  C   UNL     1       4.379   4.611  16.881  0.00  0.00    +0.000 A 
ATOM     16  C   UNL     1       3.176   4.401  17.574  0.00  0.00    +0.000 A 
ATOM     17  C   UNL     1       2.523   5.515  18.117  0.00  0.00    +0.000 A 
BRANCH  16  18
ATOM     18  C   UNL     1       2.681   2.988  17.821  0.00  0.00    +0.000 C 
ATOM     19  C   UNL     1       3.677   2.268  18.738  0.00  0.00    +0.000 C 
ATOM     20  C   UNL     1       1.268   2.900  18.408  0.00  0.00    +0.000 C 
ENDBRANCH  16  18
ENDBRANCH   9  12
ENDBRANCH   3   8
BRANCH   1  21
ATOM     21  O   UNL     1      -1.561  11.053  20.529  0.00  0.00    +0.000 OA
BRANCH  21  27
ATOM     22  C   UNL     1      -1.248  12.372  18.501  0.00  0.00    +0.000 A 
ATOM     23  C   UNL     1      -0.460  13.381  17.904  0.00  0.00    +0.000 A 
ATOM     24  C   UNL     1       0.479  14.110  18.631  0.00  0.00    +0.000 A 
ATOM     25  C   UNL     1       0.600  13.845  19.975  0.00  0.00    +0.000 A 
ATOM     26  N   UNL     1      -0.136  12.917  20.606  0.00  0.00    +0.000 NA
ATOM     27  C   UNL     1      -0.985  12.146  19.865  0.00  0.00    +0.000 A 
BRANCH  22  32
ATOM     28  C   UNL     1      -6.337  12.906  17.139  0.00  0.00    +0.000 C 
ATOM     29  N   UNL     1      -5.911  11.533  16.971  0.00  0.00    +0.000 N 
ATOM     30  C   UNL     1      -4.544  11.285  16.938  0.00  0.00    +0.000 A 
ATOM     31  C   UNL     1      -3.637  11.921  17.784  0.00  0.00    +0.000 A 
ATOM     32  C   UNL     1      -2.264  11.665  17.679  0.00  0.00    +0.000 A 
ATOM     33  C   UNL     1      -1.884  10.684  16.750  0.00  0.00    +0.000 A 
ATOM     34  C   UNL     1      -2.852  10.051  15.989  0.00  0.00    +0.000 A 
ATOM     35  N   UNL     1      -4.161  10.348  16.052  0.00  0.00    +0.000 NA
ATOM     36  H   UNL     1      -6.296  11.062  16.155  0.00  0.00    +0.000 HD
ENDBRANCH  22  32
ENDBRANCH  21  27
ENDBRANCH   1  21
TORSDOF 6
ENDMDL
MODEL 4
REMARK VINA RESULT:      -9.1      2.273      3.911
REMARK  Name = 
REMARK  10 active torsions:
REMARK  status: ('A' for Active; 'I' for Inactive)
REMARK    1  A    between atoms: C_1  and  N_2
REMARK    2  A    between atoms: C_5  and  C_6
REMARK    3  A    between atoms: C_11  and  O_12
REMARK    4  A    between atoms: O_12  and  C_13
REMARK    5  A    between atoms: C_15  and  N_16
REMARK    6  A    between atoms: C_17  and  C_19
REMARK    7  A    between atoms: C_23  and  C_24
REMARK    8  A    between atoms: C_24  and  C_25
REMARK    9  A    between atoms: C_24  and  C_26
REMARK   10  A    between atoms: C_30  and  C_31
REMARK                            x       y       z     vdW  Elec       q    Type
REMARK                         _______ _______ _______ _____ _____    ______ ____
ROOT
ATOM      1  C   UNL     1       0.547  10.970  21.589  0.00  0.00    +0.000 A 
ATOM      2  C   UNL     1       1.227  10.112  20.710  0.00  0.00    +0.000 A 
ATOM      3  C   UNL     1       1.039   8.733  20.753  0.00  0.00    +0.000 A 
ATOM      4  C   UNL     1       0.073   8.222  21.624  0.00  0.00    +0.000 A 
ATOM      5  C   UNL     1      -0.714   9.085  22.396  0.00  0.00    +0.000 A 
ATOM      6  C   UNL     1      -0.493  10.473  22.382  0.00  0.00    +0.000 A 
ATOM      7  C   UNL     1      -1.393  11.379  23.169  0.00  0.00    +0.000 C 
ENDROOT
BRANCH   3   8
ATOM      8  N   UNL     1       1.795   7.829  19.976  0.00  0.00    +0.000 N 
ATOM      9  C   UNL     1       2.069   7.943  18.622  0.00  0.00    +0.000 C 
ATOM     10  O   UNL     1       1.671   8.813  17.852  0.00  0.00    +0.000 OA
ATOM     11  H   UNL     1       2.106   6.985  20.442  0.00  0.00    +0.000 HD
BRANCH   9  12
ATOM     12  C   UNL     1       2.856   6.832  18.038  0.00  0.00    +0.000 A 
ATOM     13  C   UNL     1       4.153   7.011  17.550  0.00  0.00    +0.000 A 
ATOM     14  C   UNL     1       4.850   5.911  17.051  0.00  0.00    +0.000 A 
ATOM     15  C   UNL     1       4.264   4.641  17.056  0.00  0.00    +0.000 A 
ATOM     16  C   UNL     1       2.959   4.448  17.538  0.00  0.00    +0.000 A 
ATOM     17  C   UNL     1       2.255   5.566  18.003  0.00  0.00    +0.000 A 
BRANCH  16  18
ATOM     18  C   UNL     1       2.395   3.044  17.657  0.00  0.00    +0.000 C 
ATOM     19  C   UNL     1       3.532   2.082  18.018  0.00  0.00    +0.000 C 
ATOM     20  C   UNL     1       1.247   2.901  18.663  0.00  0.00    +0.000 C 
ENDBRANCH  16  18
ENDBRANCH   9  12
ENDBRANCH   3   8
BRANCH   1  21
ATOM     21  O   UNL     1       0.926  12.305  21.696  0.00  0.00    +0.000 OA
BRANCH  21  27
ATOM     22  C   UNL     1       0.172  13.282  19.592  0.00  0.00    +0.000 A 
ATOM     23  C   UNL     1       0.600  13.742  18.327  0.00  0.00    +0.000 A 
ATOM     24  C   UNL     1       1.950  13.878  18.010  0.00  0.00    +0.000 A 
ATOM     25  C   UNL     1       2.874  13.583  18.985  0.00  0.00    +0.000 A 
ATOM     26  N   UNL     1       2.532  13.165  20.214  0.00  0.00    +0.000 NA
ATOM     27  C   UNL     1       1.210  12.947  20.481  0.00  0.00    +0.000 A 
BRANCH  22  32
ATOM     28  C   UNL     1      -3.655  16.341  21.600  0.00  0.00    +0.000 C 
ATOM     29  N   UNL     1      -4.028  14.946  21.683  0.00  0.00    +0.000 N 
ATOM     30  C   UNL     1      -3.322  14.044  20.898  0.00  0.00    +0.000 A 
ATOM     31  C   UNL     1      -1.940  14.115  20.718  0.00  0.00    +0.000 A 
ATOM     32  C   UNL     1      -1.284  13.205  19.880  0.00  0.00    +0.000 A 
ATOM     33  C   UNL     1      -2.077  12.191  19.320  0.00  0.00    +0.000 A 
ATOM     34  C   UNL     1      -3.432  12.151  19.596  0.00  0.00    +0.000 A 
ATOM     35  N   UNL     1      -4.066  13.066  20.352  0.00  0.00    +0.000 NA
ATOM     36  H   UNL     1      -5.012  14.755  21.504  0.00  0.00    +0.000 HD
ENDBRANCH  22  32
ENDBRANCH  21  27
ENDBRANCH   1  21
TORSDOF 6
ENDMDL
MODEL 5
REMARK VINA RESULT:      -9.1      2.640     10.709
REMARK  Name = 
REMARK  10 active torsions:
REMARK  status: ('A' for Active; 'I' for Inactive)
REMARK    1  A    between atoms: C_1  and  N_2
REMARK    2  A    between atoms: C_5  and  C_6
REMARK    3  A    between atoms: C_11  and  O_12
REMARK    4  A    between atoms: O_12  and  C_13
REMARK    5  A    between atoms: C_15  and  N_16
REMARK    6  A    between atoms: C_17  and  C_19
REMARK    7  A    between atoms: C_23  and  C_24
REMARK    8  A    between atoms: C_24  and  C_25
REMARK    9  A    between atoms: C_24  and  C_26
REMARK   10  A    between atoms: C_30  and  C_31
REMARK                            x       y       z     vdW  Elec       q    Type
REMARK                         _______ _______ _______ _____ _____    ______ ____
ROOT
ATOM      1  C   UNL     1       2.542   7.510  19.251  0.00  0.00    +0.000 A 
ATOM      2  C   UNL     1       1.460   8.090  19.931  0.00  0.00    +0.000 A 
ATOM      3  C   UNL     1       0.864   9.264  19.478  0.00  0.00    +0.000 A 
ATOM      4  C   UNL     1       1.298   9.801  18.262  0.00  0.00    +0.000 A 
ATOM      5  C   UNL     1       2.275   9.143  17.504  0.00  0.00    +0.000 A 
ATOM      6  C   UNL     1       2.904   7.983  17.985  0.00  0.00    +0.000 A 
ATOM      7  C   UNL     1       3.901   7.264  17.124  0.00  0.00    +0.000 C 
ENDROOT
BRANCH   3   8
ATOM      8  N   UNL     1      -0.139   9.946  20.199  0.00  0.00    +0.000 N 
ATOM      9  C   UNL     1       0.047  11.052  21.013  0.00  0.00    +0.000 C 
ATOM     10  O   UNL     1       1.108  11.605  21.289  0.00  0.00    +0.000 OA
ATOM     11  H   UNL     1      -1.068   9.543  20.169  0.00  0.00    +0.000 HD
BRANCH   9  12
ATOM     12  C   UNL     1      -1.173  11.555  21.689  0.00  0.00    +0.000 A 
ATOM     13  C   UNL     1      -1.267  11.659  23.078  0.00  0.00    +0.000 A 
ATOM     14  C   UNL     1      -2.430  12.179  23.645  0.00  0.00    +0.000 A 
ATOM     15  C   UNL     1      -3.483  12.609  22.829  0.00  0.00    +0.000 A 
ATOM     16  C   UNL     1      -3.403  12.505  21.431  0.00  0.00    +0.000 A 
ATOM     17  C   UNL     1      -2.245  11.947  20.875  0.00  0.00    +0.000 A 
BRANCH  16  18
ATOM     18  C   UNL     1      -4.498  13.099  20.563  0.00  0.00    +0.000 C 
ATOM     19  C   UNL     1      -4.541  12.339  19.232  0.00  0.00    +0.000 C 
ATOM     20  C   UNL     1      -5.888  13.110  21.207  0.00  0.00    +0.000 C 
ENDBRANCH  16  18
ENDBRANCH   9  12
ENDBRANCH   3   8
BRANCH   1  21
ATOM     21  O   UNL     1       3.275   6.487  19.847  0.00  0.00    +0.000 OA
BRANCH  21  27
ATOM     22  C   UNL     1       3.349   4.234  18.915  0.00  0.00    +0.000 A 
ATOM     23  C   UNL     1       2.597   3.054  18.715  0.00  0.00    +0.000 A 
ATOM     24  C   UNL     1       1.348   2.867  19.303  0.00  0.00    +0.000 A 
ATOM     25  C   UNL     1       0.869   3.859  20.127  0.00  0.00    +0.000 A 
ATOM     26  N   UNL     1       1.544   4.992  20.377  0.00  0.00    +0.000 NA
ATOM     27  C   UNL     1       2.723   5.203  19.721  0.00  0.00    +0.000 A 
BRANCH  22  32
ATOM     28  C   UNL     1       5.530   4.193  14.090  0.00  0.00    +0.000 C 
ATOM     29  N   UNL     1       6.519   3.868  15.095  0.00  0.00    +0.000 N 
ATOM     30  C   UNL     1       6.219   4.176  16.415  0.00  0.00    +0.000 A 
ATOM     31  C   UNL     1       4.955   3.980  16.971  0.00  0.00    +0.000 A 
ATOM     32  C   UNL     1       4.695   4.348  18.297  0.00  0.00    +0.000 A 
ATOM     33  C   UNL     1       5.787   4.831  19.034  0.00  0.00    +0.000 A 
ATOM     34  C   UNL     1       7.028   4.938  18.428  0.00  0.00    +0.000 A 
ATOM     35  N   UNL     1       7.254   4.641  17.137  0.00  0.00    +0.000 NA
ATOM     36  H   UNL     1       7.445   4.256  14.925  0.00  0.00    +0.000 HD
ENDBRANCH  22  32
ENDBRANCH  21  27
ENDBRANCH   1  21
TORSDOF 6
ENDMDL
MODEL 6
REMARK VINA RESULT:      -9.0      3.450     10.864
REMARK  Name = 
REMARK  10 active torsions:
REMARK  status: ('A' for Active; 'I' for Inactive)
REMARK    1  A    between atoms: C_1  and  N_2
REMARK    2  A    between atoms: C_5  and  C_6
REMARK    3  A    between atoms: C_11  and  O_12
REMARK    4  A    between atoms: O_12  and  C_13
REMARK    5  A    between atoms: C_15  and  N_16
REMARK    6  A    between atoms: C_17  and  C_19
REMARK    7  A    between atoms: C_23  and  C_24
REMARK    8  A    between atoms: C_24  and  C_25
REMARK    9  A    between atoms: C_24  and  C_26
REMARK   10  A    between atoms: C_30  and  C_31
REMARK                            x       y       z     vdW  Elec       q    Type
REMARK                         _______ _______ _______ _____ _____    ______ ____
ROOT
ATOM      1  C   UNL     1       2.365   7.699  19.452  0.00  0.00    +0.000 A 
ATOM      2  C   UNL     1       1.445   8.374  20.268  0.00  0.00    +0.000 A 
ATOM      3  C   UNL     1       0.813   9.539  19.839  0.00  0.00    +0.000 A 
ATOM      4  C   UNL     1       1.034   9.968  18.527  0.00  0.00    +0.000 A 
ATOM      5  C   UNL     1       1.836   9.214  17.659  0.00  0.00    +0.000 A 
ATOM      6  C   UNL     1       2.505   8.064  18.108  0.00  0.00    +0.000 A 
ATOM      7  C   UNL     1       3.304   7.241  17.141  0.00  0.00    +0.000 C 
ENDROOT
BRANCH   3   8
ATOM      8  N   UNL     1      -0.019  10.315  20.673  0.00  0.00    +0.000 N 
ATOM      9  C   UNL     1       0.340  11.479  21.333  0.00  0.00    +0.000 C 
ATOM     10  O   UNL     1       1.445  12.015  21.351  0.00  0.00    +0.000 OA
ATOM     11  H   UNL     1      -0.944   9.944  20.857  0.00  0.00    +0.000 HD
BRANCH   9  12
ATOM     12  C   UNL     1      -0.716  12.080  22.180  0.00  0.00    +0.000 A 
ATOM     13  C   UNL     1      -1.793  11.339  22.671  0.00  0.00    +0.000 A 
ATOM     14  C   UNL     1      -2.729  11.960  23.497  0.00  0.00    +0.000 A 
ATOM     15  C   UNL     1      -2.580  13.308  23.845  0.00  0.00    +0.000 A 
ATOM     16  C   UNL     1      -1.505  14.066  23.355  0.00  0.00    +0.000 A 
ATOM     17  C   UNL     1      -0.591  13.441  22.497  0.00  0.00    +0.000 A 
BRANCH  16  18
ATOM     18  C   UNL     1      -1.289  15.485  23.851  0.00  0.00    +0.000 C 
ATOM     19  C   UNL     1      -2.427  16.370  23.331  0.00  0.00    +0.000 C 
ATOM     20  C   UNL     1      -1.174  15.618  25.374  0.00  0.00    +0.000 C 
ENDBRANCH  16  18
ENDBRANCH   9  12
ENDBRANCH   3   8
BRANCH   1  21
ATOM     21  O   UNL     1       3.161   6.688  19.985  0.00  0.00    +0.000 OA
BRANCH  21  27
ATOM     22  C   UNL     1       3.307   4.421  19.095  0.00  0.00    +0.000 A 
ATOM     23  C   UNL     1       2.586   3.222  18.898  0.00  0.00    +0.000 A 
ATOM     24  C   UNL     1       1.327   3.018  19.459  0.00  0.00    +0.000 A 
ATOM     25  C   UNL     1       0.806   4.013  20.252  0.00  0.00    +0.000 A 
ATOM     26  N   UNL     1       1.450   5.165  20.499  0.00  0.00    +0.000 NA
ATOM     27  C   UNL     1       2.641   5.390  19.869  0.00  0.00    +0.000 A 
BRANCH  22  32
ATOM     28  C   UNL     1       5.617   4.265  14.333  0.00  0.00    +0.000 C 
ATOM     29  N   UNL     1       6.589   4.010  15.375  0.00  0.00    +0.000 N 
ATOM     30  C   UNL     1       6.244   4.359  16.674  0.00  0.00    +0.000 A 
ATOM     31  C   UNL     1       4.971   4.144  17.205  0.00  0.00    +0.000 A 
ATOM     32  C   UNL     1       4.665   4.555  18.508  0.00  0.00    +0.000 A 
ATOM     33  C   UNL     1       5.722   5.099  19.253  0.00  0.00    +0.000 A 
ATOM     34  C   UNL     1       6.974   5.222  18.676  0.00  0.00    +0.000 A 
ATOM     35  N   UNL     1       7.244   4.884  17.404  0.00  0.00    +0.000 NA
ATOM     36  H   UNL     1       7.506   4.421  15.214  0.00  0.00    +0.000 HD
ENDBRANCH  22  32
ENDBRANCH  21  27
ENDBRANCH   1  21
TORSDOF 6
ENDMDL
MODEL 7
REMARK VINA RESULT:      -9.0      2.013      3.146
REMARK  Name = 
REMARK  10 active torsions:
REMARK  status: ('A' for Active; 'I' for Inactive)
REMARK    1  A    between atoms: C_1  and  N_2
REMARK    2  A    between atoms: C_5  and  C_6
REMARK    3  A    between atoms: C_11  and  O_12
REMARK    4  A    between atoms: O_12  and  C_13
REMARK    5  A    between atoms: C_15  and  N_16
REMARK    6  A    between atoms: C_17  and  C_19
REMARK    7  A    between atoms: C_23  and  C_24
REMARK    8  A    between atoms: C_24  and  C_25
REMARK    9  A    between atoms: C_24  and  C_26
REMARK   10  A    between atoms: C_30  and  C_31
REMARK                            x       y       z     vdW  Elec       q    Type
REMARK                         _______ _______ _______ _____ _____    ______ ____
ROOT
ATOM      1  C   UNL     1      -0.281  10.823  20.864  0.00  0.00    +0.000 A 
ATOM      2  C   UNL     1       0.345   9.809  20.121  0.00  0.00    +0.000 A 
ATOM      3  C   UNL     1       1.039   8.776  20.745  0.00  0.00    +0.000 A 
ATOM      4  C   UNL     1       1.012   8.707  22.141  0.00  0.00    +0.000 A 
ATOM      5  C   UNL     1       0.264   9.631  22.882  0.00  0.00    +0.000 A 
ATOM      6  C   UNL     1      -0.399  10.697  22.252  0.00  0.00    +0.000 A 
ATOM      7  C   UNL     1      -1.245  11.633  23.064  0.00  0.00    +0.000 C 
ENDROOT
BRANCH   3   8
ATOM      8  N   UNL     1       1.786   7.812  20.035  0.00  0.00    +0.000 N 
ATOM      9  C   UNL     1       2.187   7.899  18.712  0.00  0.00    +0.000 C 
ATOM     10  O   UNL     1       1.931   8.795  17.912  0.00  0.00    +0.000 OA
ATOM     11  H   UNL     1       1.985   6.947  20.523  0.00  0.00    +0.000 HD
BRANCH   9  12
ATOM     12  C   UNL     1       2.932   6.726  18.195  0.00  0.00    +0.000 A 
ATOM     13  C   UNL     1       4.103   6.856  17.446  0.00  0.00    +0.000 A 
ATOM     14  C   UNL     1       4.775   5.707  17.026  0.00  0.00    +0.000 A 
ATOM     15  C   UNL     1       4.289   4.440  17.370  0.00  0.00    +0.000 A 
ATOM     16  C   UNL     1       3.110   4.296  18.118  0.00  0.00    +0.000 A 
ATOM     17  C   UNL     1       2.425   5.456  18.502  0.00  0.00    +0.000 A 
BRANCH  16  18
ATOM     18  C   UNL     1       2.676   2.920  18.591  0.00  0.00    +0.000 C 
ATOM     19  C   UNL     1       3.467   1.858  17.819  0.00  0.00    +0.000 C 
ATOM     20  C   UNL     1       2.820   2.689  20.099  0.00  0.00    +0.000 C 
ENDBRANCH  16  18
ENDBRANCH   9  12
ENDBRANCH   3   8
BRANCH   1  21
ATOM     21  O   UNL     1      -0.753  11.966  20.226  0.00  0.00    +0.000 OA
BRANCH  21  27
ATOM     22  C   UNL     1      -3.122  12.312  19.755  0.00  0.00    +0.000 A 
ATOM     23  C   UNL     1      -4.201  11.886  18.949  0.00  0.00    +0.000 A 
ATOM     24  C   UNL     1      -4.020  11.023  17.871  0.00  0.00    +0.000 A 
ATOM     25  C   UNL     1      -2.740  10.615  17.580  0.00  0.00    +0.000 A 
ATOM     26  N   UNL     1      -1.669  11.003  18.290  0.00  0.00    +0.000 NA
ATOM     27  C   UNL     1      -1.871  11.774  19.400  0.00  0.00    +0.000 A 
BRANCH  22  32
ATOM     28  C   UNL     1      -4.890  12.255  24.746  0.00  0.00    +0.000 C 
ATOM     29  N   UNL     1      -5.030  13.577  24.175  0.00  0.00    +0.000 N 
ATOM     30  C   UNL     1      -4.306  13.861  23.025  0.00  0.00    +0.000 A 
ATOM     31  C   UNL     1      -4.156  12.950  21.979  0.00  0.00    +0.000 A 
ATOM     32  C   UNL     1      -3.378  13.271  20.860  0.00  0.00    +0.000 A 
ATOM     33  C   UNL     1      -2.849  14.571  20.824  0.00  0.00    +0.000 A 
ATOM     34  C   UNL     1      -3.094  15.440  21.873  0.00  0.00    +0.000 A 
ATOM     35  N   UNL     1      -3.789  15.101  22.973  0.00  0.00    +0.000 NA
ATOM     36  H   UNL     1      -4.837  14.343  24.817  0.00  0.00    +0.000 HD
ENDBRANCH  22  32
ENDBRANCH  21  27
ENDBRANCH   1  21
TORSDOF 6
ENDMDL
MODEL 8
REMARK VINA RESULT:      -9.0      0.975      1.978
REMARK  Name = 
REMARK  10 active torsions:
REMARK  status: ('A' for Active; 'I' for Inactive)
REMARK    1  A    between atoms: C_1  and  N_2
REMARK    2  A    between atoms: C_5  and  C_6
REMARK    3  A    between atoms: C_11  and  O_12
REMARK    4  A    between atoms: O_12  and  C_13
REMARK    5  A    between atoms: C_15  and  N_16
REMARK    6  A    between atoms: C_17  and  C_19
REMARK    7  A    between atoms: C_23  and  C_24
REMARK    8  A    between atoms: C_24  and  C_25
REMARK    9  A    between atoms: C_24  and  C_26
REMARK   10  A    between atoms: C_30  and  C_31
REMARK                            x       y       z     vdW  Elec       q    Type
REMARK                         _______ _______ _______ _____ _____    ______ ____
ROOT
ATOM      1  C   UNL     1      -0.346  11.354  19.166  0.00  0.00    +0.000 A 
ATOM      2  C   UNL     1       0.244  10.110  18.892  0.00  0.00    +0.000 A 
ATOM      3  C   UNL     1       1.509  10.019  18.316  0.00  0.00    +0.000 A 
ATOM      4  C   UNL     1       2.231  11.198  18.112  0.00  0.00    +0.000 A 
ATOM      5  C   UNL     1       1.708  12.431  18.522  0.00  0.00    +0.000 A 
ATOM      6  C   UNL     1       0.415  12.524  19.063  0.00  0.00    +0.000 A 
ATOM      7  C   UNL     1      -0.095  13.848  19.552  0.00  0.00    +0.000 C 
ENDROOT
BRANCH   3   8
ATOM      8  N   UNL     1       2.082   8.795  17.910  0.00  0.00    +0.000 N 
ATOM      9  C   UNL     1       2.317   7.693  18.716  0.00  0.00    +0.000 C 
ATOM     10  O   UNL     1       2.115   7.596  19.924  0.00  0.00    +0.000 OA
ATOM     11  H   UNL     1       2.415   8.749  16.954  0.00  0.00    +0.000 HD
BRANCH   9  12
ATOM     12  C   UNL     1       2.969   6.543  18.046  0.00  0.00    +0.000 A 
ATOM     13  C   UNL     1       4.195   6.658  17.389  0.00  0.00    +0.000 A 
ATOM     14  C   UNL     1       4.771   5.525  16.815  0.00  0.00    +0.000 A 
ATOM     15  C   UNL     1       4.134   4.282  16.914  0.00  0.00    +0.000 A 
ATOM     16  C   UNL     1       2.898   4.154  17.567  0.00  0.00    +0.000 A 
ATOM     17  C   UNL     1       2.312   5.305  18.108  0.00  0.00    +0.000 A 
BRANCH  16  18
ATOM     18  C   UNL     1       2.292   2.777  17.778  0.00  0.00    +0.000 C 
ATOM     19  C   UNL     1       3.407   1.800  18.169  0.00  0.00    +0.000 C 
ATOM     20  C   UNL     1       1.164   2.729  18.814  0.00  0.00    +0.000 C 
ENDBRANCH  16  18
ENDBRANCH   9  12
ENDBRANCH   3   8
BRANCH   1  21
ATOM     21  O   UNL     1      -1.693  11.428  19.509  0.00  0.00    +0.000 OA
BRANCH  21  27
ATOM     22  C   UNL     1      -3.913  11.913  18.622  0.00  0.00    +0.000 A 
ATOM     23  C   UNL     1      -4.758  11.748  17.501  0.00  0.00    +0.000 A 
ATOM     24  C   UNL     1      -4.289  11.234  16.294  0.00  0.00    +0.000 A 
ATOM     25  C   UNL     1      -2.953  10.920  16.203  0.00  0.00    +0.000 A 
ATOM     26  N   UNL     1      -2.094  11.077  17.222  0.00  0.00    +0.000 NA
ATOM     27  C   UNL     1      -2.585  11.493  18.427  0.00  0.00    +0.000 A 
BRANCH  22  32
ATOM     28  C   UNL     1      -2.159  14.077  23.125  0.00  0.00    +0.000 C 
ATOM     29  N   UNL     1      -3.519  13.609  23.285  0.00  0.00    +0.000 N 
ATOM     30  C   UNL     1      -4.247  13.346  22.133  0.00  0.00    +0.000 A 
ATOM     31  C   UNL     1      -3.699  12.713  21.016  0.00  0.00    +0.000 A 
ATOM     32  C   UNL     1      -4.467  12.511  19.864  0.00  0.00    +0.000 A 
ATOM     33  C   UNL     1      -5.815  12.896  19.939  0.00  0.00    +0.000 A 
ATOM     34  C   UNL     1      -6.301  13.461  21.105  0.00  0.00    +0.000 A 
ATOM     35  N   UNL     1      -5.541  13.709  22.186  0.00  0.00    +0.000 NA
ATOM     36  H   UNL     1      -4.112  14.208  23.855  0.00  0.00    +0.000 HD
ENDBRANCH  22  32
ENDBRANCH  21  27
ENDBRANCH   1  21
TORSDOF 6
ENDMDL
MODEL 9
REMARK VINA RESULT:      -9.0      1.836      2.289
REMARK  Name = 
REMARK  10 active torsions:
REMARK  status: ('A' for Active; 'I' for Inactive)
REMARK    1  A    between atoms: C_1  and  N_2
REMARK    2  A    between atoms: C_5  and  C_6
REMARK    3  A    between atoms: C_11  and  O_12
REMARK    4  A    between atoms: O_12  and  C_13
REMARK    5  A    between atoms: C_15  and  N_16
REMARK    6  A    between atoms: C_17  and  C_19
REMARK    7  A    between atoms: C_23  and  C_24
REMARK    8  A    between atoms: C_24  and  C_25
REMARK    9  A    between atoms: C_24  and  C_26
REMARK   10  A    between atoms: C_30  and  C_31
REMARK                            x       y       z     vdW  Elec       q    Type
REMARK                         _______ _______ _______ _____ _____    ______ ____
ROOT
ATOM      1  C   UNL     1      -0.158  10.759  20.690  0.00  0.00    +0.000 A 
ATOM      2  C   UNL     1       0.445   9.710  19.978  0.00  0.00    +0.000 A 
ATOM      3  C   UNL     1       1.120   8.683  20.634  0.00  0.00    +0.000 A 
ATOM      4  C   UNL     1       1.094   8.659  22.031  0.00  0.00    +0.000 A 
ATOM      5  C   UNL     1       0.368   9.621  22.744  0.00  0.00    +0.000 A 
ATOM      6  C   UNL     1      -0.276  10.679  22.082  0.00  0.00    +0.000 A 
ATOM      7  C   UNL     1      -1.100  11.658  22.865  0.00  0.00    +0.000 C 
ENDROOT
BRANCH   3   8
ATOM      8  N   UNL     1       1.845   7.682  19.953  0.00  0.00    +0.000 N 
ATOM      9  C   UNL     1       2.354   7.770  18.667  0.00  0.00    +0.000 C 
ATOM     10  O   UNL     1       2.230   8.703  17.879  0.00  0.00    +0.000 OA
ATOM     11  H   UNL     1       1.940   6.792  20.429  0.00  0.00    +0.000 HD
BRANCH   9  12
ATOM     12  C   UNL     1       3.046   6.556  18.173  0.00  0.00    +0.000 A 
ATOM     13  C   UNL     1       2.376   5.350  17.957  0.00  0.00    +0.000 A 
ATOM     14  C   UNL     1       3.083   4.259  17.452  0.00  0.00    +0.000 A 
ATOM     15  C   UNL     1       4.444   4.378  17.147  0.00  0.00    +0.000 A 
ATOM     16  C   UNL     1       5.130   5.583  17.365  0.00  0.00    +0.000 A 
ATOM     17  C   UNL     1       4.419   6.661  17.907  0.00  0.00    +0.000 A 
BRANCH  16  18
ATOM     18  C   UNL     1       6.570   5.730  16.904  0.00  0.00    +0.000 C 
ATOM     19  C   UNL     1       7.101   7.092  17.365  0.00  0.00    +0.000 C 
ATOM     20  C   UNL     1       7.507   4.613  17.376  0.00  0.00    +0.000 C 
ENDBRANCH  16  18
ENDBRANCH   9  12
ENDBRANCH   3   8
BRANCH   1  21
ATOM     21  O   UNL     1      -0.608  11.891  20.017  0.00  0.00    +0.000 OA
BRANCH  21  27
ATOM     22  C   UNL     1      -2.954  12.109  19.383  0.00  0.00    +0.000 A 
ATOM     23  C   UNL     1      -3.941  11.656  18.479  0.00  0.00    +0.000 A 
ATOM     24  C   UNL     1      -3.623  10.862  17.378  0.00  0.00    +0.000 A 
ATOM     25  C   UNL     1      -2.301  10.552  17.167  0.00  0.00    +0.000 A 
ATOM     26  N   UNL     1      -1.313  10.971  17.975  0.00  0.00    +0.000 NA
ATOM     27  C   UNL     1      -1.647  11.670  19.100  0.00  0.00    +0.000 A 
BRANCH  22  32
ATOM     28  C   UNL     1      -2.296  17.129  20.934  0.00  0.00    +0.000 C 
ATOM     29  N   UNL     1      -2.648  16.293  22.062  0.00  0.00    +0.000 N 
ATOM     30  C   UNL     1      -3.197  15.047  21.791  0.00  0.00    +0.000 A 
ATOM     31  C   UNL     1      -2.736  14.221  20.766  0.00  0.00    +0.000 A 
ATOM     32  C   UNL     1      -3.354  12.992  20.509  0.00  0.00    +0.000 A 
ATOM     33  C   UNL     1      -4.384  12.618  21.386  0.00  0.00    +0.000 A 
ATOM     34  C   UNL     1      -4.744  13.466  22.420  0.00  0.00    +0.000 A 
ATOM     35  N   UNL     1      -4.187  14.673  22.621  0.00  0.00    +0.000 NA
ATOM     36  H   UNL     1      -3.273  16.729  22.737  0.00  0.00    +0.000 HD
ENDBRANCH  22  32
ENDBRANCH  21  27
ENDBRANCH   1  21
TORSDOF 6
ENDMDL
