MODEL 1
REMARK VINA RESULT:      -7.3      0.000      0.000
REMARK  Name = 
REMARK  14 active torsions:
REMARK  status: ('A' for Active; 'I' for Inactive)
REMARK    1  A    between atoms: C_1  and  C_2
REMARK    2  A    between atoms: C_2  and  C_3
REMARK    3  A    between atoms: C_3  and  C_4
REMARK    4  A    between atoms: C_3  and  C_5
REMARK    5  A    between atoms: C_5  and  N_6
REMARK    6  A    between atoms: C_5  and  C_7
REMARK    7  A    between atoms: N_9  and  C_10
REMARK    8  A    between atoms: C_10  and  C_11
REMARK    9  A    between atoms: C_10  and  C_23
REMARK   10  A    between atoms: C_11  and  C_12
REMARK   11  A    between atoms: C_12  and  C_13
REMARK   12  A    between atoms: C_13  and  O_15
REMARK   13  A    between atoms: O_15  and  C_16
REMARK   14  A    between atoms: C_16  and  C_17
REMARK                            x       y       z     vdW  Elec       q    Type
REMARK                         _______ _______ _______ _____ _____    ______ ____
ROOT
ATOM      1  C   UNL     1       4.250   3.036  19.174  0.00  0.00    +0.000 C 
ENDROOT
BRANCH   1   2
ATOM      2  C   UNL     1       4.490   2.120  20.360  0.00  0.00    +0.000 C 
ATOM      3  N   UNL     1       5.408   1.126  20.309  0.00  0.00    +0.000 N 
ATOM      4  O   UNL     1       3.837   2.282  21.381  0.00  0.00    +0.000 OA
ATOM      5  H   UNL     1       5.974   0.970  19.463  0.00  0.00    +0.000 HD
ATOM      6  H   UNL     1       5.553   0.509  21.123  0.00  0.00    +0.000 HD
ENDBRANCH   1   2
BRANCH   1   9
ATOM      7  C   UNL     1       6.093   4.682  18.911  0.00  0.00    +0.000 C 
ATOM      8  O   UNL     1       5.556   5.437  19.711  0.00  0.00    +0.000 OA
ATOM      9  N   UNL     1       5.520   3.479  18.604  0.00  0.00    +0.000 N 
ATOM     10  H   UNL     1       5.999   2.865  17.932  0.00  0.00    +0.000 HD
BRANCH   7  11
ATOM     11  C   UNL     1       7.401   5.110  18.269  0.00  0.00    +0.000 C 
BRANCH  11  12
ATOM     12  N   UNL     1       8.091   6.005  19.203  0.00  0.00    +0.000 NA
ATOM     13  H   UNL     1       9.127   5.887  19.142  0.00  0.00    +0.000 HD
ATOM     14  H   UNL     1       7.768   5.853  20.184  0.00  0.00    +0.000 HD
ENDBRANCH  11  12
BRANCH  11  15
ATOM     15  C   UNL     1       7.183   5.764  16.862  0.00  0.00    +0.000 C 
ATOM     16  C   UNL     1       5.990   6.744  16.914  0.00  0.00    +0.000 C 
BRANCH  15  18
ATOM     17  C   UNL     1       5.558   4.698  15.155  0.00  0.00    +0.000 C 
ATOM     18  C   UNL     1       6.966   4.689  15.761  0.00  0.00    +0.000 C 
ENDBRANCH  15  18
ENDBRANCH  11  15
ENDBRANCH   7  11
ENDBRANCH   1   9
BRANCH   1  19
ATOM     19  C   UNL     1       3.392   2.330  18.091  0.00  0.00    +0.000 C 
BRANCH  19  20
ATOM     20  C   UNL     1       1.885   2.428  18.389  0.00  0.00    +0.000 C 
BRANCH  20  21
ATOM     21  C   UNL     1       1.392   3.849  18.340  0.00  0.00    +0.000 C 
ATOM     22  O   UNL     1       1.064   4.326  17.262  0.00  0.00    +0.000 OA
BRANCH  21  23
ATOM     23  O   UNL     1       1.294   4.577  19.485  0.00  0.00    +0.000 OA
BRANCH  23  24
ATOM     24  C   UNL     1       2.288   5.398  19.996  0.00  0.00    +0.000 C 
BRANCH  24  25
ATOM     25  C   UNL     1       2.084   6.815  19.531  0.00  0.00    +0.000 A 
ATOM     26  C   UNL     1       2.544   7.211  18.265  0.00  0.00    +0.000 A 
ATOM     27  C   UNL     1       2.343   8.521  17.819  0.00  0.00    +0.000 A 
ATOM     28  C   UNL     1       1.683   9.445  18.633  0.00  0.00    +0.000 A 
ATOM     29  C   UNL     1       1.223   9.062  19.895  0.00  0.00    +0.000 A 
ATOM     30  C   UNL     1       1.422   7.753  20.345  0.00  0.00    +0.000 A 
ENDBRANCH  24  25
ENDBRANCH  23  24
ENDBRANCH  21  23
ENDBRANCH  20  21
ENDBRANCH  19  20
ENDBRANCH   1  19
TORSDOF 12
ENDMDL
MODEL 2
REMARK VINA RESULT:      -7.1      3.918      6.707
REMARK  Name = 
REMARK  14 active torsions:
REMARK  status: ('A' for Active; 'I' for Inactive)
REMARK    1  A    between atoms: C_1  and  C_2
REMARK    2  A    between atoms: C_2  and  C_3
REMARK    3  A    between atoms: C_3  and  C_4
REMARK    4  A    between atoms: C_3  and  C_5
REMARK    5  A    between atoms: C_5  and  N_6
REMARK    6  A    between atoms: C_5  and  C_7
REMARK    7  A    between atoms: N_9  and  C_10
REMARK    8  A    between atoms: C_10  and  C_11
REMARK    9  A    between atoms: C_10  and  C_23
REMARK   10  A    between atoms: C_11  and  C_12
REMARK   11  A    between atoms: C_12  and  C_13
REMARK   12  A    between atoms: C_13  and  O_15
REMARK   13  A    between atoms: O_15  and  C_16
REMARK   14  A    between atoms: C_16  and  C_17
REMARK                            x       y       z     vdW  Elec       q    Type
REMARK                         _______ _______ _______ _____ _____    ______ ____
ROOT
ATOM      1  C   UNL     1       6.059   4.802  17.582  0.00  0.00    +0.000 C 
ENDROOT
BRANCH   1   2
ATOM      2  C   UNL     1       5.918   4.522  16.097  0.00  0.00    +0.000 C 
ATOM      3  N   UNL     1       6.239   3.315  15.573  0.00  0.00    +0.000 N 
ATOM      4  O   UNL     1       5.510   5.407  15.359  0.00  0.00    +0.000 OA
ATOM      5  H   UNL     1       6.582   2.552  16.174  0.00  0.00    +0.000 HD
ATOM      6  H   UNL     1       6.143   3.145  14.561  0.00  0.00    +0.000 HD
ENDBRANCH   1   2
BRANCH   1   9
ATOM      7  C   UNL     1       4.590   3.843  19.342  0.00  0.00    +0.000 C 
ATOM      8  O   UNL     1       4.125   4.951  19.581  0.00  0.00    +0.000 OA
ATOM      9  N   UNL     1       5.534   3.687  18.366  0.00  0.00    +0.000 N 
ATOM     10  H   UNL     1       5.901   2.742  18.185  0.00  0.00    +0.000 HD
BRANCH   7  11
ATOM     11  C   UNL     1       4.096   2.655  20.149  0.00  0.00    +0.000 C 
BRANCH  11  12
ATOM     12  N   UNL     1       5.190   1.684  20.239  0.00  0.00    +0.000 NA
ATOM     13  H   UNL     1       5.029   1.006  21.018  0.00  0.00    +0.000 HD
ATOM     14  H   UNL     1       6.111   2.160  20.361  0.00  0.00    +0.000 HD
ENDBRANCH  11  12
BRANCH  11  15
ATOM     15  C   UNL     1       2.790   2.033  19.546  0.00  0.00    +0.000 C 
ATOM     16  C   UNL     1       2.965   1.807  18.028  0.00  0.00    +0.000 C 
BRANCH  15  18
ATOM     17  C   UNL     1       0.372   2.668  18.884  0.00  0.00    +0.000 C 
ATOM     18  C   UNL     1       1.549   2.924  19.831  0.00  0.00    +0.000 C 
ENDBRANCH  15  18
ENDBRANCH  11  15
ENDBRANCH   7  11
ENDBRANCH   1   9
BRANCH   1  19
ATOM     19  C   UNL     1       7.540   5.074  17.958  0.00  0.00    +0.000 C 
BRANCH  19  20
ATOM     20  C   UNL     1       7.719   6.426  18.670  0.00  0.00    +0.000 C 
BRANCH  20  21
ATOM     21  C   UNL     1       7.881   7.560  17.695  0.00  0.00    +0.000 C 
ATOM     22  O   UNL     1       7.899   7.315  16.497  0.00  0.00    +0.000 OA
BRANCH  21  23
ATOM     23  O   UNL     1       7.984   8.840  18.146  0.00  0.00    +0.000 OA
BRANCH  23  24
ATOM     24  C   UNL     1       8.960   9.303  19.016  0.00  0.00    +0.000 C 
BRANCH  24  25
ATOM     25  C   UNL     1       9.352  10.712  18.656  0.00  0.00    +0.000 A 
ATOM     26  C   UNL     1      10.591  11.224  19.074  0.00  0.00    +0.000 A 
ATOM     27  C   UNL     1      10.969  12.526  18.729  0.00  0.00    +0.000 A 
ATOM     28  C   UNL     1      10.114  13.326  17.967  0.00  0.00    +0.000 A 
ATOM     29  C   UNL     1       8.879  12.827  17.548  0.00  0.00    +0.000 A 
ATOM     30  C   UNL     1       8.496  11.525  17.890  0.00  0.00    +0.000 A 
ENDBRANCH  24  25
ENDBRANCH  23  24
ENDBRANCH  21  23
ENDBRANCH  20  21
ENDBRANCH  19  20
ENDBRANCH   1  19
TORSDOF 12
ENDMDL
MODEL 3
REMARK VINA RESULT:      -7.0      4.088      7.012
REMARK  Name = 
REMARK  14 active torsions:
REMARK  status: ('A' for Active; 'I' for Inactive)
REMARK    1  A    between atoms: C_1  and  C_2
REMARK    2  A    between atoms: C_2  and  C_3
REMARK    3  A    between atoms: C_3  and  C_4
REMARK    4  A    between atoms: C_3  and  C_5
REMARK    5  A    between atoms: C_5  and  N_6
REMARK    6  A    between atoms: C_5  and  C_7
REMARK    7  A    between atoms: N_9  and  C_10
REMARK    8  A    between atoms: C_10  and  C_11
REMARK    9  A    between atoms: C_10  and  C_23
REMARK   10  A    between atoms: C_11  and  C_12
REMARK   11  A    between atoms: C_12  and  C_13
REMARK   12  A    between atoms: C_13  and  O_15
REMARK   13  A    between atoms: O_15  and  C_16
REMARK   14  A    between atoms: C_16  and  C_17
REMARK                            x       y       z     vdW  Elec       q    Type
REMARK                         _______ _______ _______ _____ _____    ______ ____
ROOT
ATOM      1  C   UNL     1       5.275   5.501  18.964  0.00  0.00    +0.000 C 
ENDROOT
BRANCH   1   2
ATOM      2  C   UNL     1       4.297   6.167  18.013  0.00  0.00    +0.000 C 
ATOM      3  N   UNL     1       3.008   6.385  18.366  0.00  0.00    +0.000 N 
ATOM      4  O   UNL     1       4.682   6.508  16.904  0.00  0.00    +0.000 OA
ATOM      5  H   UNL     1       2.660   6.110  19.295  0.00  0.00    +0.000 HD
ATOM      6  H   UNL     1       2.356   6.833  17.704  0.00  0.00    +0.000 HD
ENDBRANCH   1   2
BRANCH   1   9
ATOM      7  C   UNL     1       4.234   3.267  18.644  0.00  0.00    +0.000 C 
ATOM      8  O   UNL     1       4.255   3.413  17.428  0.00  0.00    +0.000 OA
ATOM      9  N   UNL     1       4.728   4.243  19.464  0.00  0.00    +0.000 N 
ATOM     10  H   UNL     1       4.701   4.088  20.482  0.00  0.00    +0.000 HD
BRANCH   7  11
ATOM     11  C   UNL     1       3.650   1.987  19.215  0.00  0.00    +0.000 C 
BRANCH  11  12
ATOM     12  N   UNL     1       3.933   0.901  18.273  0.00  0.00    +0.000 NA
ATOM     13  H   UNL     1       4.888   1.001  17.860  0.00  0.00    +0.000 HD
ATOM     14  H   UNL     1       3.216   0.859  17.515  0.00  0.00    +0.000 HD
ENDBRANCH  11  12
BRANCH  11  15
ATOM     15  C   UNL     1       2.120   2.125  19.529  0.00  0.00    +0.000 C 
ATOM     16  C   UNL     1       1.370   2.645  18.284  0.00  0.00    +0.000 C 
BRANCH  15  18
ATOM     17  C   UNL     1       0.903   4.206  20.466  0.00  0.00    +0.000 C 
ATOM     18  C   UNL     1       1.871   3.052  20.751  0.00  0.00    +0.000 C 
ENDBRANCH  15  18
ENDBRANCH  11  15
ENDBRANCH   7  11
ENDBRANCH   1   9
BRANCH   1  19
ATOM     19  C   UNL     1       6.643   5.256  18.273  0.00  0.00    +0.000 C 
BRANCH  19  20
ATOM     20  C   UNL     1       7.758   6.137  18.864  0.00  0.00    +0.000 C 
BRANCH  20  21
ATOM     21  C   UNL     1       8.011   7.363  18.028  0.00  0.00    +0.000 C 
ATOM     22  O   UNL     1       7.832   7.304  16.819  0.00  0.00    +0.000 OA
BRANCH  21  23
ATOM     23  O   UNL     1       8.409   8.522  18.619  0.00  0.00    +0.000 OA
BRANCH  23  24
ATOM     24  C   UNL     1       8.427   9.766  18.005  0.00  0.00    +0.000 C 
BRANCH  24  25
ATOM     25  C   UNL     1       9.491  10.635  18.621  0.00  0.00    +0.000 A 
ATOM     26  C   UNL     1       9.542  10.802  20.014  0.00  0.00    +0.000 A 
ATOM     27  C   UNL     1      10.538  11.594  20.594  0.00  0.00    +0.000 A 
ATOM     28  C   UNL     1      11.488  12.226  19.790  0.00  0.00    +0.000 A 
ATOM     29  C   UNL     1      11.446  12.069  18.402  0.00  0.00    +0.000 A 
ATOM     30  C   UNL     1      10.452  11.277  17.817  0.00  0.00    +0.000 A 
ENDBRANCH  24  25
ENDBRANCH  23  24
ENDBRANCH  21  23
ENDBRANCH  20  21
ENDBRANCH  19  20
ENDBRANCH   1  19
TORSDOF 12
ENDMDL
MODEL 4
REMARK VINA RESULT:      -6.9      1.218      1.888
REMARK  Name = 
REMARK  14 active torsions:
REMARK  status: ('A' for Active; 'I' for Inactive)
REMARK    1  A    between atoms: C_1  and  C_2
REMARK    2  A    between atoms: C_2  and  C_3
REMARK    3  A    between atoms: C_3  and  C_4
REMARK    4  A    between atoms: C_3  and  C_5
REMARK    5  A    between atoms: C_5  and  N_6
REMARK    6  A    between atoms: C_5  and  C_7
REMARK    7  A    between atoms: N_9  and  C_10
REMARK    8  A    between atoms: C_10  and  C_11
REMARK    9  A    between atoms: C_10  and  C_23
REMARK   10  A    between atoms: C_11  and  C_12
REMARK   11  A    between atoms: C_12  and  C_13
REMARK   12  A    between atoms: C_13  and  O_15
REMARK   13  A    between atoms: O_15  and  C_16
REMARK   14  A    between atoms: C_16  and  C_17
REMARK                            x       y       z     vdW  Elec       q    Type
REMARK                         _______ _______ _______ _____ _____    ______ ____
ROOT
ATOM      1  C   UNL     1       4.073   3.346  18.803  0.00  0.00    +0.000 C 
ENDROOT
BRANCH   1   2
ATOM      2  C   UNL     1       4.243   1.901  19.235  0.00  0.00    +0.000 C 
ATOM      3  N   UNL     1       5.075   1.561  20.248  0.00  0.00    +0.000 N 
ATOM      4  O   UNL     1       3.618   1.027  18.652  0.00  0.00    +0.000 OA
ATOM      5  H   UNL     1       5.610   2.279  20.756  0.00  0.00    +0.000 HD
ATOM      6  H   UNL     1       5.183   0.573  20.523  0.00  0.00    +0.000 HD
ENDBRANCH   1   2
BRANCH   1   9
ATOM      7  C   UNL     1       5.987   4.914  18.568  0.00  0.00    +0.000 C 
ATOM      8  O   UNL     1       5.632   5.524  19.569  0.00  0.00    +0.000 OA
ATOM      9  N   UNL     1       5.280   3.827  18.135  0.00  0.00    +0.000 N 
ATOM     10  H   UNL     1       5.607   3.332  17.294  0.00  0.00    +0.000 HD
BRANCH   7  11
ATOM     11  C   UNL     1       7.221   5.391  17.822  0.00  0.00    +0.000 C 
BRANCH  11  12
ATOM     12  N   UNL     1       7.865   6.429  18.632  0.00  0.00    +0.000 NA
ATOM     13  H   UNL     1       7.422   7.362  18.469  0.00  0.00    +0.000 HD
ATOM     14  H   UNL     1       8.889   6.479  18.440  0.00  0.00    +0.000 HD
ENDBRANCH  11  12
BRANCH  11  15
ATOM     15  C   UNL     1       6.881   5.885  16.374  0.00  0.00    +0.000 C 
ATOM     16  C   UNL     1       5.488   6.552  16.356  0.00  0.00    +0.000 C 
BRANCH  15  18
ATOM     17  C   UNL     1       5.616   4.436  14.645  0.00  0.00    +0.000 C 
ATOM     18  C   UNL     1       6.949   4.723  15.345  0.00  0.00    +0.000 C 
ENDBRANCH  15  18
ENDBRANCH  11  15
ENDBRANCH   7  11
ENDBRANCH   1   9
BRANCH   1  19
ATOM     19  C   UNL     1       2.843   3.507  17.871  0.00  0.00    +0.000 C 
BRANCH  19  20
ATOM     20  C   UNL     1       2.211   4.906  17.979  0.00  0.00    +0.000 C 
BRANCH  20  21
ATOM     21  C   UNL     1       1.944   5.295  19.408  0.00  0.00    +0.000 C 
ATOM     22  O   UNL     1       1.307   4.532  20.122  0.00  0.00    +0.000 OA
BRANCH  21  23
ATOM     23  O   UNL     1       2.426   6.469  19.897  0.00  0.00    +0.000 OA
BRANCH  23  24
ATOM     24  C   UNL     1       1.752   7.305  20.775  0.00  0.00    +0.000 C 
BRANCH  24  25
ATOM     25  C   UNL     1       1.285   8.545  20.059  0.00  0.00    +0.000 A 
ATOM     26  C   UNL     1       0.385   9.421  20.686  0.00  0.00    +0.000 A 
ATOM     27  C   UNL     1      -0.040  10.583  20.034  0.00  0.00    +0.000 A 
ATOM     28  C   UNL     1       0.428  10.878  18.751  0.00  0.00    +0.000 A 
ATOM     29  C   UNL     1       1.321  10.011  18.117  0.00  0.00    +0.000 A 
ATOM     30  C   UNL     1       1.750   8.848  18.765  0.00  0.00    +0.000 A 
ENDBRANCH  24  25
ENDBRANCH  23  24
ENDBRANCH  21  23
ENDBRANCH  20  21
ENDBRANCH  19  20
ENDBRANCH   1  19
TORSDOF 12
ENDMDL
MODEL 5
REMARK VINA RESULT:      -6.8      4.205      7.026
REMARK  Name = 
REMARK  14 active torsions:
REMARK  status: ('A' for Active; 'I' for Inactive)
REMARK    1  A    between atoms: C_1  and  C_2
REMARK    2  A    between atoms: C_2  and  C_3
REMARK    3  A    between atoms: C_3  and  C_4
REMARK    4  A    between atoms: C_3  and  C_5
REMARK    5  A    between atoms: C_5  and  N_6
REMARK    6  A    between atoms: C_5  and  C_7
REMARK    7  A    between atoms: N_9  and  C_10
REMARK    8  A    between atoms: C_10  and  C_11
REMARK    9  A    between atoms: C_10  and  C_23
REMARK   10  A    between atoms: C_11  and  C_12
REMARK   11  A    between atoms: C_12  and  C_13
REMARK   12  A    between atoms: C_13  and  O_15
REMARK   13  A    between atoms: O_15  and  C_16
REMARK   14  A    between atoms: C_16  and  C_17
REMARK                            x       y       z     vdW  Elec       q    Type
REMARK                         _______ _______ _______ _____ _____    ______ ____
ROOT
ATOM      1  C   UNL     1       5.652   5.637  16.467  0.00  0.00    +0.000 C 
ENDROOT
BRANCH   1   2
ATOM      2  C   UNL     1       6.906   4.800  16.290  0.00  0.00    +0.000 C 
ATOM      3  N   UNL     1       7.508   4.201  17.344  0.00  0.00    +0.000 N 
ATOM      4  O   UNL     1       7.382   4.668  15.172  0.00  0.00    +0.000 OA
ATOM      5  H   UNL     1       7.125   4.294  18.296  0.00  0.00    +0.000 HD
ATOM      6  H   UNL     1       8.363   3.641  17.206  0.00  0.00    +0.000 HD
ENDBRANCH   1   2
BRANCH   1   9
ATOM      7  C   UNL     1       4.397   4.446  18.251  0.00  0.00    +0.000 C 
ATOM      8  O   UNL     1       5.198   4.830  19.094  0.00  0.00    +0.000 OA
ATOM      9  N   UNL     1       4.546   4.811  16.942  0.00  0.00    +0.000 N 
ATOM     10  H   UNL     1       3.853   4.476  16.258  0.00  0.00    +0.000 HD
BRANCH   7  11
ATOM     11  C   UNL     1       3.244   3.561  18.689  0.00  0.00    +0.000 C 
BRANCH  11  12
ATOM     12  N   UNL     1       3.071   2.511  17.681  0.00  0.00    +0.000 NA
ATOM     13  H   UNL     1       2.784   2.916  16.761  0.00  0.00    +0.000 HD
ATOM     14  H   UNL     1       2.377   1.797  17.992  0.00  0.00    +0.000 HD
ENDBRANCH  11  12
BRANCH  11  15
ATOM     15  C   UNL     1       1.930   4.380  18.933  0.00  0.00    +0.000 C 
ATOM     16  C   UNL     1       2.277   5.794  19.449  0.00  0.00    +0.000 C 
BRANCH  15  18
ATOM     17  C   UNL     1       1.660   3.198  21.217  0.00  0.00    +0.000 C 
ATOM     18  C   UNL     1       0.978   3.650  19.921  0.00  0.00    +0.000 C 
ENDBRANCH  15  18
ENDBRANCH  11  15
ENDBRANCH   7  11
ENDBRANCH   1   9
BRANCH   1  19
ATOM     19  C   UNL     1       5.903   6.814  17.447  0.00  0.00    +0.000 C 
BRANCH  19  20
ATOM     20  C   UNL     1       7.248   7.514  17.181  0.00  0.00    +0.000 C 
BRANCH  20  21
ATOM     21  C   UNL     1       8.112   7.563  18.412  0.00  0.00    +0.000 C 
ATOM     22  O   UNL     1       8.250   6.548  19.081  0.00  0.00    +0.000 OA
BRANCH  21  23
ATOM     23  O   UNL     1       8.745   8.717  18.757  0.00  0.00    +0.000 OA
BRANCH  23  24
ATOM     24  C   UNL     1       8.618   9.926  18.090  0.00  0.00    +0.000 C 
BRANCH  24  25
ATOM     25  C   UNL     1       9.582  10.936  18.655  0.00  0.00    +0.000 A 
ATOM     26  C   UNL     1      10.178  11.885  17.810  0.00  0.00    +0.000 A 
ATOM     27  C   UNL     1      11.061  12.837  18.329  0.00  0.00    +0.000 A 
ATOM     28  C   UNL     1      11.357  12.847  19.695  0.00  0.00    +0.000 A 
ATOM     29  C   UNL     1      10.771  11.906  20.544  0.00  0.00    +0.000 A 
ATOM     30  C   UNL     1       9.887  10.952  20.028  0.00  0.00    +0.000 A 
ENDBRANCH  24  25
ENDBRANCH  23  24
ENDBRANCH  21  23
ENDBRANCH  20  21
ENDBRANCH  19  20
ENDBRANCH   1  19
TORSDOF 12
ENDMDL
MODEL 6
REMARK VINA RESULT:      -6.8      2.347      4.910
REMARK  Name = 
REMARK  14 active torsions:
REMARK  status: ('A' for Active; 'I' for Inactive)
REMARK    1  A    between atoms: C_1  and  C_2
REMARK    2  A    between atoms: C_2  and  C_3
REMARK    3  A    between atoms: C_3  and  C_4
REMARK    4  A    between atoms: C_3  and  C_5
REMARK    5  A    between atoms: C_5  and  N_6
REMARK    6  A    between atoms: C_5  and  C_7
REMARK    7  A    between atoms: N_9  and  C_10
REMARK    8  A    between atoms: C_10  and  C_11
REMARK    9  A    between atoms: C_10  and  C_23
REMARK   10  A    between atoms: C_11  and  C_12
REMARK   11  A    between atoms: C_12  and  C_13
REMARK   12  A    between atoms: C_13  and  O_15
REMARK   13  A    between atoms: O_15  and  C_16
REMARK   14  A    between atoms: C_16  and  C_17
REMARK                            x       y       z     vdW  Elec       q    Type
REMARK                         _______ _______ _______ _____ _____    ______ ____
ROOT
ATOM      1  C   UNL     1       5.599   5.062  17.245  0.00  0.00    +0.000 C 
ENDROOT
BRANCH   1   2
ATOM      2  C   UNL     1       7.077   5.070  16.900  0.00  0.00    +0.000 C 
ATOM      3  N   UNL     1       7.955   4.261  17.541  0.00  0.00    +0.000 N 
ATOM      4  O   UNL     1       7.483   5.825  16.028  0.00  0.00    +0.000 OA
ATOM      5  H   UNL     1       7.638   3.614  18.277  0.00  0.00    +0.000 HD
ATOM      6  H   UNL     1       8.956   4.285  17.298  0.00  0.00    +0.000 HD
ENDBRANCH   1   2
BRANCH   1   9
ATOM      7  C   UNL     1       4.139   3.228  18.070  0.00  0.00    +0.000 C 
ATOM      8  O   UNL     1       3.318   3.464  17.193  0.00  0.00    +0.000 OA
ATOM      9  N   UNL     1       5.290   3.961  18.153  0.00  0.00    +0.000 N 
ATOM     10  H   UNL     1       5.964   3.734  18.898  0.00  0.00    +0.000 HD
BRANCH   7  11
ATOM     11  C   UNL     1       3.852   2.110  19.057  0.00  0.00    +0.000 C 
BRANCH  11  12
ATOM     12  N   UNL     1       3.830   0.846  18.314  0.00  0.00    +0.000 NA
ATOM     13  H   UNL     1       2.995   0.272  18.572  0.00  0.00    +0.000 HD
ATOM     14  H   UNL     1       4.705   0.299  18.471  0.00  0.00    +0.000 HD
ENDBRANCH  11  12
BRANCH  11  15
ATOM     15  C   UNL     1       2.528   2.356  19.859  0.00  0.00    +0.000 C 
ATOM     16  C   UNL     1       1.308   2.218  18.921  0.00  0.00    +0.000 C 
BRANCH  15  18
ATOM     17  C   UNL     1       1.178   4.460  20.523  0.00  0.00    +0.000 C 
ATOM     18  C   UNL     1       2.534   3.746  20.555  0.00  0.00    +0.000 C 
ENDBRANCH  15  18
ENDBRANCH  11  15
ENDBRANCH   7  11
ENDBRANCH   1   9
BRANCH   1  19
ATOM     19  C   UNL     1       5.168   6.414  17.872  0.00  0.00    +0.000 C 
BRANCH  19  20
ATOM     20  C   UNL     1       4.138   7.156  17.002  0.00  0.00    +0.000 C 
BRANCH  20  21
ATOM     21  C   UNL     1       3.006   7.716  17.820  0.00  0.00    +0.000 C 
ATOM     22  O   UNL     1       2.704   7.165  18.870  0.00  0.00    +0.000 OA
BRANCH  21  23
ATOM     23  O   UNL     1       2.348   8.831  17.403  0.00  0.00    +0.000 OA
BRANCH  23  24
ATOM     24  C   UNL     1       1.189   9.335  17.974  0.00  0.00    +0.000 C 
BRANCH  24  25
ATOM     25  C   UNL     1       1.459  10.675  18.605  0.00  0.00    +0.000 A 
ATOM     26  C   UNL     1       2.257  11.617  17.937  0.00  0.00    +0.000 A 
ATOM     27  C   UNL     1       2.498  12.870  18.509  0.00  0.00    +0.000 A 
ATOM     28  C   UNL     1       1.947  13.192  19.751  0.00  0.00    +0.000 A 
ATOM     29  C   UNL     1       1.153  12.261  20.426  0.00  0.00    +0.000 A 
ATOM     30  C   UNL     1       0.908  11.007  19.857  0.00  0.00    +0.000 A 
ENDBRANCH  24  25
ENDBRANCH  23  24
ENDBRANCH  21  23
ENDBRANCH  20  21
ENDBRANCH  19  20
ENDBRANCH   1  19
TORSDOF 12
ENDMDL
MODEL 7
REMARK VINA RESULT:      -6.8      1.965      4.677
REMARK  Name = 
REMARK  14 active torsions:
REMARK  status: ('A' for Active; 'I' for Inactive)
REMARK    1  A    between atoms: C_1  and  C_2
REMARK    2  A    between atoms: C_2  and  C_3
REMARK    3  A    between atoms: C_3  and  C_4
REMARK    4  A    between atoms: C_3  and  C_5
REMARK    5  A    between atoms: C_5  and  N_6
REMARK    6  A    between atoms: C_5  and  C_7
REMARK    7  A    between atoms: N_9  and  C_10
REMARK    8  A    between atoms: C_10  and  C_11
REMARK    9  A    between atoms: C_10  and  C_23
REMARK   10  A    between atoms: C_11  and  C_12
REMARK   11  A    between atoms: C_12  and  C_13
REMARK   12  A    between atoms: C_13  and  O_15
REMARK   13  A    between atoms: O_15  and  C_16
REMARK   14  A    between atoms: C_16  and  C_17
REMARK                            x       y       z     vdW  Elec       q    Type
REMARK                         _______ _______ _______ _____ _____    ______ ____
ROOT
ATOM      1  C   UNL     1       5.516   4.623  16.241  0.00  0.00    +0.000 C 
ENDROOT
BRANCH   1   2
ATOM      2  C   UNL     1       6.994   4.756  15.923  0.00  0.00    +0.000 C 
ATOM      3  N   UNL     1       7.418   5.240  14.732  0.00  0.00    +0.000 N 
ATOM      4  O   UNL     1       7.817   4.415  16.760  0.00  0.00    +0.000 OA
ATOM      5  H   UNL     1       6.745   5.537  14.011  0.00  0.00    +0.000 HD
ATOM      6  H   UNL     1       8.426   5.317  14.531  0.00  0.00    +0.000 HD
ENDBRANCH   1   2
BRANCH   1   9
ATOM      7  C   UNL     1       4.201   3.113  17.713  0.00  0.00    +0.000 C 
ATOM      8  O   UNL     1       3.307   3.049  16.879  0.00  0.00    +0.000 OA
ATOM      9  N   UNL     1       5.322   3.856  17.468  0.00  0.00    +0.000 N 
ATOM     10  H   UNL     1       6.058   3.885  18.188  0.00  0.00    +0.000 HD
BRANCH   7  11
ATOM     11  C   UNL     1       4.035   2.355  19.019  0.00  0.00    +0.000 C 
BRANCH  11  12
ATOM     12  N   UNL     1       4.087   0.922  18.718  0.00  0.00    +0.000 NA
ATOM     13  H   UNL     1       3.173   0.459  18.928  0.00  0.00    +0.000 HD
ATOM     14  H   UNL     1       4.857   0.451  19.244  0.00  0.00    +0.000 HD
ENDBRANCH  11  12
BRANCH  11  15
ATOM     15  C   UNL     1       2.724   2.762  19.775  0.00  0.00    +0.000 C 
ATOM     16  C   UNL     1       2.952   2.693  21.301  0.00  0.00    +0.000 C 
BRANCH  15  18
ATOM     17  C   UNL     1       0.337   2.651  18.785  0.00  0.00    +0.000 C 
ATOM     18  C   UNL     1       1.524   1.867  19.356  0.00  0.00    +0.000 C 
ENDBRANCH  15  18
ENDBRANCH  11  15
ENDBRANCH   7  11
ENDBRANCH   1   9
BRANCH   1  19
ATOM     19  C   UNL     1       4.846   6.017  16.366  0.00  0.00    +0.000 C 
BRANCH  19  20
ATOM     20  C   UNL     1       4.961   6.590  17.790  0.00  0.00    +0.000 C 
BRANCH  20  21
ATOM     21  C   UNL     1       3.656   6.515  18.536  0.00  0.00    +0.000 C 
ATOM     22  O   UNL     1       3.619   5.934  19.611  0.00  0.00    +0.000 OA
BRANCH  21  23
ATOM     23  O   UNL     1       2.543   7.109  18.025  0.00  0.00    +0.000 OA
BRANCH  23  24
ATOM     24  C   UNL     1       2.406   8.466  17.775  0.00  0.00    +0.000 C 
BRANCH  24  25
ATOM     25  C   UNL     1       1.390   9.068  18.709  0.00  0.00    +0.000 A 
ATOM     26  C   UNL     1       0.398   9.926  18.209  0.00  0.00    +0.000 A 
ATOM     27  C   UNL     1      -0.560  10.475  19.067  0.00  0.00    +0.000 A 
ATOM     28  C   UNL     1      -0.534  10.173  20.431  0.00  0.00    +0.000 A 
ATOM     29  C   UNL     1       0.450   9.322  20.940  0.00  0.00    +0.000 A 
ATOM     30  C   UNL     1       1.410   8.770  20.084  0.00  0.00    +0.000 A 
ENDBRANCH  24  25
ENDBRANCH  23  24
ENDBRANCH  21  23
ENDBRANCH  20  21
ENDBRANCH  19  20
ENDBRANCH   1  19
TORSDOF 12
ENDMDL
MODEL 8
REMARK VINA RESULT:      -6.7      1.656      2.321
REMARK  Name = 
REMARK  14 active torsions:
REMARK  status: ('A' for Active; 'I' for Inactive)
REMARK    1  A    between atoms: C_1  and  C_2
REMARK    2  A    between atoms: C_2  and  C_3
REMARK    3  A    between atoms: C_3  and  C_4
REMARK    4  A    between atoms: C_3  and  C_5
REMARK    5  A    between atoms: C_5  and  N_6
REMARK    6  A    between atoms: C_5  and  C_7
REMARK    7  A    between atoms: N_9  and  C_10
REMARK    8  A    between atoms: C_10  and  C_11
REMARK    9  A    between atoms: C_10  and  C_23
REMARK   10  A    between atoms: C_11  and  C_12
REMARK   11  A    between atoms: C_12  and  C_13
REMARK   12  A    between atoms: C_13  and  O_15
REMARK   13  A    between atoms: O_15  and  C_16
REMARK   14  A    between atoms: C_16  and  C_17
REMARK                            x       y       z     vdW  Elec       q    Type
REMARK                         _______ _______ _______ _____ _____    ______ ____
ROOT
ATOM      1  C   UNL     1       3.357   3.292  19.046  0.00  0.00    +0.000 C 
ENDROOT
BRANCH   1   2
ATOM      2  C   UNL     1       4.025   1.941  19.227  0.00  0.00    +0.000 C 
ATOM      3  N   UNL     1       4.969   1.744  20.178  0.00  0.00    +0.000 N 
ATOM      4  O   UNL     1       3.706   1.015  18.497  0.00  0.00    +0.000 OA
ATOM      5  H   UNL     1       5.254   2.507  20.808  0.00  0.00    +0.000 HD
ATOM      6  H   UNL     1       5.418   0.821  20.282  0.00  0.00    +0.000 HD
ENDBRANCH   1   2
BRANCH   1   9
ATOM      7  C   UNL     1       5.212   4.658  18.113  0.00  0.00    +0.000 C 
ATOM      8  O   UNL     1       5.824   4.581  19.171  0.00  0.00    +0.000 OA
ATOM      9  N   UNL     1       4.000   4.042  17.970  0.00  0.00    +0.000 N 
ATOM     10  H   UNL     1       3.513   4.121  17.066  0.00  0.00    +0.000 HD
BRANCH   7  11
ATOM     11  C   UNL     1       5.826   5.450  16.972  0.00  0.00    +0.000 C 
BRANCH  11  12
ATOM     12  N   UNL     1       4.823   6.405  16.494  0.00  0.00    +0.000 NA
ATOM     13  H   UNL     1       3.894   5.943  16.363  0.00  0.00    +0.000 HD
ATOM     14  H   UNL     1       5.126   6.862  15.606  0.00  0.00    +0.000 HD
ENDBRANCH  11  12
BRANCH  11  15
ATOM     15  C   UNL     1       6.360   4.520  15.829  0.00  0.00    +0.000 C 
ATOM     16  C   UNL     1       7.635   5.129  15.205  0.00  0.00    +0.000 C 
BRANCH  15  18
ATOM     17  C   UNL     1       5.841   3.763  13.411  0.00  0.00    +0.000 C 
ATOM     18  C   UNL     1       5.278   4.275  14.741  0.00  0.00    +0.000 C 
ENDBRANCH  15  18
ENDBRANCH  11  15
ENDBRANCH   7  11
ENDBRANCH   1   9
BRANCH   1  19
ATOM     19  C   UNL     1       1.841   3.128  18.756  0.00  0.00    +0.000 C 
BRANCH  19  20
ATOM     20  C   UNL     1       0.968   3.746  19.863  0.00  0.00    +0.000 C 
BRANCH  20  21
ATOM     21  C   UNL     1       1.785   4.528  20.856  0.00  0.00    +0.000 C 
ATOM     22  O   UNL     1       2.364   3.928  21.751  0.00  0.00    +0.000 OA
BRANCH  21  23
ATOM     23  O   UNL     1       1.892   5.879  20.738  0.00  0.00    +0.000 OA
BRANCH  23  24
ATOM     24  C   UNL     1       2.549   6.541  19.712  0.00  0.00    +0.000 C 
BRANCH  24  25
ATOM     25  C   UNL     1       1.926   7.893  19.481  0.00  0.00    +0.000 A 
ATOM     26  C   UNL     1       1.200   8.515  20.509  0.00  0.00    +0.000 A 
ATOM     27  C   UNL     1       0.632   9.777  20.308  0.00  0.00    +0.000 A 
ATOM     28  C   UNL     1       0.784  10.427  19.080  0.00  0.00    +0.000 A 
ATOM     29  C   UNL     1       1.503   9.816  18.051  0.00  0.00    +0.000 A 
ATOM     30  C   UNL     1       2.073   8.553  18.247  0.00  0.00    +0.000 A 
ENDBRANCH  24  25
ENDBRANCH  23  24
ENDBRANCH  21  23
ENDBRANCH  20  21
ENDBRANCH  19  20
ENDBRANCH   1  19
TORSDOF 12
ENDMDL
MODEL 9
REMARK VINA RESULT:      -6.7      2.978      4.106
REMARK  Name = 
REMARK  14 active torsions:
REMARK  status: ('A' for Active; 'I' for Inactive)
REMARK    1  A    between atoms: C_1  and  C_2
REMARK    2  A    between atoms: C_2  and  C_3
REMARK    3  A    between atoms: C_3  and  C_4
REMARK    4  A    between atoms: C_3  and  C_5
REMARK    5  A    between atoms: C_5  and  N_6
REMARK    6  A    between atoms: C_5  and  C_7
REMARK    7  A    between atoms: N_9  and  C_10
REMARK    8  A    between atoms: C_10  and  C_11
REMARK    9  A    between atoms: C_10  and  C_23
REMARK   10  A    between atoms: C_11  and  C_12
REMARK   11  A    between atoms: C_12  and  C_13
REMARK   12  A    between atoms: C_13  and  O_15
REMARK   13  A    between atoms: O_15  and  C_16
REMARK   14  A    between atoms: C_16  and  C_17
REMARK                            x       y       z     vdW  Elec       q    Type
REMARK                         _______ _______ _______ _____ _____    ______ ____
ROOT
ATOM      1  C   UNL     1       5.964   4.378  16.580  0.00  0.00    +0.000 C 
ENDROOT
BRANCH   1   2
ATOM      2  C   UNL     1       7.061   4.459  17.625  0.00  0.00    +0.000 C 
ATOM      3  N   UNL     1       6.789   4.797  18.908  0.00  0.00    +0.000 N 
ATOM      4  O   UNL     1       8.215   4.219  17.299  0.00  0.00    +0.000 OA
ATOM      5  H   UNL     1       5.826   5.000  19.209  0.00  0.00    +0.000 HD
ATOM      6  H   UNL     1       7.549   4.854  19.603  0.00  0.00    +0.000 HD
ENDBRANCH   1   2
BRANCH   1   9
ATOM      7  C   UNL     1       5.971   4.100  14.110  0.00  0.00    +0.000 C 
ATOM      8  O   UNL     1       5.061   4.912  13.999  0.00  0.00    +0.000 OA
ATOM      9  N   UNL     1       6.477   3.794  15.343  0.00  0.00    +0.000 N 
ATOM     10  H   UNL     1       7.246   3.112  15.402  0.00  0.00    +0.000 HD
BRANCH   7  11
ATOM     11  C   UNL     1       6.521   3.444  12.856  0.00  0.00    +0.000 C 
BRANCH  11  12
ATOM     12  N   UNL     1       7.191   4.478  12.062  0.00  0.00    +0.000 NA
ATOM     13  H   UNL     1       7.984   4.905  12.593  0.00  0.00    +0.000 HD
ATOM     14  H   UNL     1       6.521   5.219  11.759  0.00  0.00    +0.000 HD
ENDBRANCH  11  12
BRANCH  11  15
ATOM     15  C   UNL     1       5.408   2.694  12.045  0.00  0.00    +0.000 C 
ATOM     16  C   UNL     1       6.025   1.501  11.282  0.00  0.00    +0.000 C 
BRANCH  15  18
ATOM     17  C   UNL     1       3.269   3.175  10.673  0.00  0.00    +0.000 C 
ATOM     18  C   UNL     1       4.671   3.652  11.069  0.00  0.00    +0.000 C 
ENDBRANCH  15  18
ENDBRANCH  11  15
ENDBRANCH   7  11
ENDBRANCH   1   9
BRANCH   1  19
ATOM     19  C   UNL     1       4.757   3.554  17.103  0.00  0.00    +0.000 C 
BRANCH  19  20
ATOM     20  C   UNL     1       3.502   4.424  17.298  0.00  0.00    +0.000 C 
BRANCH  20  21
ATOM     21  C   UNL     1       2.811   4.133  18.603  0.00  0.00    +0.000 C 
ATOM     22  O   UNL     1       2.890   3.009  19.078  0.00  0.00    +0.000 OA
BRANCH  21  23
ATOM     23  O   UNL     1       2.129   5.117  19.249  0.00  0.00    +0.000 OA
BRANCH  23  24
ATOM     24  C   UNL     1       2.711   6.146  19.975  0.00  0.00    +0.000 C 
BRANCH  24  25
ATOM     25  C   UNL     1       2.140   7.472  19.548  0.00  0.00    +0.000 A 
ATOM     26  C   UNL     1       2.304   7.913  18.225  0.00  0.00    +0.000 A 
ATOM     27  C   UNL     1       1.761   9.136  17.816  0.00  0.00    +0.000 A 
ATOM     28  C   UNL     1       1.054   9.928  18.724  0.00  0.00    +0.000 A 
ATOM     29  C   UNL     1       0.888   9.500  20.043  0.00  0.00    +0.000 A 
ATOM     30  C   UNL     1       1.428   8.277  20.457  0.00  0.00    +0.000 A 
ENDBRANCH  24  25
ENDBRANCH  23  24
ENDBRANCH  21  23
ENDBRANCH  20  21
ENDBRANCH  19  20
ENDBRANCH   1  19
TORSDOF 12
ENDMDL
