MODEL 1
REMARK VINA RESULT:      -8.6      0.000      0.000
REMARK  Name = 
REMARK  12 active torsions:
REMARK  status: ('A' for Active; 'I' for Inactive)
REMARK    1  A    between atoms: C_2  and  C_3
REMARK    2  A    between atoms: C_3  and  N_4
REMARK    3  A    between atoms: N_12  and  C_13
REMARK    4  A    between atoms: C_13  and  C_14
REMARK    5  A    between atoms: C_14  and  N_15
REMARK    6  A    between atoms: N_15  and  C_16
REMARK    7  A    between atoms: C_16  and  C_17
REMARK    8  A    between atoms: C_17  and  N_18
REMARK    9  A    between atoms: N_18  and  C_19
REMARK   10  A    between atoms: C_19  and  C_20
REMARK   11  A    between atoms: C_19  and  C_26
REMARK   12  A    between atoms: C_19  and  C_32
REMARK                            x       y       z     vdW  Elec       q    Type
REMARK                         _______ _______ _______ _____ _____    ______ ____
ROOT
ATOM      1  N   UNL     1       0.209   9.981  17.942  0.00  0.00    +0.000 NA
ATOM      2  H   UNL     1      -0.331   9.125  17.988  0.00  0.00    +0.000 HD
ENDROOT
BRANCH   1   3
ATOM      3  C   UNL     1       1.582   9.697  18.371  0.00  0.00    +0.000 C 
BRANCH   3   4
ATOM      4  C   UNL     1       2.196   8.478  17.659  0.00  0.00    +0.000 C 
BRANCH   4   5
ATOM      5  N   UNL     1       2.974   7.628  18.575  0.00  0.00    +0.000 NA
ATOM      6  H   UNL     1       3.687   7.135  18.035  0.00  0.00    +0.000 HD
BRANCH   5   7
ATOM      7  C   UNL     1       2.143   6.642  19.282  0.00  0.00    +0.000 C 
BRANCH   7   8
ATOM      8  C   UNL     1       2.313   5.241  18.679  0.00  0.00    +0.000 C 
BRANCH   8  11
ATOM      9  O   UNL     1       3.434   2.869  17.627  0.00  0.00    +0.000 OA
ATOM     10  C   UNL     1       3.913   3.952  17.300  0.00  0.00    +0.000 C 
ATOM     11  N   UNL     1       3.449   5.159  17.777  0.00  0.00    +0.000 N 
ATOM     12  H   UNL     1       4.070   5.965  17.714  0.00  0.00    +0.000 HD
BRANCH  10  13
ATOM     13  C   UNL     1       5.134   4.062  16.386  0.00  0.00    +0.000 C 
BRANCH  13  14
ATOM     14  N   UNL     1       6.056   5.062  16.912  0.00  0.00    +0.000 N 
ATOM     15  C   UNL     1       6.896   4.742  17.958  0.00  0.00    +0.000 A 
ATOM     16  C   UNL     1       7.711   5.643  18.506  0.00  0.00    +0.000 A 
ATOM     17  C   UNL     1       7.705   7.017  17.980  0.00  0.00    +0.000 A 
ATOM     18  O   UNL     1       8.395   7.896  18.485  0.00  0.00    +0.000 OA
ATOM     19  N   UNL     1       6.876   7.244  16.919  0.00  0.00    +0.000 N 
ATOM     20  C   UNL     1       5.997   6.344  16.381  0.00  0.00    +0.000 A 
ATOM     21  O   UNL     1       5.211   6.676  15.497  0.00  0.00    +0.000 OA
ATOM     22  H   UNL     1       6.845   8.184  16.554  0.00  0.00    +0.000 HD
ENDBRANCH  13  14
ENDBRANCH  10  13
ENDBRANCH   8  11
ENDBRANCH   7   8
ENDBRANCH   5   7
ENDBRANCH   4   5
ENDBRANCH   3   4
ENDBRANCH   1   3
BRANCH   1  23
ATOM     23  C   UNL     1      -0.502  11.014  18.784  0.00  0.00    +0.000 C 
BRANCH  23  24
ATOM     24  C   UNL     1      -1.976  11.079  18.206  0.00  0.00    +0.000 A 
ATOM     25  C   UNL     1      -2.239  10.755  16.862  0.00  0.00    +0.000 A 
ATOM     26  C   UNL     1      -3.510  10.939  16.301  0.00  0.00    +0.000 A 
ATOM     27  C   UNL     1      -4.547  11.468  17.065  0.00  0.00    +0.000 A 
ATOM     28  C   UNL     1      -4.317  11.817  18.388  0.00  0.00    +0.000 A 
ATOM     29  C   UNL     1      -3.047  11.635  18.945  0.00  0.00    +0.000 A 
ENDBRANCH  23  24
BRANCH  23  30
ATOM     30  C   UNL     1      -0.502  10.530  20.285  0.00  0.00    +0.000 A 
ATOM     31  C   UNL     1      -0.339   9.175  20.651  0.00  0.00    +0.000 A 
ATOM     32  C   UNL     1      -0.312   8.773  21.992  0.00  0.00    +0.000 A 
ATOM     33  C   UNL     1      -0.463   9.711  23.004  0.00  0.00    +0.000 A 
ATOM     34  C   UNL     1      -0.646  11.051  22.678  0.00  0.00    +0.000 A 
ATOM     35  C   UNL     1      -0.662  11.457  21.338  0.00  0.00    +0.000 A 
ENDBRANCH  23  30
BRANCH  23  36
ATOM     36  C   UNL     1       0.273  12.394  18.748  0.00  0.00    +0.000 A 
ATOM     37  C   UNL     1       1.661  12.474  18.984  0.00  0.00    +0.000 A 
ATOM     38  C   UNL     1       2.309  13.706  19.125  0.00  0.00    +0.000 A 
ATOM     39  C   UNL     1       1.600  14.892  18.970  0.00  0.00    +0.000 A 
ATOM     40  C   UNL     1       0.254  14.847  18.632  0.00  0.00    +0.000 A 
ATOM     41  C   UNL     1      -0.394  13.614  18.496  0.00  0.00    +0.000 A 
ENDBRANCH  23  36
ENDBRANCH   1  23
TORSDOF 12
ENDMDL
MODEL 2
REMARK VINA RESULT:      -8.2      0.684      3.734
REMARK  Name = 
REMARK  12 active torsions:
REMARK  status: ('A' for Active; 'I' for Inactive)
REMARK    1  A    between atoms: C_2  and  C_3
REMARK    2  A    between atoms: C_3  and  N_4
REMARK    3  A    between atoms: N_12  and  C_13
REMARK    4  A    between atoms: C_13  and  C_14
REMARK    5  A    between atoms: C_14  and  N_15
REMARK    6  A    between atoms: N_15  and  C_16
REMARK    7  A    between atoms: C_16  and  C_17
REMARK    8  A    between atoms: C_17  and  N_18
REMARK    9  A    between atoms: N_18  and  C_19
REMARK   10  A    between atoms: C_19  and  C_20
REMARK   11  A    between atoms: C_19  and  C_26
REMARK   12  A    between atoms: C_19  and  C_32
REMARK                            x       y       z     vdW  Elec       q    Type
REMARK                         _______ _______ _______ _____ _____    ______ ____
ROOT
ATOM      1  N   UNL     1       0.958  10.379  18.041  0.00  0.00    +0.000 NA
ATOM      2  H   UNL     1       0.520  10.125  17.162  0.00  0.00    +0.000 HD
ENDROOT
BRANCH   1   3
ATOM      3  C   UNL     1       1.442   9.159  18.696  0.00  0.00    +0.000 C 
BRANCH   3   4
ATOM      4  C   UNL     1       2.280   8.267  17.763  0.00  0.00    +0.000 C 
BRANCH   4   5
ATOM      5  N   UNL     1       3.093   7.289  18.504  0.00  0.00    +0.000 NA
ATOM      6  H   UNL     1       3.450   6.596  17.845  0.00  0.00    +0.000 HD
BRANCH   5   7
ATOM      7  C   UNL     1       2.336   6.600  19.560  0.00  0.00    +0.000 C 
BRANCH   7   8
ATOM      8  C   UNL     1       2.853   5.170  19.768  0.00  0.00    +0.000 C 
BRANCH   8  11
ATOM      9  O   UNL     1       3.042   4.098  17.159  0.00  0.00    +0.000 OA
ATOM     10  C   UNL     1       4.071   4.403  17.756  0.00  0.00    +0.000 C 
ATOM     11  N   UNL     1       4.082   4.912  19.037  0.00  0.00    +0.000 N 
ATOM     12  H   UNL     1       4.950   4.848  19.566  0.00  0.00    +0.000 HD
BRANCH  10  13
ATOM     13  C   UNL     1       5.459   4.171  17.158  0.00  0.00    +0.000 C 
BRANCH  13  14
ATOM     14  N   UNL     1       6.304   5.335  17.402  0.00  0.00    +0.000 N 
ATOM     15  C   UNL     1       7.202   5.327  18.448  0.00  0.00    +0.000 A 
ATOM     16  C   UNL     1       7.950   6.391  18.742  0.00  0.00    +0.000 A 
ATOM     17  C   UNL     1       7.801   7.607  17.926  0.00  0.00    +0.000 A 
ATOM     18  O   UNL     1       8.425   8.630  18.189  0.00  0.00    +0.000 OA
ATOM     19  N   UNL     1       6.922   7.522  16.886  0.00  0.00    +0.000 N 
ATOM     20  C   UNL     1       6.111   6.456  16.605  0.00  0.00    +0.000 A 
ATOM     21  O   UNL     1       5.270   6.517  15.712  0.00  0.00    +0.000 OA
ATOM     22  H   UNL     1       6.794   8.351  16.325  0.00  0.00    +0.000 HD
ENDBRANCH  13  14
ENDBRANCH  10  13
ENDBRANCH   8  11
ENDBRANCH   7   8
ENDBRANCH   5   7
ENDBRANCH   4   5
ENDBRANCH   3   4
ENDBRANCH   1   3
BRANCH   1  23
ATOM     23  C   UNL     1      -0.057  11.154  18.848  0.00  0.00    +0.000 C 
BRANCH  23  24
ATOM     24  C   UNL     1       0.405  12.666  18.754  0.00  0.00    +0.000 A 
ATOM     25  C   UNL     1       1.770  13.008  18.778  0.00  0.00    +0.000 A 
ATOM     26  C   UNL     1       2.189  14.344  18.834  0.00  0.00    +0.000 A 
ATOM     27  C   UNL     1       1.252  15.374  18.885  0.00  0.00    +0.000 A 
ATOM     28  C   UNL     1      -0.102  15.072  18.884  0.00  0.00    +0.000 A 
ATOM     29  C   UNL     1      -0.517  13.737  18.830  0.00  0.00    +0.000 A 
ENDBRANCH  23  24
BRANCH  23  30
ATOM     30  C   UNL     1      -1.481  10.953  18.199  0.00  0.00    +0.000 A 
ATOM     31  C   UNL     1      -2.623  11.666  18.628  0.00  0.00    +0.000 A 
ATOM     32  C   UNL     1      -3.871  11.493  18.016  0.00  0.00    +0.000 A 
ATOM     33  C   UNL     1      -4.015  10.592  16.970  0.00  0.00    +0.000 A 
ATOM     34  C   UNL     1      -2.915   9.858  16.538  0.00  0.00    +0.000 A 
ATOM     35  C   UNL     1      -1.664  10.038  17.141  0.00  0.00    +0.000 A 
ENDBRANCH  23  30
BRANCH  23  36
ATOM     36  C   UNL     1      -0.144  10.590  20.324  0.00  0.00    +0.000 A 
ATOM     37  C   UNL     1      -0.280   9.211  20.588  0.00  0.00    +0.000 A 
ATOM     38  C   UNL     1      -0.532   8.734  21.879  0.00  0.00    +0.000 A 
ATOM     39  C   UNL     1      -0.590   9.616  22.952  0.00  0.00    +0.000 A 
ATOM     40  C   UNL     1      -0.355  10.969  22.742  0.00  0.00    +0.000 A 
ATOM     41  C   UNL     1      -0.108  11.445  21.450  0.00  0.00    +0.000 A 
ENDBRANCH  23  36
ENDBRANCH   1  23
TORSDOF 12
ENDMDL
MODEL 3
REMARK VINA RESULT:      -8.2      1.166      1.857
REMARK  Name = 
REMARK  12 active torsions:
REMARK  status: ('A' for Active; 'I' for Inactive)
REMARK    1  A    between atoms: C_2  and  C_3
REMARK    2  A    between atoms: C_3  and  N_4
REMARK    3  A    between atoms: N_12  and  C_13
REMARK    4  A    between atoms: C_13  and  C_14
REMARK    5  A    between atoms: C_14  and  N_15
REMARK    6  A    between atoms: N_15  and  C_16
REMARK    7  A    between atoms: C_16  and  C_17
REMARK    8  A    between atoms: C_17  and  N_18
REMARK    9  A    between atoms: N_18  and  C_19
REMARK   10  A    between atoms: C_19  and  C_20
REMARK   11  A    between atoms: C_19  and  C_26
REMARK   12  A    between atoms: C_19  and  C_32
REMARK                            x       y       z     vdW  Elec       q    Type
REMARK                         _______ _______ _______ _____ _____    ______ ____
ROOT
ATOM      1  N   UNL     1       0.420  10.062  17.997  0.00  0.00    +0.000 NA
ATOM      2  H   UNL     1      -0.196   9.298  17.745  0.00  0.00    +0.000 HD
ENDROOT
BRANCH   1   3
ATOM      3  C   UNL     1       1.570   9.521  18.728  0.00  0.00    +0.000 C 
BRANCH   3   4
ATOM      4  C   UNL     1       1.990   8.122  18.240  0.00  0.00    +0.000 C 
BRANCH   4   5
ATOM      5  N   UNL     1       2.841   7.421  19.215  0.00  0.00    +0.000 NA
ATOM      6  H   UNL     1       3.399   6.725  18.718  0.00  0.00    +0.000 HD
BRANCH   5   7
ATOM      7  C   UNL     1       2.068   6.751  20.270  0.00  0.00    +0.000 C 
BRANCH   7   8
ATOM      8  C   UNL     1       2.094   5.226  20.093  0.00  0.00    +0.000 C 
BRANCH   8  11
ATOM      9  O   UNL     1       3.227   4.835  17.533  0.00  0.00    +0.000 OA
ATOM     10  C   UNL     1       3.901   4.584  18.529  0.00  0.00    +0.000 C 
ATOM     11  N   UNL     1       3.429   4.723  19.817  0.00  0.00    +0.000 N 
ATOM     12  H   UNL     1       3.913   4.217  20.557  0.00  0.00    +0.000 HD
BRANCH  10  13
ATOM     13  C   UNL     1       5.316   4.013  18.434  0.00  0.00    +0.000 C 
BRANCH  13  14
ATOM     14  N   UNL     1       5.928   4.416  17.173  0.00  0.00    +0.000 N 
ATOM     15  C   UNL     1       5.671   3.699  16.023  0.00  0.00    +0.000 A 
ATOM     16  C   UNL     1       6.255   3.997  14.862  0.00  0.00    +0.000 A 
ATOM     17  C   UNL     1       7.207   5.118  14.816  0.00  0.00    +0.000 A 
ATOM     18  O   UNL     1       7.813   5.398  13.787  0.00  0.00    +0.000 OA
ATOM     19  N   UNL     1       7.378   5.802  15.986  0.00  0.00    +0.000 N 
ATOM     20  C   UNL     1       6.825   5.476  17.194  0.00  0.00    +0.000 A 
ATOM     21  O   UNL     1       7.127   6.087  18.216  0.00  0.00    +0.000 OA
ATOM     22  H   UNL     1       8.039   6.564  15.980  0.00  0.00    +0.000 HD
ENDBRANCH  13  14
ENDBRANCH  10  13
ENDBRANCH   8  11
ENDBRANCH   7   8
ENDBRANCH   5   7
ENDBRANCH   4   5
ENDBRANCH   3   4
ENDBRANCH   1   3
BRANCH   1  23
ATOM     23  C   UNL     1      -0.394  11.066  18.779  0.00  0.00    +0.000 C 
BRANCH  23  24
ATOM     24  C   UNL     1      -1.846  11.004  18.149  0.00  0.00    +0.000 A 
ATOM     25  C   UNL     1      -2.061  10.428  16.883  0.00  0.00    +0.000 A 
ATOM     26  C   UNL     1      -3.312  10.488  16.255  0.00  0.00    +0.000 A 
ATOM     27  C   UNL     1      -4.377  11.142  16.869  0.00  0.00    +0.000 A 
ATOM     28  C   UNL     1      -4.195  11.739  18.107  0.00  0.00    +0.000 A 
ATOM     29  C   UNL     1      -2.945  11.679  18.732  0.00  0.00    +0.000 A 
ENDBRANCH  23  24
BRANCH  23  30
ATOM     30  C   UNL     1      -0.413  10.631  20.295  0.00  0.00    +0.000 A 
ATOM     31  C   UNL     1      -0.398  11.563  21.357  0.00  0.00    +0.000 A 
ATOM     32  C   UNL     1      -0.446  11.154  22.695  0.00  0.00    +0.000 A 
ATOM     33  C   UNL     1      -0.495   9.802  23.010  0.00  0.00    +0.000 A 
ATOM     34  C   UNL     1      -0.489   8.858  21.988  0.00  0.00    +0.000 A 
ATOM     35  C   UNL     1      -0.452   9.265  20.649  0.00  0.00    +0.000 A 
ENDBRANCH  23  30
BRANCH  23  36
ATOM     36  C   UNL     1       0.281  12.497  18.722  0.00  0.00    +0.000 A 
ATOM     37  C   UNL     1       1.660  12.661  18.477  0.00  0.00    +0.000 A 
ATOM     38  C   UNL     1       2.281  13.908  18.602  0.00  0.00    +0.000 A 
ATOM     39  C   UNL     1       1.531  15.037  18.910  0.00  0.00    +0.000 A 
ATOM     40  C   UNL     1       0.154  14.927  19.053  0.00  0.00    +0.000 A 
ATOM     41  C   UNL     1      -0.466  13.679  18.933  0.00  0.00    +0.000 A 
ENDBRANCH  23  36
ENDBRANCH   1  23
TORSDOF 12
ENDMDL
MODEL 4
REMARK VINA RESULT:      -8.2      2.016      4.281
REMARK  Name = 
REMARK  12 active torsions:
REMARK  status: ('A' for Active; 'I' for Inactive)
REMARK    1  A    between atoms: C_2  and  C_3
REMARK    2  A    between atoms: C_3  and  N_4
REMARK    3  A    between atoms: N_12  and  C_13
REMARK    4  A    between atoms: C_13  and  C_14
REMARK    5  A    between atoms: C_14  and  N_15
REMARK    6  A    between atoms: N_15  and  C_16
REMARK    7  A    between atoms: C_16  and  C_17
REMARK    8  A    between atoms: C_17  and  N_18
REMARK    9  A    between atoms: N_18  and  C_19
REMARK   10  A    between atoms: C_19  and  C_20
REMARK   11  A    between atoms: C_19  and  C_26
REMARK   12  A    between atoms: C_19  and  C_32
REMARK                            x       y       z     vdW  Elec       q    Type
REMARK                         _______ _______ _______ _____ _____    ______ ____
ROOT
ATOM      1  N   UNL     1      -0.148  10.621  21.360  0.00  0.00    +0.000 NA
ATOM      2  H   UNL     1       0.177  10.987  22.248  0.00  0.00    +0.000 HD
ENDROOT
BRANCH   1   3
ATOM      3  C   UNL     1       0.937   9.855  20.740  0.00  0.00    +0.000 C 
BRANCH   3   4
ATOM      4  C   UNL     1       1.289   8.572  21.514  0.00  0.00    +0.000 C 
BRANCH   4   5
ATOM      5  N   UNL     1       1.950   7.568  20.665  0.00  0.00    +0.000 NA
ATOM      6  H   UNL     1       1.900   7.880  19.694  0.00  0.00    +0.000 HD
BRANCH   5   7
ATOM      7  C   UNL     1       1.336   6.236  20.772  0.00  0.00    +0.000 C 
BRANCH   7   8
ATOM      8  C   UNL     1       2.310   5.139  20.321  0.00  0.00    +0.000 C 
BRANCH   8  11
ATOM      9  O   UNL     1       4.418   3.678  19.134  0.00  0.00    +0.000 OA
ATOM     10  C   UNL     1       4.558   4.884  19.319  0.00  0.00    +0.000 C 
ATOM     11  N   UNL     1       3.597   5.675  19.910  0.00  0.00    +0.000 N 
ATOM     12  H   UNL     1       3.892   6.567  20.304  0.00  0.00    +0.000 HD
BRANCH  10  13
ATOM     13  C   UNL     1       5.857   5.615  18.981  0.00  0.00    +0.000 C 
BRANCH  13  14
ATOM     14  N   UNL     1       6.184   5.419  17.573  0.00  0.00    +0.000 N 
ATOM     15  C   UNL     1       5.306   5.844  16.598  0.00  0.00    +0.000 A 
ATOM     16  C   UNL     1       5.537   5.632  15.302  0.00  0.00    +0.000 A 
ATOM     17  C   UNL     1       6.762   4.917  14.910  0.00  0.00    +0.000 A 
ATOM     18  O   UNL     1       6.995   4.648  13.736  0.00  0.00    +0.000 OA
ATOM     19  N   UNL     1       7.598   4.564  15.930  0.00  0.00    +0.000 N 
ATOM     20  C   UNL     1       7.348   4.729  17.265  0.00  0.00    +0.000 A 
ATOM     21  O   UNL     1       8.114   4.277  18.114  0.00  0.00    +0.000 OA
ATOM     22  H   UNL     1       8.435   4.059  15.683  0.00  0.00    +0.000 HD
ENDBRANCH  13  14
ENDBRANCH  10  13
ENDBRANCH   8  11
ENDBRANCH   7   8
ENDBRANCH   5   7
ENDBRANCH   4   5
ENDBRANCH   3   4
ENDBRANCH   1   3
BRANCH   1  23
ATOM     23  C   UNL     1      -0.631  11.791  20.535  0.00  0.00    +0.000 C 
BRANCH  23  24
ATOM     24  C   UNL     1      -1.513  12.661  21.523  0.00  0.00    +0.000 A 
ATOM     25  C   UNL     1      -1.545  14.064  21.417  0.00  0.00    +0.000 A 
ATOM     26  C   UNL     1      -2.209  14.854  22.365  0.00  0.00    +0.000 A 
ATOM     27  C   UNL     1      -2.843  14.261  23.454  0.00  0.00    +0.000 A 
ATOM     28  C   UNL     1      -2.813  12.882  23.600  0.00  0.00    +0.000 A 
ATOM     29  C   UNL     1      -2.148  12.096  22.654  0.00  0.00    +0.000 A 
ENDBRANCH  23  24
BRANCH  23  30
ATOM     30  C   UNL     1       0.622  12.604  20.027  0.00  0.00    +0.000 A 
ATOM     31  C   UNL     1       1.680  12.989  20.881  0.00  0.00    +0.000 A 
ATOM     32  C   UNL     1       2.797  13.684  20.402  0.00  0.00    +0.000 A 
ATOM     33  C   UNL     1       2.881  14.027  19.059  0.00  0.00    +0.000 A 
ATOM     34  C   UNL     1       1.847  13.681  18.195  0.00  0.00    +0.000 A 
ATOM     35  C   UNL     1       0.734  12.976  18.671  0.00  0.00    +0.000 A 
ENDBRANCH  23  30
BRANCH  23  36
ATOM     36  C   UNL     1      -1.400  11.286  19.247  0.00  0.00    +0.000 A 
ATOM     37  C   UNL     1      -2.684  11.762  18.912  0.00  0.00    +0.000 A 
ATOM     38  C   UNL     1      -3.431  11.188  17.877  0.00  0.00    +0.000 A 
ATOM     39  C   UNL     1      -2.889  10.166  17.107  0.00  0.00    +0.000 A 
ATOM     40  C   UNL     1      -1.586   9.746  17.343  0.00  0.00    +0.000 A 
ATOM     41  C   UNL     1      -0.843  10.317  18.381  0.00  0.00    +0.000 A 
ENDBRANCH  23  36
ENDBRANCH   1  23
TORSDOF 12
ENDMDL
MODEL 5
REMARK VINA RESULT:      -8.1      1.384      2.339
REMARK  Name = 
REMARK  12 active torsions:
REMARK  status: ('A' for Active; 'I' for Inactive)
REMARK    1  A    between atoms: C_2  and  C_3
REMARK    2  A    between atoms: C_3  and  N_4
REMARK    3  A    between atoms: N_12  and  C_13
REMARK    4  A    between atoms: C_13  and  C_14
REMARK    5  A    between atoms: C_14  and  N_15
REMARK    6  A    between atoms: N_15  and  C_16
REMARK    7  A    between atoms: C_16  and  C_17
REMARK    8  A    between atoms: C_17  and  N_18
REMARK    9  A    between atoms: N_18  and  C_19
REMARK   10  A    between atoms: C_19  and  C_20
REMARK   11  A    between atoms: C_19  and  C_26
REMARK   12  A    between atoms: C_19  and  C_32
REMARK                            x       y       z     vdW  Elec       q    Type
REMARK                         _______ _______ _______ _____ _____    ______ ____
ROOT
ATOM      1  N   UNL     1      -0.047  10.650  18.273  0.00  0.00    +0.000 NA
ATOM      2  H   UNL     1      -0.087   9.703  18.632  0.00  0.00    +0.000 HD
ENDROOT
BRANCH   1   3
ATOM      3  C   UNL     1       1.351  10.984  17.979  0.00  0.00    +0.000 C 
BRANCH   3   4
ATOM      4  C   UNL     1       2.340   9.900  18.445  0.00  0.00    +0.000 C 
BRANCH   4   5
ATOM      5  N   UNL     1       2.430   8.778  17.497  0.00  0.00    +0.000 NA
ATOM      6  H   UNL     1       1.948   9.041  16.636  0.00  0.00    +0.000 HD
BRANCH   5   7
ATOM      7  C   UNL     1       1.834   7.540  18.019  0.00  0.00    +0.000 C 
BRANCH   7   8
ATOM      8  C   UNL     1       2.470   7.142  19.359  0.00  0.00    +0.000 C 
BRANCH   8  11
ATOM      9  O   UNL     1       2.063   4.420  20.000  0.00  0.00    +0.000 OA
ATOM     10  C   UNL     1       3.146   4.769  19.538  0.00  0.00    +0.000 C 
ATOM     11  N   UNL     1       3.445   6.075  19.214  0.00  0.00    +0.000 N 
ATOM     12  H   UNL     1       4.428   6.332  19.136  0.00  0.00    +0.000 HD
BRANCH  10  13
ATOM     13  C   UNL     1       4.306   3.791  19.348  0.00  0.00    +0.000 C 
BRANCH  13  14
ATOM     14  N   UNL     1       5.153   4.236  18.248  0.00  0.00    +0.000 N 
ATOM     15  C   UNL     1       4.844   3.878  16.952  0.00  0.00    +0.000 A 
ATOM     16  C   UNL     1       5.623   4.214  15.924  0.00  0.00    +0.000 A 
ATOM     17  C   UNL     1       6.851   4.981  16.188  0.00  0.00    +0.000 A 
ATOM     18  O   UNL     1       7.630   5.267  15.284  0.00  0.00    +0.000 OA
ATOM     19  N   UNL     1       7.067   5.330  17.490  0.00  0.00    +0.000 N 
ATOM     20  C   UNL     1       6.303   4.949  18.559  0.00  0.00    +0.000 A 
ATOM     21  O   UNL     1       6.641   5.222  19.709  0.00  0.00    +0.000 OA
ATOM     22  H   UNL     1       7.911   5.843  17.694  0.00  0.00    +0.000 HD
ENDBRANCH  13  14
ENDBRANCH  10  13
ENDBRANCH   8  11
ENDBRANCH   7   8
ENDBRANCH   5   7
ENDBRANCH   4   5
ENDBRANCH   3   4
ENDBRANCH   1   3
BRANCH   1  23
ATOM     23  C   UNL     1      -0.698  11.553  19.293  0.00  0.00    +0.000 C 
BRANCH  23  24
ATOM     24  C   UNL     1      -2.190  11.737  18.794  0.00  0.00    +0.000 A 
ATOM     25  C   UNL     1      -3.182  12.245  19.653  0.00  0.00    +0.000 A 
ATOM     26  C   UNL     1      -4.530  12.285  19.272  0.00  0.00    +0.000 A 
ATOM     27  C   UNL     1      -4.923  11.801  18.026  0.00  0.00    +0.000 A 
ATOM     28  C   UNL     1      -3.974  11.275  17.162  0.00  0.00    +0.000 A 
ATOM     29  C   UNL     1      -2.630  11.234  17.546  0.00  0.00    +0.000 A 
ENDBRANCH  23  24
BRANCH  23  30
ATOM     30  C   UNL     1      -0.654  10.841  20.700  0.00  0.00    +0.000 A 
ATOM     31  C   UNL     1      -1.021  11.494  21.898  0.00  0.00    +0.000 A 
ATOM     32  C   UNL     1      -1.003  10.832  23.132  0.00  0.00    +0.000 A 
ATOM     33  C   UNL     1      -0.602   9.505  23.206  0.00  0.00    +0.000 A 
ATOM     34  C   UNL     1      -0.214   8.839  22.047  0.00  0.00    +0.000 A 
ATOM     35  C   UNL     1      -0.242   9.496  20.811  0.00  0.00    +0.000 A 
ENDBRANCH  23  30
BRANCH  23  36
ATOM     36  C   UNL     1       0.112  12.905  19.440  0.00  0.00    +0.000 A 
ATOM     37  C   UNL     1      -0.225  14.058  18.702  0.00  0.00    +0.000 A 
ATOM     38  C   UNL     1       0.595  15.192  18.702  0.00  0.00    +0.000 A 
ATOM     39  C   UNL     1       1.739  15.228  19.489  0.00  0.00    +0.000 A 
ATOM     40  C   UNL     1       2.043  14.149  20.310  0.00  0.00    +0.000 A 
ATOM     41  C   UNL     1       1.225  13.014  20.305  0.00  0.00    +0.000 A 
ENDBRANCH  23  36
ENDBRANCH   1  23
TORSDOF 12
ENDMDL
MODEL 6
REMARK VINA RESULT:      -8.0      0.921      3.725
REMARK  Name = 
REMARK  12 active torsions:
REMARK  status: ('A' for Active; 'I' for Inactive)
REMARK    1  A    between atoms: C_2  and  C_3
REMARK    2  A    between atoms: C_3  and  N_4
REMARK    3  A    between atoms: N_12  and  C_13
REMARK    4  A    between atoms: C_13  and  C_14
REMARK    5  A    between atoms: C_14  and  N_15
REMARK    6  A    between atoms: N_15  and  C_16
REMARK    7  A    between atoms: C_16  and  C_17
REMARK    8  A    between atoms: C_17  and  N_18
REMARK    9  A    between atoms: N_18  and  C_19
REMARK   10  A    between atoms: C_19  and  C_20
REMARK   11  A    between atoms: C_19  and  C_26
REMARK   12  A    between atoms: C_19  and  C_32
REMARK                            x       y       z     vdW  Elec       q    Type
REMARK                         _______ _______ _______ _____ _____    ______ ____
ROOT
ATOM      1  N   UNL     1       1.248  10.784  18.233  0.00  0.00    +0.000 NA
ATOM      2  H   UNL     1       1.404  11.286  17.366  0.00  0.00    +0.000 HD
ENDROOT
BRANCH   1   3
ATOM      3  C   UNL     1       1.111   9.356  17.933  0.00  0.00    +0.000 C 
BRANCH   3   4
ATOM      4  C   UNL     1       2.463   8.626  17.843  0.00  0.00    +0.000 C 
BRANCH   4   5
ATOM      5  N   UNL     1       2.325   7.169  17.995  0.00  0.00    +0.000 NA
ATOM      6  H   UNL     1       1.439   6.881  17.577  0.00  0.00    +0.000 HD
BRANCH   5   7
ATOM      7  C   UNL     1       2.355   6.736  19.400  0.00  0.00    +0.000 C 
BRANCH   7   8
ATOM      8  C   UNL     1       2.837   5.284  19.521  0.00  0.00    +0.000 C 
BRANCH   8  11
ATOM      9  O   UNL     1       3.032   3.703  17.186  0.00  0.00    +0.000 OA
ATOM     10  C   UNL     1       4.038   4.262  17.615  0.00  0.00    +0.000 C 
ATOM     11  N   UNL     1       4.047   5.035  18.756  0.00  0.00    +0.000 N 
ATOM     12  H   UNL     1       4.944   5.201  19.210  0.00  0.00    +0.000 HD
BRANCH  10  13
ATOM     13  C   UNL     1       5.409   4.088  16.961  0.00  0.00    +0.000 C 
BRANCH  13  14
ATOM     14  N   UNL     1       6.260   5.228  17.285  0.00  0.00    +0.000 N 
ATOM     15  C   UNL     1       7.073   5.185  18.398  0.00  0.00    +0.000 A 
ATOM     16  C   UNL     1       7.822   6.226  18.763  0.00  0.00    +0.000 A 
ATOM     17  C   UNL     1       7.767   7.455  17.955  0.00  0.00    +0.000 A 
ATOM     18  O   UNL     1       8.393   8.459  18.279  0.00  0.00    +0.000 OA
ATOM     19  N   UNL     1       6.970   7.404  16.848  0.00  0.00    +0.000 N 
ATOM     20  C   UNL     1       6.158   6.362  16.491  0.00  0.00    +0.000 A 
ATOM     21  O   UNL     1       5.391   6.455  15.536  0.00  0.00    +0.000 OA
ATOM     22  H   UNL     1       6.906   8.242  16.290  0.00  0.00    +0.000 HD
ENDBRANCH  13  14
ENDBRANCH  10  13
ENDBRANCH   8  11
ENDBRANCH   7   8
ENDBRANCH   5   7
ENDBRANCH   4   5
ENDBRANCH   3   4
ENDBRANCH   1   3
BRANCH   1  23
ATOM     23  C   UNL     1       0.039  11.396  18.901  0.00  0.00    +0.000 C 
BRANCH  23  24
ATOM     24  C   UNL     1       0.287  12.960  18.860  0.00  0.00    +0.000 A 
ATOM     25  C   UNL     1       1.577  13.481  18.643  0.00  0.00    +0.000 A 
ATOM     26  C   UNL     1       1.836  14.855  18.740  0.00  0.00    +0.000 A 
ATOM     27  C   UNL     1       0.816  15.742  19.075  0.00  0.00    +0.000 A 
ATOM     28  C   UNL     1      -0.462  15.260  19.316  0.00  0.00    +0.000 A 
ATOM     29  C   UNL     1      -0.718  13.888  19.220  0.00  0.00    +0.000 A 
ENDBRANCH  23  24
BRANCH  23  30
ATOM     30  C   UNL     1      -1.248  11.004  18.077  0.00  0.00    +0.000 A 
ATOM     31  C   UNL     1      -1.642  11.688  16.905  0.00  0.00    +0.000 A 
ATOM     32  C   UNL     1      -2.772  11.303  16.173  0.00  0.00    +0.000 A 
ATOM     33  C   UNL     1      -3.547  10.233  16.599  0.00  0.00    +0.000 A 
ATOM     34  C   UNL     1      -3.198   9.551  17.760  0.00  0.00    +0.000 A 
ATOM     35  C   UNL     1      -2.063   9.928  18.488  0.00  0.00    +0.000 A 
ENDBRANCH  23  30
BRANCH  23  36
ATOM     36  C   UNL     1      -0.153  10.804  20.357  0.00  0.00    +0.000 A 
ATOM     37  C   UNL     1      -0.946  11.453  21.326  0.00  0.00    +0.000 A 
ATOM     38  C   UNL     1      -0.972  11.023  22.657  0.00  0.00    +0.000 A 
ATOM     39  C   UNL     1      -0.258   9.895  23.042  0.00  0.00    +0.000 A 
ATOM     40  C   UNL     1       0.447   9.171  22.090  0.00  0.00    +0.000 A 
ATOM     41  C   UNL     1       0.477   9.605  20.760  0.00  0.00    +0.000 A 
ENDBRANCH  23  36
ENDBRANCH   1  23
TORSDOF 12
ENDMDL
MODEL 7
REMARK VINA RESULT:      -8.0      1.377      2.111
REMARK  Name = 
REMARK  12 active torsions:
REMARK  status: ('A' for Active; 'I' for Inactive)
REMARK    1  A    between atoms: C_2  and  C_3
REMARK    2  A    between atoms: C_3  and  N_4
REMARK    3  A    between atoms: N_12  and  C_13
REMARK    4  A    between atoms: C_13  and  C_14
REMARK    5  A    between atoms: C_14  and  N_15
REMARK    6  A    between atoms: N_15  and  C_16
REMARK    7  A    between atoms: C_16  and  C_17
REMARK    8  A    between atoms: C_17  and  N_18
REMARK    9  A    between atoms: N_18  and  C_19
REMARK   10  A    between atoms: C_19  and  C_20
REMARK   11  A    between atoms: C_19  and  C_26
REMARK   12  A    between atoms: C_19  and  C_32
REMARK                            x       y       z     vdW  Elec       q    Type
REMARK                         _______ _______ _______ _____ _____    ______ ____
ROOT
ATOM      1  N   UNL     1      -0.268  10.041  20.676  0.00  0.00    +0.000 NA
ATOM      2  H   UNL     1      -0.098  10.143  21.670  0.00  0.00    +0.000 HD
ENDROOT
BRANCH   1   3
ATOM      3  C   UNL     1       0.908   9.423  20.056  0.00  0.00    +0.000 C 
BRANCH   3   4
ATOM      4  C   UNL     1       1.325   8.105  20.734  0.00  0.00    +0.000 C 
BRANCH   4   5
ATOM      5  N   UNL     1       2.524   7.514  20.120  0.00  0.00    +0.000 NA
ATOM      6  H   UNL     1       2.724   8.012  19.252  0.00  0.00    +0.000 HD
BRANCH   5   7
ATOM      7  C   UNL     1       2.367   6.082  19.824  0.00  0.00    +0.000 C 
BRANCH   7   8
ATOM      8  C   UNL     1       2.175   5.845  18.320  0.00  0.00    +0.000 C 
BRANCH   8  11
ATOM      9  O   UNL     1       2.814   3.264  17.363  0.00  0.00    +0.000 OA
ATOM     10  C   UNL     1       3.622   4.175  17.207  0.00  0.00    +0.000 C 
ATOM     11  N   UNL     1       3.409   5.461  17.657  0.00  0.00    +0.000 N 
ATOM     12  H   UNL     1       4.222   6.065  17.770  0.00  0.00    +0.000 HD
BRANCH  10  13
ATOM     13  C   UNL     1       4.990   3.951  16.562  0.00  0.00    +0.000 C 
BRANCH  13  14
ATOM     14  N   UNL     1       5.935   4.951  17.047  0.00  0.00    +0.000 N 
ATOM     15  C   UNL     1       6.616   4.738  18.228  0.00  0.00    +0.000 A 
ATOM     16  C   UNL     1       7.443   5.651  18.736  0.00  0.00    +0.000 A 
ATOM     17  C   UNL     1       7.625   6.922  18.017  0.00  0.00    +0.000 A 
ATOM     18  O   UNL     1       8.332   7.816  18.470  0.00  0.00    +0.000 OA
ATOM     19  N   UNL     1       6.948   7.039  16.837  0.00  0.00    +0.000 N 
ATOM     20  C   UNL     1       6.057   6.133  16.330  0.00  0.00    +0.000 A 
ATOM     21  O   UNL     1       5.411   6.380  15.313  0.00  0.00    +0.000 OA
ATOM     22  H   UNL     1       7.047   7.909  16.336  0.00  0.00    +0.000 HD
ENDBRANCH  13  14
ENDBRANCH  10  13
ENDBRANCH   8  11
ENDBRANCH   7   8
ENDBRANCH   5   7
ENDBRANCH   4   5
ENDBRANCH   3   4
ENDBRANCH   1   3
BRANCH   1  23
ATOM     23  C   UNL     1      -0.610  11.408  20.130  0.00  0.00    +0.000 C 
BRANCH  23  24
ATOM     24  C   UNL     1      -1.547  11.135  18.882  0.00  0.00    +0.000 A 
ATOM     25  C   UNL     1      -2.828  11.711  18.801  0.00  0.00    +0.000 A 
ATOM     26  C   UNL     1      -3.719  11.371  17.774  0.00  0.00    +0.000 A 
ATOM     27  C   UNL     1      -3.358  10.432  16.810  0.00  0.00    +0.000 A 
ATOM     28  C   UNL     1      -2.110   9.830  16.872  0.00  0.00    +0.000 A 
ATOM     29  C   UNL     1      -1.223  10.169  17.899  0.00  0.00    +0.000 A 
ENDBRANCH  23  24
BRANCH  23  30
ATOM     30  C   UNL     1      -1.373  12.222  21.245  0.00  0.00    +0.000 A 
ATOM     31  C   UNL     1      -1.663  13.599  21.121  0.00  0.00    +0.000 A 
ATOM     32  C   UNL     1      -2.368  14.294  22.111  0.00  0.00    +0.000 A 
ATOM     33  C   UNL     1      -2.788  13.637  23.260  0.00  0.00    +0.000 A 
ATOM     34  C   UNL     1      -2.500  12.286  23.422  0.00  0.00    +0.000 A 
ATOM     35  C   UNL     1      -1.805  11.586  22.428  0.00  0.00    +0.000 A 
ENDBRANCH  23  30
BRANCH  23  36
ATOM     36  C   UNL     1       0.707  12.218  19.792  0.00  0.00    +0.000 A 
ATOM     37  C   UNL     1       1.607  12.629  20.797  0.00  0.00    +0.000 A 
ATOM     38  C   UNL     1       2.672  13.492  20.516  0.00  0.00    +0.000 A 
ATOM     39  C   UNL     1       2.906  13.915  19.213  0.00  0.00    +0.000 A 
ATOM     40  C   UNL     1       2.102  13.443  18.183  0.00  0.00    +0.000 A 
ATOM     41  C   UNL     1       1.034  12.585  18.466  0.00  0.00    +0.000 A 
ENDBRANCH  23  36
ENDBRANCH   1  23
TORSDOF 12
ENDMDL
MODEL 8
REMARK VINA RESULT:      -8.0      2.067      4.000
REMARK  Name = 
REMARK  12 active torsions:
REMARK  status: ('A' for Active; 'I' for Inactive)
REMARK    1  A    between atoms: C_2  and  C_3
REMARK    2  A    between atoms: C_3  and  N_4
REMARK    3  A    between atoms: N_12  and  C_13
REMARK    4  A    between atoms: C_13  and  C_14
REMARK    5  A    between atoms: C_14  and  N_15
REMARK    6  A    between atoms: N_15  and  C_16
REMARK    7  A    between atoms: C_16  and  C_17
REMARK    8  A    between atoms: C_17  and  N_18
REMARK    9  A    between atoms: N_18  and  C_19
REMARK   10  A    between atoms: C_19  and  C_20
REMARK   11  A    between atoms: C_19  and  C_26
REMARK   12  A    between atoms: C_19  and  C_32
REMARK                            x       y       z     vdW  Elec       q    Type
REMARK                         _______ _______ _______ _____ _____    ______ ____
ROOT
ATOM      1  N   UNL     1      -0.635  10.743  21.462  0.00  0.00    +0.000 NA
ATOM      2  H   UNL     1      -0.556  11.145  22.389  0.00  0.00    +0.000 HD
ENDROOT
BRANCH   1   3
ATOM      3  C   UNL     1       0.623  10.064  21.133  0.00  0.00    +0.000 C 
BRANCH   3   4
ATOM      4  C   UNL     1       0.538   8.534  21.280  0.00  0.00    +0.000 C 
BRANCH   4   5
ATOM      5  N   UNL     1       1.864   7.896  21.263  0.00  0.00    +0.000 NA
ATOM      6  H   UNL     1       2.577   8.627  21.249  0.00  0.00    +0.000 HD
BRANCH   5   7
ATOM      7  C   UNL     1       2.058   7.015  20.102  0.00  0.00    +0.000 C 
BRANCH   7   8
ATOM      8  C   UNL     1       1.873   5.541  20.488  0.00  0.00    +0.000 C 
BRANCH   8  11
ATOM      9  O   UNL     1       1.818   4.116  18.048  0.00  0.00    +0.000 OA
ATOM     10  C   UNL     1       2.821   4.052  18.754  0.00  0.00    +0.000 C 
ATOM     11  N   UNL     1       2.933   4.694  19.969  0.00  0.00    +0.000 N 
ATOM     12  H   UNL     1       3.638   4.355  20.622  0.00  0.00    +0.000 HD
BRANCH  10  13
ATOM     13  C   UNL     1       4.023   3.182  18.387  0.00  0.00    +0.000 C 
BRANCH  13  14
ATOM     14  N   UNL     1       4.956   3.948  17.569  0.00  0.00    +0.000 N 
ATOM     15  C   UNL     1       4.822   3.954  16.196  0.00  0.00    +0.000 A 
ATOM     16  C   UNL     1       5.688   4.592  15.408  0.00  0.00    +0.000 A 
ATOM     17  C   UNL     1       6.820   5.300  16.026  0.00  0.00    +0.000 A 
ATOM     18  O   UNL     1       7.674   5.855  15.343  0.00  0.00    +0.000 OA
ATOM     19  N   UNL     1       6.861   5.279  17.390  0.00  0.00    +0.000 N 
ATOM     20  C   UNL     1       6.010   4.587  18.208  0.00  0.00    +0.000 A 
ATOM     21  O   UNL     1       6.195   4.540  19.422  0.00  0.00    +0.000 OA
ATOM     22  H   UNL     1       7.639   5.745  17.833  0.00  0.00    +0.000 HD
ENDBRANCH  13  14
ENDBRANCH  10  13
ENDBRANCH   8  11
ENDBRANCH   7   8
ENDBRANCH   5   7
ENDBRANCH   4   5
ENDBRANCH   3   4
ENDBRANCH   1   3
BRANCH   1  23
ATOM     23  C   UNL     1      -1.004  11.858  20.512  0.00  0.00    +0.000 C 
BRANCH  23  24
ATOM     24  C   UNL     1      -1.910  12.844  21.359  0.00  0.00    +0.000 A 
ATOM     25  C   UNL     1      -2.620  12.385  22.484  0.00  0.00    +0.000 A 
ATOM     26  C   UNL     1      -3.531  13.208  23.160  0.00  0.00    +0.000 A 
ATOM     27  C   UNL     1      -3.768  14.507  22.717  0.00  0.00    +0.000 A 
ATOM     28  C   UNL     1      -3.101  14.984  21.599  0.00  0.00    +0.000 A 
ATOM     29  C   UNL     1      -2.194  14.160  20.925  0.00  0.00    +0.000 A 
ENDBRANCH  23  24
BRANCH  23  30
ATOM     30  C   UNL     1       0.319  12.573  20.033  0.00  0.00    +0.000 A 
ATOM     31  C   UNL     1       0.705  12.635  18.675  0.00  0.00    +0.000 A 
ATOM     32  C   UNL     1       1.868  13.301  18.271  0.00  0.00    +0.000 A 
ATOM     33  C   UNL     1       2.686  13.911  19.213  0.00  0.00    +0.000 A 
ATOM     34  C   UNL     1       2.345  13.850  20.560  0.00  0.00    +0.000 A 
ATOM     35  C   UNL     1       1.176  13.194  20.966  0.00  0.00    +0.000 A 
ENDBRANCH  23  30
BRANCH  23  36
ATOM     36  C   UNL     1      -1.705  11.279  19.217  0.00  0.00    +0.000 A 
ATOM     37  C   UNL     1      -1.124  10.243  18.456  0.00  0.00    +0.000 A 
ATOM     38  C   UNL     1      -1.656   9.855  17.221  0.00  0.00    +0.000 A 
ATOM     39  C   UNL     1      -2.819  10.447  16.743  0.00  0.00    +0.000 A 
ATOM     40  C   UNL     1      -3.475  11.395  17.518  0.00  0.00    +0.000 A 
ATOM     41  C   UNL     1      -2.939  11.785  18.750  0.00  0.00    +0.000 A 
ENDBRANCH  23  36
ENDBRANCH   1  23
TORSDOF 12
ENDMDL
MODEL 9
REMARK VINA RESULT:      -8.0      1.360      4.184
REMARK  Name = 
REMARK  12 active torsions:
REMARK  status: ('A' for Active; 'I' for Inactive)
REMARK    1  A    between atoms: C_2  and  C_3
REMARK    2  A    between atoms: C_3  and  N_4
REMARK    3  A    between atoms: N_12  and  C_13
REMARK    4  A    between atoms: C_13  and  C_14
REMARK    5  A    between atoms: C_14  and  N_15
REMARK    6  A    between atoms: N_15  and  C_16
REMARK    7  A    between atoms: C_16  and  C_17
REMARK    8  A    between atoms: C_17  and  N_18
REMARK    9  A    between atoms: N_18  and  C_19
REMARK   10  A    between atoms: C_19  and  C_20
REMARK   11  A    between atoms: C_19  and  C_26
REMARK   12  A    between atoms: C_19  and  C_32
REMARK                            x       y       z     vdW  Elec       q    Type
REMARK                         _______ _______ _______ _____ _____    ______ ____
ROOT
ATOM      1  N   UNL     1       0.823   9.568  18.539  0.00  0.00    +0.000 NA
ATOM      2  H   UNL     1       0.236   8.858  18.116  0.00  0.00    +0.000 HD
ENDROOT
BRANCH   1   3
ATOM      3  C   UNL     1       1.661   8.938  19.564  0.00  0.00    +0.000 C 
BRANCH   3   4
ATOM      4  C   UNL     1       2.239   7.581  19.120  0.00  0.00    +0.000 C 
BRANCH   4   5
ATOM      5  N   UNL     1       2.602   6.726  20.262  0.00  0.00    +0.000 NA
ATOM      6  H   UNL     1       3.612   6.580  20.251  0.00  0.00    +0.000 HD
BRANCH   5   7
ATOM      7  C   UNL     1       1.929   5.419  20.233  0.00  0.00    +0.000 C 
BRANCH   7   8
ATOM      8  C   UNL     1       2.674   4.434  19.322  0.00  0.00    +0.000 C 
BRANCH   8  11
ATOM      9  O   UNL     1       5.212   3.221  19.597  0.00  0.00    +0.000 OA
ATOM     10  C   UNL     1       5.124   4.292  19.004  0.00  0.00    +0.000 C 
ATOM     11  N   UNL     1       3.935   4.970  18.838  0.00  0.00    +0.000 N 
ATOM     12  H   UNL     1       3.981   5.965  18.623  0.00  0.00    +0.000 HD
BRANCH  10  13
ATOM     13  C   UNL     1       6.349   5.025  18.457  0.00  0.00    +0.000 C 
BRANCH  13  14
ATOM     14  N   UNL     1       6.413   4.868  17.008  0.00  0.00    +0.000 N 
ATOM     15  C   UNL     1       5.810   3.783  16.406  0.00  0.00    +0.000 A 
ATOM     16  C   UNL     1       5.895   3.570  15.093  0.00  0.00    +0.000 A 
ATOM     17  C   UNL     1       6.661   4.519  14.270  0.00  0.00    +0.000 A 
ATOM     18  O   UNL     1       6.815   4.338  13.067  0.00  0.00    +0.000 OA
ATOM     19  N   UNL     1       7.193   5.587  14.933  0.00  0.00    +0.000 N 
ATOM     20  C   UNL     1       7.158   5.790  16.286  0.00  0.00    +0.000 A 
ATOM     21  O   UNL     1       7.764   6.726  16.803  0.00  0.00    +0.000 OA
ATOM     22  H   UNL     1       7.736   6.241  14.389  0.00  0.00    +0.000 HD
ENDBRANCH  13  14
ENDBRANCH  10  13
ENDBRANCH   8  11
ENDBRANCH   7   8
ENDBRANCH   5   7
ENDBRANCH   4   5
ENDBRANCH   3   4
ENDBRANCH   1   3
BRANCH   1  23
ATOM     23  C   UNL     1      -0.084  10.655  19.064  0.00  0.00    +0.000 C 
BRANCH  23  24
ATOM     24  C   UNL     1      -0.226  10.366  20.616  0.00  0.00    +0.000 A 
ATOM     25  C   UNL     1      -0.352   9.049  21.096  0.00  0.00    +0.000 A 
ATOM     26  C   UNL     1      -0.615   8.785  22.447  0.00  0.00    +0.000 A 
ATOM     27  C   UNL     1      -0.778   9.833  23.350  0.00  0.00    +0.000 A 
ATOM     28  C   UNL     1      -0.681  11.144  22.906  0.00  0.00    +0.000 A 
ATOM     29  C   UNL     1      -0.420  11.405  21.557  0.00  0.00    +0.000 A 
ENDBRANCH  23  24
BRANCH  23  30
ATOM     30  C   UNL     1       0.600  12.053  18.808  0.00  0.00    +0.000 A 
ATOM     31  C   UNL     1       1.973  12.187  18.504  0.00  0.00    +0.000 A 
ATOM     32  C   UNL     1       2.553  13.436  18.250  0.00  0.00    +0.000 A 
ATOM     33  C   UNL     1       1.779  14.588  18.309  0.00  0.00    +0.000 A 
ATOM     34  C   UNL     1       0.428  14.493  18.627  0.00  0.00    +0.000 A 
ATOM     35  C   UNL     1      -0.155  13.244  18.870  0.00  0.00    +0.000 A 
ENDBRANCH  23  30
BRANCH  23  36
ATOM     36  C   UNL     1      -1.456  10.666  18.275  0.00  0.00    +0.000 A 
ATOM     37  C   UNL     1      -1.601  10.030  17.025  0.00  0.00    +0.000 A 
ATOM     38  C   UNL     1      -2.757  10.189  16.253  0.00  0.00    +0.000 A 
ATOM     39  C   UNL     1      -3.825  10.936  16.737  0.00  0.00    +0.000 A 
ATOM     40  C   UNL     1      -3.756  11.488  18.009  0.00  0.00    +0.000 A 
ATOM     41  C   UNL     1      -2.598  11.332  18.779  0.00  0.00    +0.000 A 
ENDBRANCH  23  36
ENDBRANCH   1  23
TORSDOF 12
ENDMDL
