MODEL 1
REMARK VINA RESULT:      -7.1      0.000      0.000
REMARK  Name = 
REMARK  6 active torsions:
REMARK  status: ('A' for Active; 'I' for Inactive)
REMARK    1  A    between atoms: C_1  and  C_2
REMARK    2  A    between atoms: N_4  and  C_5
REMARK    3  A    between atoms: C_7  and  C_8
REMARK    4  A    between atoms: C_8  and  N_9
REMARK    5  A    between atoms: C_10  and  O_11
REMARK    6  A    between atoms: C_12  and  O_13
REMARK                            x       y       z     vdW  Elec       q    Type
REMARK                         _______ _______ _______ _____ _____    ______ ____
ROOT
ATOM      1  C   UNL     1       4.973   3.988  19.054  0.00  0.00    +0.000 C 
ATOM      2  O   UNL     1       4.206   2.762  18.993  0.00  0.00    +0.000 OA
ATOM      3  C   UNL     1       2.962   3.032  19.673  0.00  0.00    +0.000 C 
ATOM      4  C   UNL     1       2.619   4.448  19.246  0.00  0.00    +0.000 C 
ATOM      5  C   UNL     1       3.976   5.136  19.374  0.00  0.00    +0.000 C 
ENDROOT
BRANCH   1   9
ATOM      6  C   UNL     1       5.264   4.134  14.081  0.00  0.00    +0.000 C 
ATOM      7  C   UNL     1       5.825   4.311  15.453  0.00  0.00    +0.000 A 
ATOM      8  C   UNL     1       5.195   3.961  16.583  0.00  0.00    +0.000 A 
ATOM      9  N   UNL     1       5.738   4.196  17.830  0.00  0.00    +0.000 N 
ATOM     10  C   UNL     1       6.989   4.780  17.987  0.00  0.00    +0.000 A 
ATOM     11  O   UNL     1       7.498   5.039  19.078  0.00  0.00    +0.000 OA
ATOM     12  N   UNL     1       7.655   5.074  16.830  0.00  0.00    +0.000 N 
ATOM     13  C   UNL     1       7.156   4.954  15.567  0.00  0.00    +0.000 A 
ATOM     14  O   UNL     1       7.761   5.365  14.583  0.00  0.00    +0.000 OA
ATOM     15  H   UNL     1       8.549   5.531  16.927  0.00  0.00    +0.000 HD
ENDBRANCH   1   9
BRANCH   4  16
ATOM     16  O   UNL     1       1.595   5.044  20.027  0.00  0.00    +0.000 OA
ATOM     17  H   UNL     1       1.268   4.396  20.675  0.00  0.00    +0.000 HD
ENDBRANCH   4  16
BRANCH   5  18
ATOM     18  O   UNL     1       4.055   6.288  18.535  0.00  0.00    +0.000 OA
ATOM     19  H   UNL     1       3.915   6.008  17.614  0.00  0.00    +0.000 HD
ENDBRANCH   5  18
BRANCH   3  20
ATOM     20  C   UNL     1       1.881   2.015  19.293  0.00  0.00    +0.000 C 
BRANCH  20  21
ATOM     21  N   UNL     1       0.904   2.608  18.374  0.00  0.00    +0.000 NA
ATOM     22  H   UNL     1       0.589   1.883  17.726  0.00  0.00    +0.000 HD
ATOM     23  H   UNL     1       1.357   3.326  17.812  0.00  0.00    +0.000 HD
ENDBRANCH  20  21
ENDBRANCH   3  20
TORSDOF 5
ENDMDL
MODEL 2
REMARK VINA RESULT:      -6.7      1.078      1.105
REMARK  Name = 
REMARK  6 active torsions:
REMARK  status: ('A' for Active; 'I' for Inactive)
REMARK    1  A    between atoms: C_1  and  C_2
REMARK    2  A    between atoms: N_4  and  C_5
REMARK    3  A    between atoms: C_7  and  C_8
REMARK    4  A    between atoms: C_8  and  N_9
REMARK    5  A    between atoms: C_10  and  O_11
REMARK    6  A    between atoms: C_12  and  O_13
REMARK                            x       y       z     vdW  Elec       q    Type
REMARK                         _______ _______ _______ _____ _____    ______ ____
ROOT
ATOM      1  C   UNL     1       5.119   4.223  18.030  0.00  0.00    +0.000 C 
ATOM      2  O   UNL     1       4.317   3.020  17.991  0.00  0.00    +0.000 OA
ATOM      3  C   UNL     1       3.096   3.328  18.695  0.00  0.00    +0.000 C 
ATOM      4  C   UNL     1       2.785   4.752  18.269  0.00  0.00    +0.000 C 
ATOM      5  C   UNL     1       4.163   5.401  18.366  0.00  0.00    +0.000 C 
ENDROOT
BRANCH   1   9
ATOM      6  C   UNL     1       5.577   3.615  13.105  0.00  0.00    +0.000 C 
ATOM      7  C   UNL     1       6.022   4.144  14.428  0.00  0.00    +0.000 A 
ATOM      8  C   UNL     1       5.446   3.844  15.600  0.00  0.00    +0.000 A 
ATOM      9  N   UNL     1       5.865   4.404  16.790  0.00  0.00    +0.000 N 
ATOM     10  C   UNL     1       6.936   5.288  16.847  0.00  0.00    +0.000 A 
ATOM     11  O   UNL     1       7.322   5.838  17.879  0.00  0.00    +0.000 OA
ATOM     12  N   UNL     1       7.562   5.539  15.658  0.00  0.00    +0.000 N 
ATOM     13  C   UNL     1       7.158   5.096  14.433  0.00  0.00    +0.000 A 
ATOM     14  O   UNL     1       7.690   5.473  13.395  0.00  0.00    +0.000 OA
ATOM     15  H   UNL     1       8.318   6.205  15.678  0.00  0.00    +0.000 HD
ENDBRANCH   1   9
BRANCH   4  16
ATOM     16  O   UNL     1       1.794   5.381  19.068  0.00  0.00    +0.000 OA
ATOM     17  H   UNL     1       0.913   5.099  18.766  0.00  0.00    +0.000 HD
ENDBRANCH   4  16
BRANCH   5  18
ATOM     18  O   UNL     1       4.258   6.548  17.520  0.00  0.00    +0.000 OA
ATOM     19  H   UNL     1       4.877   7.179  17.927  0.00  0.00    +0.000 HD
ENDBRANCH   5  18
BRANCH   3  20
ATOM     20  C   UNL     1       1.978   2.342  18.342  0.00  0.00    +0.000 C 
BRANCH  20  21
ATOM     21  N   UNL     1       0.797   2.565  19.183  0.00  0.00    +0.000 NA
ATOM     22  H   UNL     1       0.106   3.085  18.639  0.00  0.00    +0.000 HD
ATOM     23  H   UNL     1       1.049   3.153  19.975  0.00  0.00    +0.000 HD
ENDBRANCH  20  21
ENDBRANCH   3  20
TORSDOF 5
ENDMDL
MODEL 3
REMARK VINA RESULT:      -6.6      1.805      5.734
REMARK  Name = 
REMARK  6 active torsions:
REMARK  status: ('A' for Active; 'I' for Inactive)
REMARK    1  A    between atoms: C_1  and  C_2
REMARK    2  A    between atoms: N_4  and  C_5
REMARK    3  A    between atoms: C_7  and  C_8
REMARK    4  A    between atoms: C_8  and  N_9
REMARK    5  A    between atoms: C_10  and  O_11
REMARK    6  A    between atoms: C_12  and  O_13
REMARK                            x       y       z     vdW  Elec       q    Type
REMARK                         _______ _______ _______ _____ _____    ______ ____
ROOT
ATOM      1  C   UNL     1       5.819   4.266  18.766  0.00  0.00    +0.000 C 
ATOM      2  O   UNL     1       6.675   5.313  19.281  0.00  0.00    +0.000 OA
ATOM      3  C   UNL     1       7.497   5.741  18.175  0.00  0.00    +0.000 C 
ATOM      4  C   UNL     1       6.546   5.718  16.991  0.00  0.00    +0.000 C 
ATOM      5  C   UNL     1       5.818   4.396  17.217  0.00  0.00    +0.000 C 
ENDROOT
BRANCH   1   9
ATOM      6  C   UNL     1       1.805   6.852  20.190  0.00  0.00    +0.000 C 
ATOM      7  C   UNL     1       2.567   5.586  19.980  0.00  0.00    +0.000 A 
ATOM      8  C   UNL     1       3.849   5.525  19.595  0.00  0.00    +0.000 A 
ATOM      9  N   UNL     1       4.491   4.325  19.364  0.00  0.00    +0.000 N 
ATOM     10  C   UNL     1       3.853   3.105  19.551  0.00  0.00    +0.000 A 
ATOM     11  O   UNL     1       4.374   2.012  19.325  0.00  0.00    +0.000 OA
ATOM     12  N   UNL     1       2.566   3.172  20.008  0.00  0.00    +0.000 N 
ATOM     13  C   UNL     1       1.836   4.311  20.177  0.00  0.00    +0.000 A 
ATOM     14  O   UNL     1       0.644   4.287  20.460  0.00  0.00    +0.000 OA
ATOM     15  H   UNL     1       2.079   2.296  20.115  0.00  0.00    +0.000 HD
ENDBRANCH   1   9
BRANCH   4  16
ATOM     16  O   UNL     1       7.200   5.808  15.735  0.00  0.00    +0.000 OA
ATOM     17  H   UNL     1       7.658   6.665  15.673  0.00  0.00    +0.000 HD
ENDBRANCH   4  16
BRANCH   5  18
ATOM     18  O   UNL     1       4.536   4.394  16.588  0.00  0.00    +0.000 OA
ATOM     19  H   UNL     1       4.573   3.800  15.818  0.00  0.00    +0.000 HD
ENDBRANCH   5  18
BRANCH   3  20
ATOM     20  C   UNL     1       8.104   7.125  18.426  0.00  0.00    +0.000 C 
BRANCH  20  21
ATOM     21  N   UNL     1       7.705   8.071  17.379  0.00  0.00    +0.000 NA
ATOM     22  H   UNL     1       6.795   8.463  17.627  0.00  0.00    +0.000 HD
ATOM     23  H   UNL     1       7.578   7.572  16.499  0.00  0.00    +0.000 HD
ENDBRANCH  20  21
ENDBRANCH   3  20
TORSDOF 5
ENDMDL
MODEL 4
REMARK VINA RESULT:      -6.6      2.238      3.006
REMARK  Name = 
REMARK  6 active torsions:
REMARK  status: ('A' for Active; 'I' for Inactive)
REMARK    1  A    between atoms: C_1  and  C_2
REMARK    2  A    between atoms: N_4  and  C_5
REMARK    3  A    between atoms: C_7  and  C_8
REMARK    4  A    between atoms: C_8  and  N_9
REMARK    5  A    between atoms: C_10  and  O_11
REMARK    6  A    between atoms: C_12  and  O_13
REMARK                            x       y       z     vdW  Elec       q    Type
REMARK                         _______ _______ _______ _____ _____    ______ ____
ROOT
ATOM      1  C   UNL     1       2.685   4.888  18.833  0.00  0.00    +0.000 C 
ATOM      2  O   UNL     1       2.518   4.465  20.207  0.00  0.00    +0.000 OA
ATOM      3  C   UNL     1       1.302   3.688  20.242  0.00  0.00    +0.000 C 
ATOM      4  C   UNL     1       1.345   2.894  18.949  0.00  0.00    +0.000 C 
ATOM      5  C   UNL     1       1.798   3.962  17.957  0.00  0.00    +0.000 C 
ENDROOT
BRANCH   1   9
ATOM      6  C   UNL     1       6.719   7.282  17.149  0.00  0.00    +0.000 C 
ATOM      7  C   UNL     1       6.012   6.085  17.694  0.00  0.00    +0.000 A 
ATOM      8  C   UNL     1       4.689   6.008  17.890  0.00  0.00    +0.000 A 
ATOM      9  N   UNL     1       4.092   4.895  18.448  0.00  0.00    +0.000 N 
ATOM     10  C   UNL     1       4.827   3.772  18.807  0.00  0.00    +0.000 A 
ATOM     11  O   UNL     1       4.343   2.772  19.337  0.00  0.00    +0.000 OA
ATOM     12  N   UNL     1       6.167   3.831  18.542  0.00  0.00    +0.000 N 
ATOM     13  C   UNL     1       6.843   4.919  18.077  0.00  0.00    +0.000 A 
ATOM     14  O   UNL     1       8.066   4.942  17.992  0.00  0.00    +0.000 OA
ATOM     15  H   UNL     1       6.719   3.037  18.830  0.00  0.00    +0.000 HD
ENDBRANCH   1   9
BRANCH   4  16
ATOM     16  O   UNL     1       0.108   2.284  18.615  0.00  0.00    +0.000 OA
ATOM     17  H   UNL     1       0.267   1.360  18.352  0.00  0.00    +0.000 HD
ENDBRANCH   4  16
BRANCH   5  18
ATOM     18  O   UNL     1       2.432   3.378  16.818  0.00  0.00    +0.000 OA
ATOM     19  H   UNL     1       3.396   3.448  16.934  0.00  0.00    +0.000 HD
ENDBRANCH   5  18
BRANCH   3  20
ATOM     20  C   UNL     1       1.239   2.798  21.488  0.00  0.00    +0.000 C 
BRANCH  20  21
ATOM     21  N   UNL     1       2.583   2.523  22.005  0.00  0.00    +0.000 NA
ATOM     22  H   UNL     1       2.535   2.485  23.025  0.00  0.00    +0.000 HD
ATOM     23  H   UNL     1       3.203   3.297  21.770  0.00  0.00    +0.000 HD
ENDBRANCH  20  21
ENDBRANCH   3  20
TORSDOF 5
ENDMDL
MODEL 5
REMARK VINA RESULT:      -6.4      1.808      2.399
REMARK  Name = 
REMARK  6 active torsions:
REMARK  status: ('A' for Active; 'I' for Inactive)
REMARK    1  A    between atoms: C_1  and  C_2
REMARK    2  A    between atoms: N_4  and  C_5
REMARK    3  A    between atoms: C_7  and  C_8
REMARK    4  A    between atoms: C_8  and  N_9
REMARK    5  A    between atoms: C_10  and  O_11
REMARK    6  A    between atoms: C_12  and  O_13
REMARK                            x       y       z     vdW  Elec       q    Type
REMARK                         _______ _______ _______ _____ _____    ______ ____
ROOT
ATOM      1  C   UNL     1       3.477   3.437  18.325  0.00  0.00    +0.000 C 
ATOM      2  O   UNL     1       2.569   4.470  18.776  0.00  0.00    +0.000 OA
ATOM      3  C   UNL     1       2.012   4.000  20.021  0.00  0.00    +0.000 C 
ATOM      4  C   UNL     1       3.188   3.330  20.710  0.00  0.00    +0.000 C 
ATOM      5  C   UNL     1       3.806   2.548  19.555  0.00  0.00    +0.000 C 
ENDROOT
BRANCH   1   9
ATOM      6  C   UNL     1       6.391   4.007  14.323  0.00  0.00    +0.000 C 
ATOM      7  C   UNL     1       5.990   4.302  15.730  0.00  0.00    +0.000 A 
ATOM      8  C   UNL     1       5.020   3.660  16.394  0.00  0.00    +0.000 A 
ATOM      9  N   UNL     1       4.652   4.009  17.679  0.00  0.00    +0.000 N 
ATOM     10  C   UNL     1       5.293   5.028  18.372  0.00  0.00    +0.000 A 
ATOM     11  O   UNL     1       4.978   5.397  19.504  0.00  0.00    +0.000 OA
ATOM     12  N   UNL     1       6.326   5.636  17.713  0.00  0.00    +0.000 N 
ATOM     13  C   UNL     1       6.693   5.409  16.420  0.00  0.00    +0.000 A 
ATOM     14  O   UNL     1       7.542   6.088  15.854  0.00  0.00    +0.000 OA
ATOM     15  H   UNL     1       6.778   6.401  18.191  0.00  0.00    +0.000 HD
ENDBRANCH   1   9
BRANCH   4  16
ATOM     16  O   UNL     1       2.814   2.525  21.817  0.00  0.00    +0.000 OA
ATOM     17  H   UNL     1       3.457   2.651  22.537  0.00  0.00    +0.000 HD
ENDBRANCH   4  16
BRANCH   5  18
ATOM     18  O   UNL     1       5.190   2.285  19.788  0.00  0.00    +0.000 OA
ATOM     19  H   UNL     1       5.284   1.356  20.063  0.00  0.00    +0.000 HD
ENDBRANCH   5  18
BRANCH   3  20
ATOM     20  C   UNL     1       1.415   5.148  20.840  0.00  0.00    +0.000 C 
BRANCH  20  21
ATOM     21  N   UNL     1       2.219   6.366  20.701  0.00  0.00    +0.000 NA
ATOM     22  H   UNL     1       1.997   6.799  19.802  0.00  0.00    +0.000 HD
ATOM     23  H   UNL     1       3.207   6.120  20.670  0.00  0.00    +0.000 HD
ENDBRANCH  20  21
ENDBRANCH   3  20
TORSDOF 5
ENDMDL
MODEL 6
REMARK VINA RESULT:      -6.4      1.903      5.626
REMARK  Name = 
REMARK  6 active torsions:
REMARK  status: ('A' for Active; 'I' for Inactive)
REMARK    1  A    between atoms: C_1  and  C_2
REMARK    2  A    between atoms: N_4  and  C_5
REMARK    3  A    between atoms: C_7  and  C_8
REMARK    4  A    between atoms: C_8  and  N_9
REMARK    5  A    between atoms: C_10  and  O_11
REMARK    6  A    between atoms: C_12  and  O_13
REMARK                            x       y       z     vdW  Elec       q    Type
REMARK                         _______ _______ _______ _____ _____    ______ ____
ROOT
ATOM      1  C   UNL     1       5.342   3.929  18.113  0.00  0.00    +0.000 C 
ATOM      2  O   UNL     1       6.402   4.281  19.033  0.00  0.00    +0.000 OA
ATOM      3  C   UNL     1       7.272   5.182  18.316  0.00  0.00    +0.000 C 
ATOM      4  C   UNL     1       6.314   6.046  17.516  0.00  0.00    +0.000 C 
ATOM      5  C   UNL     1       5.337   5.000  16.987  0.00  0.00    +0.000 C 
ENDROOT
BRANCH   1   9
ATOM      6  C   UNL     1       1.638   5.869  20.823  0.00  0.00    +0.000 C 
ATOM      7  C   UNL     1       2.286   4.770  20.050  0.00  0.00    +0.000 A 
ATOM      8  C   UNL     1       3.531   4.819  19.558  0.00  0.00    +0.000 A 
ATOM      9  N   UNL     1       4.064   3.792  18.802  0.00  0.00    +0.000 N 
ATOM     10  C   UNL     1       3.350   2.631  18.538  0.00  0.00    +0.000 A 
ATOM     11  O   UNL     1       3.771   1.706  17.842  0.00  0.00    +0.000 OA
ATOM     12  N   UNL     1       2.105   2.559  19.099  0.00  0.00    +0.000 N 
ATOM     13  C   UNL     1       1.477   3.558  19.780  0.00  0.00    +0.000 A 
ATOM     14  O   UNL     1       0.307   3.470  20.138  0.00  0.00    +0.000 OA
ATOM     15  H   UNL     1       1.561   1.737  18.886  0.00  0.00    +0.000 HD
ENDBRANCH   1   9
BRANCH   4  16
ATOM     16  O   UNL     1       6.949   6.808  16.500  0.00  0.00    +0.000 OA
ATOM     17  H   UNL     1       7.649   6.272  16.089  0.00  0.00    +0.000 HD
ENDBRANCH   4  16
BRANCH   5  18
ATOM     18  O   UNL     1       4.070   5.581  16.678  0.00  0.00    +0.000 OA
ATOM     19  H   UNL     1       4.216   6.497  16.383  0.00  0.00    +0.000 HD
ENDBRANCH   5  18
BRANCH   3  20
ATOM     20  C   UNL     1       8.152   5.994  19.273  0.00  0.00    +0.000 C 
BRANCH  20  21
ATOM     21  N   UNL     1       8.191   5.376  20.601  0.00  0.00    +0.000 NA
ATOM     22  H   UNL     1       9.053   5.667  21.068  0.00  0.00    +0.000 HD
ATOM     23  H   UNL     1       8.239   4.363  20.505  0.00  0.00    +0.000 HD
ENDBRANCH  20  21
ENDBRANCH   3  20
TORSDOF 5
ENDMDL
MODEL 7
REMARK VINA RESULT:      -6.4      1.897      5.567
REMARK  Name = 
REMARK  6 active torsions:
REMARK  status: ('A' for Active; 'I' for Inactive)
REMARK    1  A    between atoms: C_1  and  C_2
REMARK    2  A    between atoms: N_4  and  C_5
REMARK    3  A    between atoms: C_7  and  C_8
REMARK    4  A    between atoms: C_8  and  N_9
REMARK    5  A    between atoms: C_10  and  O_11
REMARK    6  A    between atoms: C_12  and  O_13
REMARK                            x       y       z     vdW  Elec       q    Type
REMARK                         _______ _______ _______ _____ _____    ______ ____
ROOT
ATOM      1  C   UNL     1       4.742   5.809  17.768  0.00  0.00    +0.000 C 
ATOM      2  O   UNL     1       4.802   5.693  16.326  0.00  0.00    +0.000 OA
ATOM      3  C   UNL     1       6.193   5.489  15.998  0.00  0.00    +0.000 C 
ATOM      4  C   UNL     1       6.690   4.567  17.097  0.00  0.00    +0.000 C 
ATOM      5  C   UNL     1       6.058   5.204  18.331  0.00  0.00    +0.000 C 
ENDROOT
BRANCH   1   9
ATOM      6  C   UNL     1       1.803   1.831  18.376  0.00  0.00    +0.000 C 
ATOM      7  C   UNL     1       2.183   3.254  18.616  0.00  0.00    +0.000 A 
ATOM      8  C   UNL     1       3.191   3.886  18.000  0.00  0.00    +0.000 A 
ATOM      9  N   UNL     1       3.533   5.190  18.299  0.00  0.00    +0.000 N 
ATOM     10  C   UNL     1       2.828   5.936  19.235  0.00  0.00    +0.000 A 
ATOM     11  O   UNL     1       3.118   7.088  19.559  0.00  0.00    +0.000 OA
ATOM     12  N   UNL     1       1.760   5.307  19.812  0.00  0.00    +0.000 N 
ATOM     13  C   UNL     1       1.410   4.002  19.636  0.00  0.00    +0.000 A 
ATOM     14  O   UNL     1       0.520   3.470  20.291  0.00  0.00    +0.000 OA
ATOM     15  H   UNL     1       1.260   5.824  20.519  0.00  0.00    +0.000 HD
ENDBRANCH   1   9
BRANCH   4  16
ATOM     16  O   UNL     1       8.104   4.468  17.160  0.00  0.00    +0.000 OA
ATOM     17  H   UNL     1       8.499   5.188  16.637  0.00  0.00    +0.000 HD
ENDBRANCH   4  16
BRANCH   5  18
ATOM     18  O   UNL     1       5.911   4.256  19.388  0.00  0.00    +0.000 OA
ATOM     19  H   UNL     1       5.154   3.680  19.181  0.00  0.00    +0.000 HD
ENDBRANCH   5  18
BRANCH   3  20
ATOM     20  C   UNL     1       6.358   4.891  14.597  0.00  0.00    +0.000 C 
BRANCH  20  21
ATOM     21  N   UNL     1       7.637   5.292  14.004  0.00  0.00    +0.000 NA
ATOM     22  H   UNL     1       7.454   5.697  13.083  0.00  0.00    +0.000 HD
ATOM     23  H   UNL     1       8.216   4.468  13.851  0.00  0.00    +0.000 HD
ENDBRANCH  20  21
ENDBRANCH   3  20
TORSDOF 5
ENDMDL
MODEL 8
REMARK VINA RESULT:      -6.3      1.867      2.488
REMARK  Name = 
REMARK  6 active torsions:
REMARK  status: ('A' for Active; 'I' for Inactive)
REMARK    1  A    between atoms: C_1  and  C_2
REMARK    2  A    between atoms: N_4  and  C_5
REMARK    3  A    between atoms: C_7  and  C_8
REMARK    4  A    between atoms: C_8  and  N_9
REMARK    5  A    between atoms: C_10  and  O_11
REMARK    6  A    between atoms: C_12  and  O_13
REMARK                            x       y       z     vdW  Elec       q    Type
REMARK                         _______ _______ _______ _____ _____    ______ ____
ROOT
ATOM      1  C   UNL     1       2.896   4.824  18.462  0.00  0.00    +0.000 C 
ATOM      2  O   UNL     1       2.973   4.805  19.907  0.00  0.00    +0.000 OA
ATOM      3  C   UNL     1       1.759   4.172  20.365  0.00  0.00    +0.000 C 
ATOM      4  C   UNL     1       1.535   3.056  19.359  0.00  0.00    +0.000 C 
ATOM      5  C   UNL     1       1.831   3.773  18.045  0.00  0.00    +0.000 C 
ENDROOT
BRANCH   1   9
ATOM      6  C   UNL     1       6.180   5.624  14.800  0.00  0.00    +0.000 C 
ATOM      7  C   UNL     1       5.769   5.059  16.119  0.00  0.00    +0.000 A 
ATOM      8  C   UNL     1       4.522   5.100  16.608  0.00  0.00    +0.000 A 
ATOM      9  N   UNL     1       4.206   4.608  17.859  0.00  0.00    +0.000 N 
ATOM     10  C   UNL     1       5.159   4.008  18.672  0.00  0.00    +0.000 A 
ATOM     11  O   UNL     1       4.932   3.586  19.806  0.00  0.00    +0.000 OA
ATOM     12  N   UNL     1       6.415   3.909  18.140  0.00  0.00    +0.000 N 
ATOM     13  C   UNL     1       6.826   4.443  16.955  0.00  0.00    +0.000 A 
ATOM     14  O   UNL     1       8.001   4.432  16.606  0.00  0.00    +0.000 OA
ATOM     15  H   UNL     1       7.126   3.507  18.732  0.00  0.00    +0.000 HD
ENDBRANCH   1   9
BRANCH   4  16
ATOM     16  O   UNL     1       0.238   2.484  19.425  0.00  0.00    +0.000 OA
ATOM     17  H   UNL     1       0.226   1.656  18.914  0.00  0.00    +0.000 HD
ENDBRANCH   4  16
BRANCH   5  18
ATOM     18  O   UNL     1       2.223   2.851  17.027  0.00  0.00    +0.000 OA
ATOM     19  H   UNL     1       2.369   3.348  16.203  0.00  0.00    +0.000 HD
ENDBRANCH   5  18
BRANCH   3  20
ATOM     20  C   UNL     1       1.898   3.661  21.802  0.00  0.00    +0.000 C 
BRANCH  20  21
ATOM     21  N   UNL     1       2.711   2.442  21.849  0.00  0.00    +0.000 NA
ATOM     22  H   UNL     1       2.950   2.176  20.892  0.00  0.00    +0.000 HD
ATOM     23  H   UNL     1       2.158   1.678  22.235  0.00  0.00    +0.000 HD
ENDBRANCH  20  21
ENDBRANCH   3  20
TORSDOF 5
ENDMDL
MODEL 9
REMARK VINA RESULT:      -6.3      2.866      4.001
REMARK  Name = 
REMARK  6 active torsions:
REMARK  status: ('A' for Active; 'I' for Inactive)
REMARK    1  A    between atoms: C_1  and  C_2
REMARK    2  A    between atoms: N_4  and  C_5
REMARK    3  A    between atoms: C_7  and  C_8
REMARK    4  A    between atoms: C_8  and  N_9
REMARK    5  A    between atoms: C_10  and  O_11
REMARK    6  A    between atoms: C_12  and  O_13
REMARK                            x       y       z     vdW  Elec       q    Type
REMARK                         _______ _______ _______ _____ _____    ______ ____
ROOT
ATOM      1  C   UNL     1       2.835   6.047  17.950  0.00  0.00    +0.000 C 
ATOM      2  O   UNL     1       2.512   7.418  17.617  0.00  0.00    +0.000 OA
ATOM      3  C   UNL     1       1.689   7.910  18.696  0.00  0.00    +0.000 C 
ATOM      4  C   UNL     1       2.323   7.303  19.936  0.00  0.00    +0.000 C 
ATOM      5  C   UNL     1       2.578   5.872  19.472  0.00  0.00    +0.000 C 
ENDROOT
BRANCH   1   9
ATOM      6  C   UNL     1       7.669   7.187  17.543  0.00  0.00    +0.000 C 
ATOM      7  C   UNL     1       6.504   6.264  17.411  0.00  0.00    +0.000 A 
ATOM      8  C   UNL     1       5.228   6.616  17.621  0.00  0.00    +0.000 A 
ATOM      9  N   UNL     1       4.192   5.707  17.537  0.00  0.00    +0.000 N 
ATOM     10  C   UNL     1       4.408   4.378  17.195  0.00  0.00    +0.000 A 
ATOM     11  O   UNL     1       3.522   3.526  17.141  0.00  0.00    +0.000 OA
ATOM     12  N   UNL     1       5.704   4.041  16.917  0.00  0.00    +0.000 N 
ATOM     13  C   UNL     1       6.790   4.853  17.060  0.00  0.00    +0.000 A 
ATOM     14  O   UNL     1       7.936   4.441  16.922  0.00  0.00    +0.000 OA
ATOM     15  H   UNL     1       5.882   3.072  16.701  0.00  0.00    +0.000 HD
ENDBRANCH   1   9
BRANCH   4  16
ATOM     16  O   UNL     1       1.508   7.397  21.094  0.00  0.00    +0.000 OA
ATOM     17  H   UNL     1       1.741   8.204  21.586  0.00  0.00    +0.000 HD
ENDBRANCH   4  16
BRANCH   5  18
ATOM     18  O   UNL     1       3.631   5.263  20.221  0.00  0.00    +0.000 OA
ATOM     19  H   UNL     1       3.806   5.812  21.006  0.00  0.00    +0.000 HD
ENDBRANCH   5  18
BRANCH   3  20
ATOM     20  C   UNL     1       1.660   9.441  18.729  0.00  0.00    +0.000 C 
BRANCH  20  21
ATOM     21  N   UNL     1       1.993  10.000  17.416  0.00  0.00    +0.000 NA
ATOM     22  H   UNL     1       1.182  10.516  17.069  0.00  0.00    +0.000 HD
ATOM     23  H   UNL     1       2.162   9.243  16.756  0.00  0.00    +0.000 HD
ENDBRANCH  20  21
ENDBRANCH   3  20
TORSDOF 5
ENDMDL
