MODEL 1
REMARK VINA RESULT:      -7.9      0.000      0.000
REMARK  Name = 
REMARK  16 active torsions:
REMARK  status: ('A' for Active; 'I' for Inactive)
REMARK    1  A    between atoms: C_1  and  C_2
REMARK    2  A    between atoms: C_2  and  C_3
REMARK    3  A    between atoms: C_3  and  N_4
REMARK    4  A    between atoms: N_4  and  C_5
REMARK    5  A    between atoms: N_4  and  C_23
REMARK    6  A    between atoms: C_5  and  C_6
REMARK    7  A    between atoms: C_9  and  O_10
REMARK    8  A    between atoms: O_10  and  C_11
REMARK    9  A    between atoms: C_11  and  C_12
REMARK   10  A    between atoms: C_12  and  N_13
REMARK   11  A    between atoms: C_20  and  C_21
REMARK   12  A    between atoms: C_23  and  C_24
REMARK   13  A    between atoms: C_23  and  C_28
REMARK   14  A    between atoms: C_24  and  C_25
REMARK   15  A    between atoms: C_25  and  O_27
REMARK   16  A    between atoms: C_31  and  C_32
REMARK                            x       y       z     vdW  Elec       q    Type
REMARK                         _______ _______ _______ _____ _____    ______ ____
ROOT
ATOM      1  C   UNL     1       1.201   9.467  18.316  0.00  0.00    +0.000 C 
ENDROOT
BRANCH   1   2
ATOM      2  C   UNL     1       1.996   8.189  18.397  0.00  0.00    +0.000 A 
ATOM      3  C   UNL     1       1.938   7.453  19.566  0.00  0.00    +0.000 A 
ATOM      4  C   UNL     1       2.846   6.444  19.819  0.00  0.00    +0.000 A 
ATOM      5  C   UNL     1       3.928   6.179  18.959  0.00  0.00    +0.000 A 
ATOM      6  C   UNL     1       4.006   6.917  17.761  0.00  0.00    +0.000 A 
ATOM      7  C   UNL     1       5.201   6.910  16.843  0.00  0.00    +0.000 C 
ATOM      8  C   UNL     1       2.998   7.874  17.469  0.00  0.00    +0.000 A 
BRANCH   5   9
ATOM      9  O   UNL     1       4.922   5.259  19.296  0.00  0.00    +0.000 OA
BRANCH   9  10
ATOM     10  C   UNL     1       4.789   4.024  18.560  0.00  0.00    +0.000 C 
BRANCH  10  11
ATOM     11  C   UNL     1       4.292   2.778  19.295  0.00  0.00    +0.000 C 
BRANCH  11  12
ATOM     12  N   UNL     1       2.856   2.934  19.598  0.00  0.00    +0.000 N 
ATOM     13  C   UNL     1       2.333   2.818  20.855  0.00  0.00    +0.000 C 
ATOM     14  O   UNL     1       2.959   2.638  21.888  0.00  0.00    +0.000 OA
ATOM     15  C   UNL     1       0.834   2.896  20.782  0.00  0.00    +0.000 C 
ATOM     16  C   UNL     1       0.530   2.840  19.298  0.00  0.00    +0.000 C 
ATOM     17  C   UNL     1       1.882   2.856  18.642  0.00  0.00    +0.000 C 
ATOM     18  O   UNL     1       2.054   2.746  17.438  0.00  0.00    +0.000 OA
ENDBRANCH  11  12
ENDBRANCH  10  11
ENDBRANCH   9  10
ENDBRANCH   5   9
ENDBRANCH   1   2
BRANCH   1  19
ATOM     19  N   UNL     1       0.288   9.860  19.417  0.00  0.00    +0.000 NA
BRANCH  19  20
ATOM     20  C   UNL     1      -0.978  10.325  18.783  0.00  0.00    +0.000 C 
BRANCH  20  22
ATOM     21  C   UNL     1      -2.643  10.008  16.919  0.00  0.00    +0.000 C 
ATOM     22  C   UNL     1      -1.188   9.847  17.337  0.00  0.00    +0.000 C 
ENDBRANCH  20  22
ENDBRANCH  19  20
BRANCH  19  23
ATOM     23  C   UNL     1       0.881  10.858  20.388  0.00  0.00    +0.000 C 
BRANCH  23  24
ATOM     24  C   UNL     1       1.141  12.284  19.890  0.00  0.00    +0.000 A 
ATOM     25  C   UNL     1       0.527  13.412  20.449  0.00  0.00    +0.000 A 
ATOM     26  C   UNL     1       0.741  14.691  19.927  0.00  0.00    +0.000 A 
ATOM     27  C   UNL     1       1.616  14.885  18.859  0.00  0.00    +0.000 A 
ATOM     28  C   UNL     1       1.832  16.257  18.293  0.00  0.00    +0.000 C 
ATOM     29  C   UNL     1       2.328  13.789  18.369  0.00  0.00    +0.000 A 
ATOM     30  C   UNL     1       2.101  12.508  18.886  0.00  0.00    +0.000 A 
ENDBRANCH  23  24
BRANCH  23  31
ATOM     31  C   UNL     1       0.096  10.944  21.710  0.00  0.00    +0.000 C 
BRANCH  31  32
ATOM     32  C   UNL     1       0.086   9.674  22.536  0.00  0.00    +0.000 C 
ATOM     33  O   UNL     1       0.466   9.631  23.698  0.00  0.00    +0.000 OA
BRANCH  32  34
ATOM     34  O   UNL     1      -0.481   8.604  21.934  0.00  0.00    +0.000 OA
ATOM     35  H   UNL     1      -0.407   7.781  22.473  0.00  0.00    +0.000 HD
ENDBRANCH  32  34
ENDBRANCH  31  32
ENDBRANCH  23  31
ENDBRANCH  19  23
ENDBRANCH   1  19
TORSDOF 13
ENDMDL
MODEL 2
REMARK VINA RESULT:      -7.9      1.523      3.333
REMARK  Name = 
REMARK  16 active torsions:
REMARK  status: ('A' for Active; 'I' for Inactive)
REMARK    1  A    between atoms: C_1  and  C_2
REMARK    2  A    between atoms: C_2  and  C_3
REMARK    3  A    between atoms: C_3  and  N_4
REMARK    4  A    between atoms: N_4  and  C_5
REMARK    5  A    between atoms: N_4  and  C_23
REMARK    6  A    between atoms: C_5  and  C_6
REMARK    7  A    between atoms: C_9  and  O_10
REMARK    8  A    between atoms: O_10  and  C_11
REMARK    9  A    between atoms: C_11  and  C_12
REMARK   10  A    between atoms: C_12  and  N_13
REMARK   11  A    between atoms: C_20  and  C_21
REMARK   12  A    between atoms: C_23  and  C_24
REMARK   13  A    between atoms: C_23  and  C_28
REMARK   14  A    between atoms: C_24  and  C_25
REMARK   15  A    between atoms: C_25  and  O_27
REMARK   16  A    between atoms: C_31  and  C_32
REMARK                            x       y       z     vdW  Elec       q    Type
REMARK                         _______ _______ _______ _____ _____    ______ ____
ROOT
ATOM      1  C   UNL     1       1.829   9.157  19.740  0.00  0.00    +0.000 C 
ENDROOT
BRANCH   1   2
ATOM      2  C   UNL     1       2.245   7.863  19.088  0.00  0.00    +0.000 A 
ATOM      3  C   UNL     1       2.156   6.698  19.827  0.00  0.00    +0.000 A 
ATOM      4  C   UNL     1       2.778   5.539  19.409  0.00  0.00    +0.000 A 
ATOM      5  C   UNL     1       3.610   5.505  18.274  0.00  0.00    +0.000 A 
ATOM      6  C   UNL     1       3.715   6.682  17.505  0.00  0.00    +0.000 A 
ATOM      7  C   UNL     1       4.717   6.878  16.398  0.00  0.00    +0.000 C 
ATOM      8  C   UNL     1       2.977   7.831  17.894  0.00  0.00    +0.000 A 
BRANCH   5   9
ATOM      9  O   UNL     1       4.351   4.369  17.944  0.00  0.00    +0.000 OA
BRANCH   9  10
ATOM     10  C   UNL     1       3.541   3.363  17.299  0.00  0.00    +0.000 C 
BRANCH  10  11
ATOM     11  C   UNL     1       3.454   1.971  17.929  0.00  0.00    +0.000 C 
BRANCH  11  12
ATOM     12  N   UNL     1       2.871   2.087  19.280  0.00  0.00    +0.000 N 
ATOM     13  C   UNL     1       1.550   2.348  19.511  0.00  0.00    +0.000 C 
ATOM     14  O   UNL     1       0.672   2.457  18.669  0.00  0.00    +0.000 OA
ATOM     15  C   UNL     1       1.328   2.536  20.986  0.00  0.00    +0.000 C 
ATOM     16  C   UNL     1       2.726   2.581  21.570  0.00  0.00    +0.000 C 
ATOM     17  C   UNL     1       3.625   2.296  20.400  0.00  0.00    +0.000 C 
ATOM     18  O   UNL     1       4.845   2.322  20.460  0.00  0.00    +0.000 OA
ENDBRANCH  11  12
ENDBRANCH  10  11
ENDBRANCH   9  10
ENDBRANCH   5   9
ENDBRANCH   1   2
BRANCH   1  19
ATOM     19  N   UNL     1       0.920  10.098  19.040  0.00  0.00    +0.000 NA
BRANCH  19  20
ATOM     20  C   UNL     1       1.778  11.155  18.433  0.00  0.00    +0.000 C 
BRANCH  20  22
ATOM     21  C   UNL     1       1.169  13.600  18.436  0.00  0.00    +0.000 C 
ATOM     22  C   UNL     1       1.828  12.475  19.221  0.00  0.00    +0.000 C 
ENDBRANCH  20  22
ENDBRANCH  19  20
BRANCH  19  23
ATOM     23  C   UNL     1      -0.193  10.646  19.907  0.00  0.00    +0.000 C 
BRANCH  23  24
ATOM     24  C   UNL     1      -1.551  10.920  19.251  0.00  0.00    +0.000 A 
ATOM     25  C   UNL     1      -2.388  11.973  19.642  0.00  0.00    +0.000 A 
ATOM     26  C   UNL     1      -3.648  12.154  19.064  0.00  0.00    +0.000 A 
ATOM     27  C   UNL     1      -4.088  11.314  18.042  0.00  0.00    +0.000 A 
ATOM     28  C   UNL     1      -5.446  11.503  17.434  0.00  0.00    +0.000 C 
ATOM     29  C   UNL     1      -3.218  10.335  17.559  0.00  0.00    +0.000 A 
ATOM     30  C   UNL     1      -1.962  10.149  18.149  0.00  0.00    +0.000 A 
ENDBRANCH  23  24
BRANCH  23  31
ATOM     31  C   UNL     1      -0.429   9.808  21.176  0.00  0.00    +0.000 C 
BRANCH  31  32
ATOM     32  C   UNL     1      -0.120  10.513  22.480  0.00  0.00    +0.000 C 
ATOM     33  O   UNL     1      -0.435  11.674  22.702  0.00  0.00    +0.000 OA
BRANCH  32  34
ATOM     34  O   UNL     1       0.436   9.733  23.436  0.00  0.00    +0.000 OA
ATOM     35  H   UNL     1      -0.133   9.650  24.237  0.00  0.00    +0.000 HD
ENDBRANCH  32  34
ENDBRANCH  31  32
ENDBRANCH  23  31
ENDBRANCH  19  23
ENDBRANCH   1  19
TORSDOF 13
ENDMDL
MODEL 3
REMARK VINA RESULT:      -7.8      1.755      3.518
REMARK  Name = 
REMARK  16 active torsions:
REMARK  status: ('A' for Active; 'I' for Inactive)
REMARK    1  A    between atoms: C_1  and  C_2
REMARK    2  A    between atoms: C_2  and  C_3
REMARK    3  A    between atoms: C_3  and  N_4
REMARK    4  A    between atoms: N_4  and  C_5
REMARK    5  A    between atoms: N_4  and  C_23
REMARK    6  A    between atoms: C_5  and  C_6
REMARK    7  A    between atoms: C_9  and  O_10
REMARK    8  A    between atoms: O_10  and  C_11
REMARK    9  A    between atoms: C_11  and  C_12
REMARK   10  A    between atoms: C_12  and  N_13
REMARK   11  A    between atoms: C_20  and  C_21
REMARK   12  A    between atoms: C_23  and  C_24
REMARK   13  A    between atoms: C_23  and  C_28
REMARK   14  A    between atoms: C_24  and  C_25
REMARK   15  A    between atoms: C_25  and  O_27
REMARK   16  A    between atoms: C_31  and  C_32
REMARK                            x       y       z     vdW  Elec       q    Type
REMARK                         _______ _______ _______ _____ _____    ______ ____
ROOT
ATOM      1  C   UNL     1       0.993   9.328  18.044  0.00  0.00    +0.000 C 
ENDROOT
BRANCH   1   2
ATOM      2  C   UNL     1       2.011   8.297  18.461  0.00  0.00    +0.000 A 
ATOM      3  C   UNL     1       3.009   7.960  17.565  0.00  0.00    +0.000 A 
ATOM      4  C   UNL     1       3.790   6.839  17.756  0.00  0.00    +0.000 A 
ATOM      5  C   UNL     1       3.552   5.932  18.806  0.00  0.00    +0.000 A 
ATOM      6  C   UNL     1       2.540   6.255  19.732  0.00  0.00    +0.000 A 
ATOM      7  C   UNL     1       2.018   5.304  20.776  0.00  0.00    +0.000 C 
ATOM      8  C   UNL     1       1.823   7.471  19.577  0.00  0.00    +0.000 A 
BRANCH   5   9
ATOM      9  O   UNL     1       4.251   4.727  18.904  0.00  0.00    +0.000 OA
BRANCH   9  10
ATOM     10  C   UNL     1       4.821   4.328  17.640  0.00  0.00    +0.000 C 
BRANCH  10  11
ATOM     11  C   UNL     1       6.326   4.057  17.563  0.00  0.00    +0.000 C 
BRANCH  11  12
ATOM     12  N   UNL     1       7.055   5.334  17.686  0.00  0.00    +0.000 N 
ATOM     13  C   UNL     1       7.442   5.869  18.882  0.00  0.00    +0.000 C 
ATOM     14  O   UNL     1       7.305   5.360  19.984  0.00  0.00    +0.000 OA
ATOM     15  C   UNL     1       8.033   7.232  18.652  0.00  0.00    +0.000 C 
ATOM     16  C   UNL     1       7.733   7.526  17.196  0.00  0.00    +0.000 C 
ATOM     17  C   UNL     1       7.104   6.262  16.684  0.00  0.00    +0.000 C 
ATOM     18  O   UNL     1       6.652   6.137  15.556  0.00  0.00    +0.000 OA
ENDBRANCH  11  12
ENDBRANCH  10  11
ENDBRANCH   9  10
ENDBRANCH   5   9
ENDBRANCH   1   2
BRANCH   1  19
ATOM     19  N   UNL     1       0.137   9.997  19.055  0.00  0.00    +0.000 NA
BRANCH  19  20
ATOM     20  C   UNL     1      -0.947  10.696  18.308  0.00  0.00    +0.000 C 
BRANCH  20  22
ATOM     21  C   UNL     1      -3.238  10.057  17.478  0.00  0.00    +0.000 C 
ATOM     22  C   UNL     1      -1.743   9.803  17.342  0.00  0.00    +0.000 C 
ENDBRANCH  20  22
ENDBRANCH  19  20
BRANCH  19  23
ATOM     23  C   UNL     1       0.893  10.896  20.009  0.00  0.00    +0.000 C 
BRANCH  23  24
ATOM     24  C   UNL     1       1.255  12.309  19.537  0.00  0.00    +0.000 A 
ATOM     25  C   UNL     1       2.210  12.559  18.543  0.00  0.00    +0.000 A 
ATOM     26  C   UNL     1       2.560  13.864  18.182  0.00  0.00    +0.000 A 
ATOM     27  C   UNL     1       1.928  14.958  18.772  0.00  0.00    +0.000 A 
ATOM     28  C   UNL     1       2.316  16.356  18.393  0.00  0.00    +0.000 C 
ATOM     29  C   UNL     1       0.890  14.724  19.676  0.00  0.00    +0.000 A 
ATOM     30  C   UNL     1       0.551  13.416  20.044  0.00  0.00    +0.000 A 
ENDBRANCH  23  24
BRANCH  23  31
ATOM     31  C   UNL     1       0.217  11.006  21.387  0.00  0.00    +0.000 C 
BRANCH  31  32
ATOM     32  C   UNL     1       0.418   9.814  22.300  0.00  0.00    +0.000 C 
ATOM     33  O   UNL     1       1.521   9.354  22.565  0.00  0.00    +0.000 OA
BRANCH  32  34
ATOM     34  O   UNL     1      -0.705   9.354  22.898  0.00  0.00    +0.000 OA
ATOM     35  H   UNL     1      -1.510   9.859  22.634  0.00  0.00    +0.000 HD
ENDBRANCH  32  34
ENDBRANCH  31  32
ENDBRANCH  23  31
ENDBRANCH  19  23
ENDBRANCH   1  19
TORSDOF 13
ENDMDL
MODEL 4
REMARK VINA RESULT:      -7.8      0.865      1.525
REMARK  Name = 
REMARK  16 active torsions:
REMARK  status: ('A' for Active; 'I' for Inactive)
REMARK    1  A    between atoms: C_1  and  C_2
REMARK    2  A    between atoms: C_2  and  C_3
REMARK    3  A    between atoms: C_3  and  N_4
REMARK    4  A    between atoms: N_4  and  C_5
REMARK    5  A    between atoms: N_4  and  C_23
REMARK    6  A    between atoms: C_5  and  C_6
REMARK    7  A    between atoms: C_9  and  O_10
REMARK    8  A    between atoms: O_10  and  C_11
REMARK    9  A    between atoms: C_11  and  C_12
REMARK   10  A    between atoms: C_12  and  N_13
REMARK   11  A    between atoms: C_20  and  C_21
REMARK   12  A    between atoms: C_23  and  C_24
REMARK   13  A    between atoms: C_23  and  C_28
REMARK   14  A    between atoms: C_24  and  C_25
REMARK   15  A    between atoms: C_25  and  O_27
REMARK   16  A    between atoms: C_31  and  C_32
REMARK                            x       y       z     vdW  Elec       q    Type
REMARK                         _______ _______ _______ _____ _____    ______ ____
ROOT
ATOM      1  C   UNL     1       1.815   9.762  18.295  0.00  0.00    +0.000 C 
ENDROOT
BRANCH   1   2
ATOM      2  C   UNL     1       2.315   8.341  18.266  0.00  0.00    +0.000 A 
ATOM      3  C   UNL     1       2.071   7.536  19.363  0.00  0.00    +0.000 A 
ATOM      4  C   UNL     1       2.734   6.337  19.531  0.00  0.00    +0.000 A 
ATOM      5  C   UNL     1       3.756   5.920  18.657  0.00  0.00    +0.000 A 
ATOM      6  C   UNL     1       4.022   6.725  17.530  0.00  0.00    +0.000 A 
ATOM      7  C   UNL     1       5.210   6.540  16.624  0.00  0.00    +0.000 C 
ATOM      8  C   UNL     1       3.249   7.898  17.320  0.00  0.00    +0.000 A 
BRANCH   5   9
ATOM      9  O   UNL     1       4.521   4.781  18.916  0.00  0.00    +0.000 OA
BRANCH   9  10
ATOM     10  C   UNL     1       4.279   3.736  17.951  0.00  0.00    +0.000 C 
BRANCH  10  11
ATOM     11  C   UNL     1       3.800   2.370  18.449  0.00  0.00    +0.000 C 
BRANCH  11  12
ATOM     12  N   UNL     1       2.653   2.561  19.358  0.00  0.00    +0.000 N 
ATOM     13  C   UNL     1       1.449   3.068  18.956  0.00  0.00    +0.000 C 
ATOM     14  O   UNL     1       1.132   3.369  17.816  0.00  0.00    +0.000 OA
ATOM     15  C   UNL     1       0.561   3.255  20.155  0.00  0.00    +0.000 C 
ATOM     16  C   UNL     1       1.477   3.012  21.338  0.00  0.00    +0.000 C 
ATOM     17  C   UNL     1       2.779   2.589  20.718  0.00  0.00    +0.000 C 
ATOM     18  O   UNL     1       3.797   2.375  21.358  0.00  0.00    +0.000 OA
ENDBRANCH  11  12
ENDBRANCH  10  11
ENDBRANCH   9  10
ENDBRANCH   5   9
ENDBRANCH   1   2
BRANCH   1  19
ATOM     19  N   UNL     1       0.608  10.123  19.078  0.00  0.00    +0.000 NA
BRANCH  19  20
ATOM     20  C   UNL     1      -0.458  10.468  18.095  0.00  0.00    +0.000 C 
BRANCH  20  22
ATOM     21  C   UNL     1      -2.776   9.891  17.296  0.00  0.00    +0.000 C 
ATOM     22  C   UNL     1      -1.879  10.055  18.514  0.00  0.00    +0.000 C 
ENDBRANCH  20  22
ENDBRANCH  19  20
BRANCH  19  23
ATOM     23  C   UNL     1       0.841  11.196  20.119  0.00  0.00    +0.000 C 
BRANCH  23  24
ATOM     24  C   UNL     1       0.544  12.651  19.737  0.00  0.00    +0.000 A 
ATOM     25  C   UNL     1      -0.650  13.299  20.076  0.00  0.00    +0.000 A 
ATOM     26  C   UNL     1      -0.913  14.606  19.656  0.00  0.00    +0.000 A 
ATOM     27  C   UNL     1       0.034  15.321  18.923  0.00  0.00    +0.000 A 
ATOM     28  C   UNL     1      -0.257  16.718  18.463  0.00  0.00    +0.000 C 
ATOM     29  C   UNL     1       1.277  14.733  18.681  0.00  0.00    +0.000 A 
ATOM     30  C   UNL     1       1.531  13.418  19.093  0.00  0.00    +0.000 A 
ENDBRANCH  23  24
BRANCH  23  31
ATOM     31  C   UNL     1       0.140  10.895  21.456  0.00  0.00    +0.000 C 
BRANCH  31  32
ATOM     32  C   UNL     1       0.461   9.543  22.061  0.00  0.00    +0.000 C 
ATOM     33  O   UNL     1       1.343   9.376  22.891  0.00  0.00    +0.000 OA
BRANCH  32  34
ATOM     34  O   UNL     1      -0.374   8.542  21.699  0.00  0.00    +0.000 OA
ATOM     35  H   UNL     1      -1.275   8.638  22.090  0.00  0.00    +0.000 HD
ENDBRANCH  32  34
ENDBRANCH  31  32
ENDBRANCH  23  31
ENDBRANCH  19  23
ENDBRANCH   1  19
TORSDOF 13
ENDMDL
MODEL 5
REMARK VINA RESULT:      -7.8      1.345      1.896
REMARK  Name = 
REMARK  16 active torsions:
REMARK  status: ('A' for Active; 'I' for Inactive)
REMARK    1  A    between atoms: C_1  and  C_2
REMARK    2  A    between atoms: C_2  and  C_3
REMARK    3  A    between atoms: C_3  and  N_4
REMARK    4  A    between atoms: N_4  and  C_5
REMARK    5  A    between atoms: N_4  and  C_23
REMARK    6  A    between atoms: C_5  and  C_6
REMARK    7  A    between atoms: C_9  and  O_10
REMARK    8  A    between atoms: O_10  and  C_11
REMARK    9  A    between atoms: C_11  and  C_12
REMARK   10  A    between atoms: C_12  and  N_13
REMARK   11  A    between atoms: C_20  and  C_21
REMARK   12  A    between atoms: C_23  and  C_24
REMARK   13  A    between atoms: C_23  and  C_28
REMARK   14  A    between atoms: C_24  and  C_25
REMARK   15  A    between atoms: C_25  and  O_27
REMARK   16  A    between atoms: C_31  and  C_32
REMARK                            x       y       z     vdW  Elec       q    Type
REMARK                         _______ _______ _______ _____ _____    ______ ____
ROOT
ATOM      1  C   UNL     1       0.467   9.925  18.270  0.00  0.00    +0.000 C 
ENDROOT
BRANCH   1   2
ATOM      2  C   UNL     1       1.584   8.965  18.591  0.00  0.00    +0.000 A 
ATOM      3  C   UNL     1       2.552   8.739  17.630  0.00  0.00    +0.000 A 
ATOM      4  C   UNL     1       3.428   7.677  17.736  0.00  0.00    +0.000 A 
ATOM      5  C   UNL     1       3.321   6.719  18.761  0.00  0.00    +0.000 A 
ATOM      6  C   UNL     1       2.341   6.929  19.752  0.00  0.00    +0.000 A 
ATOM      7  C   UNL     1       1.954   5.904  20.786  0.00  0.00    +0.000 C 
ATOM      8  C   UNL     1       1.524   8.089  19.683  0.00  0.00    +0.000 A 
BRANCH   5   9
ATOM      9  O   UNL     1       4.115   5.571  18.775  0.00  0.00    +0.000 OA
BRANCH   9  10
ATOM     10  C   UNL     1       4.330   5.046  17.448  0.00  0.00    +0.000 C 
BRANCH  10  11
ATOM     11  C   UNL     1       3.743   3.678  17.092  0.00  0.00    +0.000 C 
BRANCH  11  12
ATOM     12  N   UNL     1       2.781   3.278  18.137  0.00  0.00    +0.000 N 
ATOM     13  C   UNL     1       3.054   2.343  19.096  0.00  0.00    +0.000 C 
ATOM     14  O   UNL     1       4.117   1.767  19.266  0.00  0.00    +0.000 OA
ATOM     15  C   UNL     1       1.815   2.079  19.905  0.00  0.00    +0.000 C 
ATOM     16  C   UNL     1       0.718   2.806  19.153  0.00  0.00    +0.000 C 
ATOM     17  C   UNL     1       1.439   3.523  18.047  0.00  0.00    +0.000 C 
ATOM     18  O   UNL     1       0.875   4.164  17.173  0.00  0.00    +0.000 OA
ENDBRANCH  11  12
ENDBRANCH  10  11
ENDBRANCH   9  10
ENDBRANCH   5   9
ENDBRANCH   1   2
BRANCH   1  19
ATOM     19  N   UNL     1      -0.587  10.220  19.271  0.00  0.00    +0.000 NA
BRANCH  19  20
ATOM     20  C   UNL     1      -1.829  10.537  18.510  0.00  0.00    +0.000 C 
BRANCH  20  22
ATOM     21  C   UNL     1      -2.672  10.865  16.159  0.00  0.00    +0.000 C 
ATOM     22  C   UNL     1      -1.878   9.956  17.087  0.00  0.00    +0.000 C 
ENDBRANCH  20  22
ENDBRANCH  19  20
BRANCH  19  23
ATOM     23  C   UNL     1      -0.206  11.284  20.278  0.00  0.00    +0.000 C 
BRANCH  23  24
ATOM     24  C   UNL     1       0.486  12.551  19.763  0.00  0.00    +0.000 A 
ATOM     25  C   UNL     1      -0.217  13.647  19.245  0.00  0.00    +0.000 A 
ATOM     26  C   UNL     1       0.451  14.760  18.727  0.00  0.00    +0.000 A 
ATOM     27  C   UNL     1       1.843  14.831  18.756  0.00  0.00    +0.000 A 
ATOM     28  C   UNL     1       2.556  16.021  18.186  0.00  0.00    +0.000 C 
ATOM     29  C   UNL     1       2.553  13.801  19.377  0.00  0.00    +0.000 A 
ATOM     30  C   UNL     1       1.881  12.683  19.884  0.00  0.00    +0.000 A 
ENDBRANCH  23  24
BRANCH  23  31
ATOM     31  C   UNL     1      -1.383  11.706  21.174  0.00  0.00    +0.000 C 
BRANCH  31  32
ATOM     32  C   UNL     1      -1.250  11.325  22.635  0.00  0.00    +0.000 C 
ATOM     33  O   UNL     1      -2.170  11.416  23.436  0.00  0.00    +0.000 OA
BRANCH  32  34
ATOM     34  O   UNL     1      -0.065  10.766  22.975  0.00  0.00    +0.000 OA
ATOM     35  H   UNL     1       0.251  11.057  23.863  0.00  0.00    +0.000 HD
ENDBRANCH  32  34
ENDBRANCH  31  32
ENDBRANCH  23  31
ENDBRANCH  19  23
ENDBRANCH   1  19
TORSDOF 13
ENDMDL
MODEL 6
REMARK VINA RESULT:      -7.7      2.685      8.456
REMARK  Name = 
REMARK  16 active torsions:
REMARK  status: ('A' for Active; 'I' for Inactive)
REMARK    1  A    between atoms: C_1  and  C_2
REMARK    2  A    between atoms: C_2  and  C_3
REMARK    3  A    between atoms: C_3  and  N_4
REMARK    4  A    between atoms: N_4  and  C_5
REMARK    5  A    between atoms: N_4  and  C_23
REMARK    6  A    between atoms: C_5  and  C_6
REMARK    7  A    between atoms: C_9  and  O_10
REMARK    8  A    between atoms: O_10  and  C_11
REMARK    9  A    between atoms: C_11  and  C_12
REMARK   10  A    between atoms: C_12  and  N_13
REMARK   11  A    between atoms: C_20  and  C_21
REMARK   12  A    between atoms: C_23  and  C_24
REMARK   13  A    between atoms: C_23  and  C_28
REMARK   14  A    between atoms: C_24  and  C_25
REMARK   15  A    between atoms: C_25  and  O_27
REMARK   16  A    between atoms: C_31  and  C_32
REMARK                            x       y       z     vdW  Elec       q    Type
REMARK                         _______ _______ _______ _____ _____    ______ ____
ROOT
ATOM      1  C   UNL     1       2.527   5.733  20.135  0.00  0.00    +0.000 C 
ENDROOT
BRANCH   1   2
ATOM      2  C   UNL     1       2.068   7.168  20.174  0.00  0.00    +0.000 A 
ATOM      3  C   UNL     1       1.151   7.538  21.141  0.00  0.00    +0.000 A 
ATOM      4  C   UNL     1       0.476   8.739  21.061  0.00  0.00    +0.000 A 
ATOM      5  C   UNL     1       0.607   9.598  19.954  0.00  0.00    +0.000 A 
ATOM      6  C   UNL     1       1.537   9.242  18.956  0.00  0.00    +0.000 A 
ATOM      7  C   UNL     1       1.645   9.928  17.620  0.00  0.00    +0.000 C 
ATOM      8  C   UNL     1       2.301   8.055  19.114  0.00  0.00    +0.000 A 
BRANCH   5   9
ATOM      9  O   UNL     1      -0.188  10.737  19.813  0.00  0.00    +0.000 OA
BRANCH   9  10
ATOM     10  C   UNL     1      -1.301  10.512  18.921  0.00  0.00    +0.000 C 
BRANCH  10  11
ATOM     11  C   UNL     1      -1.816  11.680  18.077  0.00  0.00    +0.000 C 
BRANCH  11  12
ATOM     12  N   UNL     1      -3.285  11.750  18.191  0.00  0.00    +0.000 N 
ATOM     13  C   UNL     1      -3.934  12.183  19.313  0.00  0.00    +0.000 C 
ATOM     14  O   UNL     1      -3.417  12.621  20.329  0.00  0.00    +0.000 OA
ATOM     15  C   UNL     1      -5.416  11.994  19.138  0.00  0.00    +0.000 C 
ATOM     16  C   UNL     1      -5.539  11.182  17.864  0.00  0.00    +0.000 C 
ATOM     17  C   UNL     1      -4.130  11.077  17.354  0.00  0.00    +0.000 C 
ATOM     18  O   UNL     1      -3.810  10.423  16.373  0.00  0.00    +0.000 OA
ENDBRANCH  11  12
ENDBRANCH  10  11
ENDBRANCH   9  10
ENDBRANCH   5   9
ENDBRANCH   1   2
BRANCH   1  19
ATOM     19  N   UNL     1       2.218   4.872  18.967  0.00  0.00    +0.000 NA
BRANCH  19  20
ATOM     20  C   UNL     1       1.254   3.836  19.438  0.00  0.00    +0.000 C 
BRANCH  20  22
ATOM     21  C   UNL     1       1.541   2.504  21.557  0.00  0.00    +0.000 C 
ATOM     22  C   UNL     1       1.031   3.808  20.959  0.00  0.00    +0.000 C 
ENDBRANCH  20  22
ENDBRANCH  19  20
BRANCH  19  23
ATOM     23  C   UNL     1       3.438   4.295  18.282  0.00  0.00    +0.000 C 
BRANCH  23  24
ATOM     24  C   UNL     1       4.648   5.212  18.068  0.00  0.00    +0.000 A 
ATOM     25  C   UNL     1       5.850   5.064  18.771  0.00  0.00    +0.000 A 
ATOM     26  C   UNL     1       6.911   5.957  18.596  0.00  0.00    +0.000 A 
ATOM     27  C   UNL     1       6.816   7.000  17.674  0.00  0.00    +0.000 A 
ATOM     28  C   UNL     1       7.950   7.965  17.498  0.00  0.00    +0.000 C 
ATOM     29  C   UNL     1       5.672   7.089  16.879  0.00  0.00    +0.000 A 
ATOM     30  C   UNL     1       4.607   6.199  17.067  0.00  0.00    +0.000 A 
ENDBRANCH  23  24
BRANCH  23  31
ATOM     31  C   UNL     1       3.929   2.991  18.934  0.00  0.00    +0.000 C 
BRANCH  31  32
ATOM     32  C   UNL     1       3.547   1.721  18.202  0.00  0.00    +0.000 C 
ATOM     33  O   UNL     1       2.644   1.671  17.378  0.00  0.00    +0.000 OA
BRANCH  32  34
ATOM     34  O   UNL     1       4.350   0.659  18.440  0.00  0.00    +0.000 OA
ATOM     35  H   UNL     1       4.211  -0.076  17.796  0.00  0.00    +0.000 HD
ENDBRANCH  32  34
ENDBRANCH  31  32
ENDBRANCH  23  31
ENDBRANCH  19  23
ENDBRANCH   1  19
TORSDOF 13
ENDMDL
MODEL 7
REMARK VINA RESULT:      -7.7      1.178      1.937
REMARK  Name = 
REMARK  16 active torsions:
REMARK  status: ('A' for Active; 'I' for Inactive)
REMARK    1  A    between atoms: C_1  and  C_2
REMARK    2  A    between atoms: C_2  and  C_3
REMARK    3  A    between atoms: C_3  and  N_4
REMARK    4  A    between atoms: N_4  and  C_5
REMARK    5  A    between atoms: N_4  and  C_23
REMARK    6  A    between atoms: C_5  and  C_6
REMARK    7  A    between atoms: C_9  and  O_10
REMARK    8  A    between atoms: O_10  and  C_11
REMARK    9  A    between atoms: C_11  and  C_12
REMARK   10  A    between atoms: C_12  and  N_13
REMARK   11  A    between atoms: C_20  and  C_21
REMARK   12  A    between atoms: C_23  and  C_24
REMARK   13  A    between atoms: C_23  and  C_28
REMARK   14  A    between atoms: C_24  and  C_25
REMARK   15  A    between atoms: C_25  and  O_27
REMARK   16  A    between atoms: C_31  and  C_32
REMARK                            x       y       z     vdW  Elec       q    Type
REMARK                         _______ _______ _______ _____ _____    ______ ____
ROOT
ATOM      1  C   UNL     1       1.945   9.319  18.134  0.00  0.00    +0.000 C 
ENDROOT
BRANCH   1   2
ATOM      2  C   UNL     1       2.550   7.940  18.071  0.00  0.00    +0.000 A 
ATOM      3  C   UNL     1       2.577   7.181  19.227  0.00  0.00    +0.000 A 
ATOM      4  C   UNL     1       3.359   6.048  19.317  0.00  0.00    +0.000 A 
ATOM      5  C   UNL     1       4.237   5.661  18.287  0.00  0.00    +0.000 A 
ATOM      6  C   UNL     1       4.225   6.419  17.099  0.00  0.00    +0.000 A 
ATOM      7  C   UNL     1       5.241   6.274  15.997  0.00  0.00    +0.000 C 
ATOM      8  C   UNL     1       3.331   7.517  16.987  0.00  0.00    +0.000 A 
BRANCH   5   9
ATOM      9  O   UNL     1       5.130   4.599  18.447  0.00  0.00    +0.000 OA
BRANCH   9  10
ATOM     10  C   UNL     1       4.843   3.825  19.631  0.00  0.00    +0.000 C 
BRANCH  10  11
ATOM     11  C   UNL     1       4.285   2.410  19.468  0.00  0.00    +0.000 C 
BRANCH  11  12
ATOM     12  N   UNL     1       2.817   2.448  19.617  0.00  0.00    +0.000 N 
ATOM     13  C   UNL     1       1.958   2.656  18.575  0.00  0.00    +0.000 C 
ATOM     14  O   UNL     1       2.260   2.773  17.397  0.00  0.00    +0.000 OA
ATOM     15  C   UNL     1       0.554   2.773  19.099  0.00  0.00    +0.000 C 
ATOM     16  C   UNL     1       0.723   2.838  20.604  0.00  0.00    +0.000 C 
ATOM     17  C   UNL     1       2.196   2.633  20.821  0.00  0.00    +0.000 C 
ATOM     18  O   UNL     1       2.736   2.695  21.914  0.00  0.00    +0.000 OA
ENDBRANCH  11  12
ENDBRANCH  10  11
ENDBRANCH   9  10
ENDBRANCH   5   9
ENDBRANCH   1   2
BRANCH   1  19
ATOM     19  N   UNL     1       0.670   9.553  18.855  0.00  0.00    +0.000 NA
BRANCH  19  20
ATOM     20  C   UNL     1      -0.186  10.384  17.962  0.00  0.00    +0.000 C 
BRANCH  20  22
ATOM     21  C   UNL     1      -2.704  10.343  18.013  0.00  0.00    +0.000 C 
ATOM     22  C   UNL     1      -1.454   9.682  17.449  0.00  0.00    +0.000 C 
ENDBRANCH  20  22
ENDBRANCH  19  20
BRANCH  19  23
ATOM     23  C   UNL     1       0.839  10.134  20.243  0.00  0.00    +0.000 C 
BRANCH  23  24
ATOM     24  C   UNL     1       0.369  11.572  20.486  0.00  0.00    +0.000 A 
ATOM     25  C   UNL     1      -0.947  11.895  20.841  0.00  0.00    +0.000 A 
ATOM     26  C   UNL     1      -1.355  13.223  20.994  0.00  0.00    +0.000 A 
ATOM     27  C   UNL     1      -0.443  14.268  20.843  0.00  0.00    +0.000 A 
ATOM     28  C   UNL     1      -0.888  15.692  20.994  0.00  0.00    +0.000 C 
ATOM     29  C   UNL     1       0.898  13.958  20.609  0.00  0.00    +0.000 A 
ATOM     30  C   UNL     1       1.299  12.626  20.444  0.00  0.00    +0.000 A 
ENDBRANCH  23  24
BRANCH  23  31
ATOM     31  C   UNL     1       0.242   9.237  21.342  0.00  0.00    +0.000 C 
BRANCH  31  32
ATOM     32  C   UNL     1       0.810   9.456  22.730  0.00  0.00    +0.000 C 
ATOM     33  O   UNL     1       0.116   9.731  23.699  0.00  0.00    +0.000 OA
BRANCH  32  34
ATOM     34  O   UNL     1       2.136   9.217  22.850  0.00  0.00    +0.000 OA
ATOM     35  H   UNL     1       2.438   9.215  23.789  0.00  0.00    +0.000 HD
ENDBRANCH  32  34
ENDBRANCH  31  32
ENDBRANCH  23  31
ENDBRANCH  19  23
ENDBRANCH   1  19
TORSDOF 13
ENDMDL
MODEL 8
REMARK VINA RESULT:      -7.7      3.234      8.854
REMARK  Name = 
REMARK  16 active torsions:
REMARK  status: ('A' for Active; 'I' for Inactive)
REMARK    1  A    between atoms: C_1  and  C_2
REMARK    2  A    between atoms: C_2  and  C_3
REMARK    3  A    between atoms: C_3  and  N_4
REMARK    4  A    between atoms: N_4  and  C_5
REMARK    5  A    between atoms: N_4  and  C_23
REMARK    6  A    between atoms: C_5  and  C_6
REMARK    7  A    between atoms: C_9  and  O_10
REMARK    8  A    between atoms: O_10  and  C_11
REMARK    9  A    between atoms: C_11  and  C_12
REMARK   10  A    between atoms: C_12  and  N_13
REMARK   11  A    between atoms: C_20  and  C_21
REMARK   12  A    between atoms: C_23  and  C_24
REMARK   13  A    between atoms: C_23  and  C_28
REMARK   14  A    between atoms: C_24  and  C_25
REMARK   15  A    between atoms: C_25  and  O_27
REMARK   16  A    between atoms: C_31  and  C_32
REMARK                            x       y       z     vdW  Elec       q    Type
REMARK                         _______ _______ _______ _____ _____    ______ ____
ROOT
ATOM      1  C   UNL     1       3.982   5.828  18.734  0.00  0.00    +0.000 C 
ENDROOT
BRANCH   1   2
ATOM      2  C   UNL     1       2.872   6.843  18.828  0.00  0.00    +0.000 A 
ATOM      3  C   UNL     1       2.711   7.738  17.786  0.00  0.00    +0.000 A 
ATOM      4  C   UNL     1       1.920   8.861  17.926  0.00  0.00    +0.000 A 
ATOM      5  C   UNL     1       1.321   9.205  19.153  0.00  0.00    +0.000 A 
ATOM      6  C   UNL     1       1.471   8.306  20.229  0.00  0.00    +0.000 A 
ATOM      7  C   UNL     1       1.082   8.620  21.649  0.00  0.00    +0.000 C 
ATOM      8  C   UNL     1       2.198   7.102  20.029  0.00  0.00    +0.000 A 
BRANCH   5   9
ATOM      9  O   UNL     1       0.647  10.415  19.323  0.00  0.00    +0.000 OA
BRANCH   9  10
ATOM     10  C   UNL     1      -0.675  10.384  18.746  0.00  0.00    +0.000 C 
BRANCH  10  11
ATOM     11  C   UNL     1      -1.254  11.674  18.159  0.00  0.00    +0.000 C 
BRANCH  11  12
ATOM     12  N   UNL     1      -2.698  11.492  17.919  0.00  0.00    +0.000 N 
ATOM     13  C   UNL     1      -3.229  11.215  16.690  0.00  0.00    +0.000 C 
ATOM     14  O   UNL     1      -2.608  11.022  15.657  0.00  0.00    +0.000 OA
ATOM     15  C   UNL     1      -4.730  11.232  16.779  0.00  0.00    +0.000 C 
ATOM     16  C   UNL     1      -5.014  11.781  18.163  0.00  0.00    +0.000 C 
ATOM     17  C   UNL     1      -3.658  11.919  18.793  0.00  0.00    +0.000 C 
ATOM     18  O   UNL     1      -3.468  12.407  19.897  0.00  0.00    +0.000 OA
ENDBRANCH  11  12
ENDBRANCH  10  11
ENDBRANCH   9  10
ENDBRANCH   5   9
ENDBRANCH   1   2
BRANCH   1  19
ATOM     19  N   UNL     1       4.154   5.007  17.510  0.00  0.00    +0.000 NA
BRANCH  19  20
ATOM     20  C   UNL     1       4.199   3.583  17.946  0.00  0.00    +0.000 C 
BRANCH  20  22
ATOM     21  C   UNL     1       3.602   2.515  20.149  0.00  0.00    +0.000 C 
ATOM     22  C   UNL     1       4.621   3.372  19.410  0.00  0.00    +0.000 C 
ENDBRANCH  20  22
ENDBRANCH  19  20
BRANCH  19  23
ATOM     23  C   UNL     1       5.332   5.415  16.651  0.00  0.00    +0.000 C 
BRANCH  23  24
ATOM     24  C   UNL     1       6.352   6.395  17.242  0.00  0.00    +0.000 A 
ATOM     25  C   UNL     1       7.371   6.000  18.118  0.00  0.00    +0.000 A 
ATOM     26  C   UNL     1       8.244   6.932  18.686  0.00  0.00    +0.000 A 
ATOM     27  C   UNL     1       8.154   8.284  18.355  0.00  0.00    +0.000 A 
ATOM     28  C   UNL     1       9.083   9.283  18.977  0.00  0.00    +0.000 C 
ATOM     29  C   UNL     1       7.223   8.677  17.392  0.00  0.00    +0.000 A 
ATOM     30  C   UNL     1       6.342   7.741  16.835  0.00  0.00    +0.000 A 
ENDBRANCH  23  24
BRANCH  23  31
ATOM     31  C   UNL     1       6.098   4.209  16.077  0.00  0.00    +0.000 C 
BRANCH  31  32
ATOM     32  C   UNL     1       6.494   4.332  14.620  0.00  0.00    +0.000 C 
ATOM     33  O   UNL     1       6.127   3.544  13.759  0.00  0.00    +0.000 OA
BRANCH  32  34
ATOM     34  O   UNL     1       7.198   5.445  14.310  0.00  0.00    +0.000 OA
ATOM     35  H   UNL     1       7.891   5.655  14.980  0.00  0.00    +0.000 HD
ENDBRANCH  32  34
ENDBRANCH  31  32
ENDBRANCH  23  31
ENDBRANCH  19  23
ENDBRANCH   1  19
TORSDOF 13
ENDMDL
MODEL 9
REMARK VINA RESULT:      -7.7      2.678      8.506
REMARK  Name = 
REMARK  16 active torsions:
REMARK  status: ('A' for Active; 'I' for Inactive)
REMARK    1  A    between atoms: C_1  and  C_2
REMARK    2  A    between atoms: C_2  and  C_3
REMARK    3  A    between atoms: C_3  and  N_4
REMARK    4  A    between atoms: N_4  and  C_5
REMARK    5  A    between atoms: N_4  and  C_23
REMARK    6  A    between atoms: C_5  and  C_6
REMARK    7  A    between atoms: C_9  and  O_10
REMARK    8  A    between atoms: O_10  and  C_11
REMARK    9  A    between atoms: C_11  and  C_12
REMARK   10  A    between atoms: C_12  and  N_13
REMARK   11  A    between atoms: C_20  and  C_21
REMARK   12  A    between atoms: C_23  and  C_24
REMARK   13  A    between atoms: C_23  and  C_28
REMARK   14  A    between atoms: C_24  and  C_25
REMARK   15  A    between atoms: C_25  and  O_27
REMARK   16  A    between atoms: C_31  and  C_32
REMARK                            x       y       z     vdW  Elec       q    Type
REMARK                         _______ _______ _______ _____ _____    ______ ____
ROOT
ATOM      1  C   UNL     1       2.462   5.717  20.140  0.00  0.00    +0.000 C 
ENDROOT
BRANCH   1   2
ATOM      2  C   UNL     1       2.130   7.187  20.135  0.00  0.00    +0.000 A 
ATOM      3  C   UNL     1       1.314   7.678  21.137  0.00  0.00    +0.000 A 
ATOM      4  C   UNL     1       0.739   8.929  21.039  0.00  0.00    +0.000 A 
ATOM      5  C   UNL     1       0.870   9.724  19.885  0.00  0.00    +0.000 A 
ATOM      6  C   UNL     1       1.698   9.243  18.850  0.00  0.00    +0.000 A 
ATOM      7  C   UNL     1       1.775   9.857  17.478  0.00  0.00    +0.000 C 
ATOM      8  C   UNL     1       2.367   8.002  19.020  0.00  0.00    +0.000 A 
BRANCH   5   9
ATOM      9  O   UNL     1       0.166  10.920  19.737  0.00  0.00    +0.000 OA
BRANCH   9  10
ATOM     10  C   UNL     1      -1.252  10.698  19.580  0.00  0.00    +0.000 C 
BRANCH  10  11
ATOM     11  C   UNL     1      -2.177  11.910  19.448  0.00  0.00    +0.000 C 
BRANCH  11  12
ATOM     12  N   UNL     1      -3.287  11.575  18.535  0.00  0.00    +0.000 N 
ATOM     13  C   UNL     1      -3.119  11.345  17.198  0.00  0.00    +0.000 C 
ATOM     14  O   UNL     1      -2.059  11.319  16.592  0.00  0.00    +0.000 OA
ATOM     15  C   UNL     1      -4.464  11.172  16.549  0.00  0.00    +0.000 C 
ATOM     16  C   UNL     1      -5.452  11.558  17.631  0.00  0.00    +0.000 C 
ATOM     17  C   UNL     1      -4.599  11.805  18.842  0.00  0.00    +0.000 C 
ATOM     18  O   UNL     1      -5.034  12.214  19.908  0.00  0.00    +0.000 OA
ENDBRANCH  11  12
ENDBRANCH  10  11
ENDBRANCH   9  10
ENDBRANCH   5   9
ENDBRANCH   1   2
BRANCH   1  19
ATOM     19  N   UNL     1       2.164   4.871  18.958  0.00  0.00    +0.000 NA
BRANCH  19  20
ATOM     20  C   UNL     1       1.195   3.830  19.404  0.00  0.00    +0.000 C 
BRANCH  20  22
ATOM     21  C   UNL     1       1.467   2.489  21.519  0.00  0.00    +0.000 C 
ATOM     22  C   UNL     1       0.948   3.789  20.922  0.00  0.00    +0.000 C 
ENDBRANCH  20  22
ENDBRANCH  19  20
BRANCH  19  23
ATOM     23  C   UNL     1       3.391   4.302  18.277  0.00  0.00    +0.000 C 
BRANCH  23  24
ATOM     24  C   UNL     1       4.600   5.224  18.078  0.00  0.00    +0.000 A 
ATOM     25  C   UNL     1       5.775   5.113  18.831  0.00  0.00    +0.000 A 
ATOM     26  C   UNL     1       6.833   6.011  18.665  0.00  0.00    +0.000 A 
ATOM     27  C   UNL     1       6.765   7.020  17.703  0.00  0.00    +0.000 A 
ATOM     28  C   UNL     1       7.896   7.990  17.537  0.00  0.00    +0.000 C 
ATOM     29  C   UNL     1       5.651   7.069  16.863  0.00  0.00    +0.000 A 
ATOM     30  C   UNL     1       4.588   6.174  17.042  0.00  0.00    +0.000 A 
ENDBRANCH  23  24
BRANCH  23  31
ATOM     31  C   UNL     1       3.881   2.995  18.926  0.00  0.00    +0.000 C 
BRANCH  31  32
ATOM     32  C   UNL     1       3.524   1.729  18.174  0.00  0.00    +0.000 C 
ATOM     33  O   UNL     1       2.706   1.701  17.265  0.00  0.00    +0.000 OA
BRANCH  32  34
ATOM     34  O   UNL     1       4.257   0.641  18.504  0.00  0.00    +0.000 OA
ATOM     35  H   UNL     1       3.845   0.109  19.225  0.00  0.00    +0.000 HD
ENDBRANCH  32  34
ENDBRANCH  31  32
ENDBRANCH  23  31
ENDBRANCH  19  23
ENDBRANCH   1  19
TORSDOF 13
ENDMDL
