MODEL 1
REMARK VINA RESULT:      -6.9      0.000      0.000
REMARK  Name = 
REMARK  7 active torsions:
REMARK  status: ('A' for Active; 'I' for Inactive)
REMARK    1  A    between atoms: C_1  and  O_2
REMARK    2  A    between atoms: O_2  and  C_3
REMARK    3  A    between atoms: C_8  and  C_9
REMARK    4  A    between atoms: C_9  and  C_10
REMARK    5  A    between atoms: N_12  and  C_13
REMARK    6  A    between atoms: C_13  and  C_14
REMARK    7  A    between atoms: C_17  and  C_18
REMARK                            x       y       z     vdW  Elec       q    Type
REMARK                         _______ _______ _______ _____ _____    ______ ____
ROOT
ATOM      1  C   UNL     1       8.305   8.886  18.258  0.00  0.00    +0.000 C 
ATOM      2  O   UNL     1       8.923   8.248  19.113  0.00  0.00    +0.000 OA
ATOM      3  N   UNL     1       7.463   8.299  17.346  0.00  0.00    +0.000 N 
ATOM      4  H   UNL     1       7.289   8.808  16.486  0.00  0.00    +0.000 HD
ENDROOT
BRANCH   1   5
ATOM      5  C   UNL     1       8.352  10.402  18.174  0.00  0.00    +0.000 C 
BRANCH   5  11
ATOM      6  C   UNL     1       9.892  11.308  20.005  0.00  0.00    +0.000 A 
ATOM      7  C   UNL     1      11.105  11.911  20.373  0.00  0.00    +0.000 A 
ATOM      8  C   UNL     1      12.096  12.160  19.422  0.00  0.00    +0.000 A 
ATOM      9  C   UNL     1      11.881  11.817  18.094  0.00  0.00    +0.000 A 
ATOM     10  C   UNL     1      10.662  11.262  17.708  0.00  0.00    +0.000 A 
ATOM     11  C   UNL     1       9.646  11.018  18.651  0.00  0.00    +0.000 A 
BRANCH   6  13
ATOM     12  C   UNL     1       8.591  11.970  21.870  0.00  0.00    +0.000 C 
ATOM     13  O   UNL     1       8.911  10.970  20.905  0.00  0.00    +0.000 OA
ENDBRANCH   6  13
ENDBRANCH   5  11
ENDBRANCH   1   5
BRANCH   3  14
ATOM     14  C   UNL     1       7.316   6.866  17.272  0.00  0.00    +0.000 C 
BRANCH  14  15
ATOM     15  C   UNL     1       5.891   6.521  17.567  0.00  0.00    +0.000 A 
ATOM     16  C   UNL     1       4.777   7.131  17.022  0.00  0.00    +0.000 A 
ATOM     17  S   UNL     1       3.351   6.420  17.637  0.00  0.00    +0.000 S 
ATOM     18  C   UNL     1       4.296   5.349  18.601  0.00  0.00    +0.000 A 
ATOM     19  N   UNL     1       5.602   5.491  18.462  0.00  0.00    +0.000 NA
BRANCH  18  20
ATOM     20  C   UNL     1       3.732   4.376  19.512  0.00  0.00    +0.000 A 
ATOM     21  C   UNL     1       4.139   3.058  19.648  0.00  0.00    +0.000 A 
ATOM     22  C   UNL     1       3.419   2.351  20.656  0.00  0.00    +0.000 A 
ATOM     23  C   UNL     1       2.471   3.144  21.259  0.00  0.00    +0.000 A 
ATOM     24  S   UNL     1       2.450   4.721  20.604  0.00  0.00    +0.000 S 
ENDBRANCH  18  20
ENDBRANCH  14  15
ENDBRANCH   3  14
TORSDOF 6
ENDMDL
MODEL 2
REMARK VINA RESULT:      -6.8      5.827      9.135
REMARK  Name = 
REMARK  7 active torsions:
REMARK  status: ('A' for Active; 'I' for Inactive)
REMARK    1  A    between atoms: C_1  and  O_2
REMARK    2  A    between atoms: O_2  and  C_3
REMARK    3  A    between atoms: C_8  and  C_9
REMARK    4  A    between atoms: C_9  and  C_10
REMARK    5  A    between atoms: N_12  and  C_13
REMARK    6  A    between atoms: C_13  and  C_14
REMARK    7  A    between atoms: C_17  and  C_18
REMARK                            x       y       z     vdW  Elec       q    Type
REMARK                         _______ _______ _______ _____ _____    ______ ____
ROOT
ATOM      1  C   UNL     1       1.957   6.588  19.962  0.00  0.00    +0.000 C 
ATOM      2  O   UNL     1       1.549   5.780  20.799  0.00  0.00    +0.000 OA
ATOM      3  N   UNL     1       1.980   7.944  20.176  0.00  0.00    +0.000 N 
ATOM      4  H   UNL     1       1.978   8.540  19.355  0.00  0.00    +0.000 HD
ENDROOT
BRANCH   1   5
ATOM      5  C   UNL     1       2.550   6.159  18.630  0.00  0.00    +0.000 C 
BRANCH   5  11
ATOM      6  C   UNL     1       4.098   4.165  19.049  0.00  0.00    +0.000 A 
ATOM      7  C   UNL     1       4.369   2.796  18.901  0.00  0.00    +0.000 A 
ATOM      8  C   UNL     1       3.432   1.941  18.320  0.00  0.00    +0.000 A 
ATOM      9  C   UNL     1       2.218   2.448  17.873  0.00  0.00    +0.000 A 
ATOM     10  C   UNL     1       1.957   3.813  17.971  0.00  0.00    +0.000 A 
ATOM     11  C   UNL     1       2.896   4.691  18.540  0.00  0.00    +0.000 A 
BRANCH   6  13
ATOM     12  C   UNL     1       6.184   5.285  19.013  0.00  0.00    +0.000 C 
ATOM     13  O   UNL     1       4.947   5.041  19.679  0.00  0.00    +0.000 OA
ENDBRANCH   6  13
ENDBRANCH   5  11
ENDBRANCH   1   5
BRANCH   3  14
ATOM     14  C   UNL     1       1.436   8.525  21.379  0.00  0.00    +0.000 C 
BRANCH  14  15
ATOM     15  C   UNL     1       0.448   9.578  20.992  0.00  0.00    +0.000 A 
ATOM     16  C   UNL     1       0.105  10.686  21.743  0.00  0.00    +0.000 A 
ATOM     17  S   UNL     1      -1.061  11.624  20.919  0.00  0.00    +0.000 S 
ATOM     18  C   UNL     1      -1.052  10.496  19.616  0.00  0.00    +0.000 A 
ATOM     19  N   UNL     1      -0.214   9.486  19.768  0.00  0.00    +0.000 NA
BRANCH  18  20
ATOM     20  C   UNL     1      -1.897  10.610  18.447  0.00  0.00    +0.000 A 
ATOM     21  C   UNL     1      -1.712   9.950  17.242  0.00  0.00    +0.000 A 
ATOM     22  C   UNL     1      -2.732  10.233  16.286  0.00  0.00    +0.000 A 
ATOM     23  C   UNL     1      -3.666  11.112  16.781  0.00  0.00    +0.000 A 
ATOM     24  S   UNL     1      -3.307  11.593  18.379  0.00  0.00    +0.000 S 
ENDBRANCH  18  20
ENDBRANCH  14  15
ENDBRANCH   3  14
TORSDOF 6
ENDMDL
MODEL 3
REMARK VINA RESULT:      -6.7      6.103      8.981
REMARK  Name = 
REMARK  7 active torsions:
REMARK  status: ('A' for Active; 'I' for Inactive)
REMARK    1  A    between atoms: C_1  and  O_2
REMARK    2  A    between atoms: O_2  and  C_3
REMARK    3  A    between atoms: C_8  and  C_9
REMARK    4  A    between atoms: C_9  and  C_10
REMARK    5  A    between atoms: N_12  and  C_13
REMARK    6  A    between atoms: C_13  and  C_14
REMARK    7  A    between atoms: C_17  and  C_18
REMARK                            x       y       z     vdW  Elec       q    Type
REMARK                         _______ _______ _______ _____ _____    ______ ____
ROOT
ATOM      1  C   UNL     1       3.503   6.755  18.423  0.00  0.00    +0.000 C 
ATOM      2  O   UNL     1       4.328   6.848  17.512  0.00  0.00    +0.000 OA
ATOM      3  N   UNL     1       2.385   7.548  18.508  0.00  0.00    +0.000 N 
ATOM      4  H   UNL     1       1.971   7.663  19.428  0.00  0.00    +0.000 HD
ENDROOT
BRANCH   1   5
ATOM      5  C   UNL     1       3.597   5.695  19.508  0.00  0.00    +0.000 C 
BRANCH   5  11
ATOM      6  C   UNL     1       3.320   3.388  18.439  0.00  0.00    +0.000 A 
ATOM      7  C   UNL     1       2.521   2.259  18.192  0.00  0.00    +0.000 A 
ATOM      8  C   UNL     1       1.260   2.136  18.777  0.00  0.00    +0.000 A 
ATOM      9  C   UNL     1       0.781   3.142  19.606  0.00  0.00    +0.000 A 
ATOM     10  C   UNL     1       1.544   4.288  19.820  0.00  0.00    +0.000 A 
ATOM     11  C   UNL     1       2.811   4.436  19.227  0.00  0.00    +0.000 A 
BRANCH   6  13
ATOM     12  C   UNL     1       4.705   3.666  16.539  0.00  0.00    +0.000 C 
ATOM     13  O   UNL     1       4.597   3.532  17.954  0.00  0.00    +0.000 OA
ENDBRANCH   6  13
ENDBRANCH   5  11
ENDBRANCH   1   5
BRANCH   3  14
ATOM     14  C   UNL     1       2.149   8.619  17.571  0.00  0.00    +0.000 C 
BRANCH  14  15
ATOM     15  C   UNL     1       1.736   9.835  18.337  0.00  0.00    +0.000 A 
ATOM     16  C   UNL     1       2.108  11.137  18.057  0.00  0.00    +0.000 A 
ATOM     17  S   UNL     1       1.407  12.210  19.184  0.00  0.00    +0.000 S 
ATOM     18  C   UNL     1       0.657  10.882  19.987  0.00  0.00    +0.000 A 
ATOM     19  N   UNL     1       0.893   9.703  19.439  0.00  0.00    +0.000 NA
BRANCH  18  20
ATOM     20  C   UNL     1      -0.155  11.016  21.178  0.00  0.00    +0.000 A 
ATOM     21  C   UNL     1      -0.278  10.074  22.188  0.00  0.00    +0.000 A 
ATOM     22  C   UNL     1      -1.121  10.505  23.255  0.00  0.00    +0.000 A 
ATOM     23  C   UNL     1      -1.630  11.762  23.029  0.00  0.00    +0.000 A 
ATOM     24  S   UNL     1      -1.100  12.406  21.539  0.00  0.00    +0.000 S 
ENDBRANCH  18  20
ENDBRANCH  14  15
ENDBRANCH   3  14
TORSDOF 6
ENDMDL
MODEL 4
REMARK VINA RESULT:      -6.7      6.600      9.461
REMARK  Name = 
REMARK  7 active torsions:
REMARK  status: ('A' for Active; 'I' for Inactive)
REMARK    1  A    between atoms: C_1  and  O_2
REMARK    2  A    between atoms: O_2  and  C_3
REMARK    3  A    between atoms: C_8  and  C_9
REMARK    4  A    between atoms: C_9  and  C_10
REMARK    5  A    between atoms: N_12  and  C_13
REMARK    6  A    between atoms: C_13  and  C_14
REMARK    7  A    between atoms: C_17  and  C_18
REMARK                            x       y       z     vdW  Elec       q    Type
REMARK                         _______ _______ _______ _____ _____    ______ ____
ROOT
ATOM      1  C   UNL     1       0.229  10.498  18.618  0.00  0.00    +0.000 C 
ATOM      2  O   UNL     1       0.807  11.586  18.626  0.00  0.00    +0.000 OA
ATOM      3  N   UNL     1       0.852   9.318  18.294  0.00  0.00    +0.000 N 
ATOM      4  H   UNL     1       0.263   8.561  17.965  0.00  0.00    +0.000 HD
ENDROOT
BRANCH   1   5
ATOM      5  C   UNL     1      -1.221  10.338  19.043  0.00  0.00    +0.000 C 
BRANCH   5  11
ATOM      6  C   UNL     1      -3.295  11.453  18.043  0.00  0.00    +0.000 A 
ATOM      7  C   UNL     1      -4.212  11.571  16.986  0.00  0.00    +0.000 A 
ATOM      8  C   UNL     1      -4.034  10.851  15.804  0.00  0.00    +0.000 A 
ATOM      9  C   UNL     1      -2.945   9.999  15.670  0.00  0.00    +0.000 A 
ATOM     10  C   UNL     1      -2.055   9.838  16.730  0.00  0.00    +0.000 A 
ATOM     11  C   UNL     1      -2.227  10.545  17.934  0.00  0.00    +0.000 A 
BRANCH   6  13
ATOM     12  C   UNL     1      -4.694  12.448  19.675  0.00  0.00    +0.000 C 
ATOM     13  O   UNL     1      -3.375  12.191  19.199  0.00  0.00    +0.000 OA
ENDBRANCH   6  13
ENDBRANCH   5  11
ENDBRANCH   1   5
BRANCH   3  14
ATOM     14  C   UNL     1       2.224   9.290  17.848  0.00  0.00    +0.000 C 
BRANCH  14  15
ATOM     15  C   UNL     1       2.809   7.959  18.199  0.00  0.00    +0.000 A 
ATOM     16  C   UNL     1       2.388   7.131  19.223  0.00  0.00    +0.000 A 
ATOM     17  S   UNL     1       3.335   5.710  19.263  0.00  0.00    +0.000 S 
ATOM     18  C   UNL     1       4.258   6.283  17.925  0.00  0.00    +0.000 A 
ATOM     19  N   UNL     1       3.874   7.456  17.454  0.00  0.00    +0.000 NA
BRANCH  18  20
ATOM     20  C   UNL     1       5.379   5.567  17.355  0.00  0.00    +0.000 A 
ATOM     21  C   UNL     1       6.606   5.360  17.964  0.00  0.00    +0.000 A 
ATOM     22  C   UNL     1       7.502   4.583  17.171  0.00  0.00    +0.000 A 
ATOM     23  C   UNL     1       6.940   4.225  15.968  0.00  0.00    +0.000 A 
ATOM     24  S   UNL     1       5.351   4.829  15.801  0.00  0.00    +0.000 S 
ENDBRANCH  18  20
ENDBRANCH  14  15
ENDBRANCH   3  14
TORSDOF 6
ENDMDL
MODEL 5
REMARK VINA RESULT:      -6.6      4.675      7.638
REMARK  Name = 
REMARK  7 active torsions:
REMARK  status: ('A' for Active; 'I' for Inactive)
REMARK    1  A    between atoms: C_1  and  O_2
REMARK    2  A    between atoms: O_2  and  C_3
REMARK    3  A    between atoms: C_8  and  C_9
REMARK    4  A    between atoms: C_9  and  C_10
REMARK    5  A    between atoms: N_12  and  C_13
REMARK    6  A    between atoms: C_13  and  C_14
REMARK    7  A    between atoms: C_17  and  C_18
REMARK                            x       y       z     vdW  Elec       q    Type
REMARK                         _______ _______ _______ _____ _____    ______ ____
ROOT
ATOM      1  C   UNL     1       3.181   4.141  19.410  0.00  0.00    +0.000 C 
ATOM      2  O   UNL     1       2.110   3.641  19.062  0.00  0.00    +0.000 OA
ATOM      3  N   UNL     1       3.266   5.260  20.202  0.00  0.00    +0.000 N 
ATOM      4  H   UNL     1       4.122   5.801  20.145  0.00  0.00    +0.000 HD
ENDROOT
BRANCH   1   5
ATOM      5  C   UNL     1       4.525   3.524  19.062  0.00  0.00    +0.000 C 
BRANCH   5  11
ATOM      6  C   UNL     1       6.451   4.711  17.867  0.00  0.00    +0.000 A 
ATOM      7  C   UNL     1       6.988   5.258  16.691  0.00  0.00    +0.000 A 
ATOM      8  C   UNL     1       6.311   5.143  15.477  0.00  0.00    +0.000 A 
ATOM      9  C   UNL     1       5.087   4.488  15.427  0.00  0.00    +0.000 A 
ATOM     10  C   UNL     1       4.521   3.983  16.596  0.00  0.00    +0.000 A 
ATOM     11  C   UNL     1       5.183   4.103  17.832  0.00  0.00    +0.000 A 
BRANCH   6  13
ATOM     12  C   UNL     1       7.914   5.873  19.322  0.00  0.00    +0.000 C 
ATOM     13  O   UNL     1       7.104   4.726  19.076  0.00  0.00    +0.000 OA
ENDBRANCH   6  13
ENDBRANCH   5  11
ENDBRANCH   1   5
BRANCH   3  14
ATOM     14  C   UNL     1       2.087   5.984  20.609  0.00  0.00    +0.000 C 
BRANCH  14  15
ATOM     15  C   UNL     1       1.975   7.217  19.768  0.00  0.00    +0.000 A 
ATOM     16  C   UNL     1       2.503   7.388  18.503  0.00  0.00    +0.000 A 
ATOM     17  S   UNL     1       2.135   8.948  17.913  0.00  0.00    +0.000 S 
ATOM     18  C   UNL     1       1.305   9.310  19.378  0.00  0.00    +0.000 A 
ATOM     19  N   UNL     1       1.279   8.322  20.255  0.00  0.00    +0.000 NA
BRANCH  18  20
ATOM     20  C   UNL     1       0.693  10.591  19.661  0.00  0.00    +0.000 A 
ATOM     21  C   UNL     1      -0.478  10.793  20.376  0.00  0.00    +0.000 A 
ATOM     22  C   UNL     1      -0.812  12.171  20.525  0.00  0.00    +0.000 A 
ATOM     23  C   UNL     1       0.106  12.989  19.910  0.00  0.00    +0.000 A 
ATOM     24  S   UNL     1       1.351  12.097  19.156  0.00  0.00    +0.000 S 
ENDBRANCH  18  20
ENDBRANCH  14  15
ENDBRANCH   3  14
TORSDOF 6
ENDMDL
MODEL 6
REMARK VINA RESULT:      -6.6      5.723      7.811
REMARK  Name = 
REMARK  7 active torsions:
REMARK  status: ('A' for Active; 'I' for Inactive)
REMARK    1  A    between atoms: C_1  and  O_2
REMARK    2  A    between atoms: O_2  and  C_3
REMARK    3  A    between atoms: C_8  and  C_9
REMARK    4  A    between atoms: C_9  and  C_10
REMARK    5  A    between atoms: N_12  and  C_13
REMARK    6  A    between atoms: C_13  and  C_14
REMARK    7  A    between atoms: C_17  and  C_18
REMARK                            x       y       z     vdW  Elec       q    Type
REMARK                         _______ _______ _______ _____ _____    ______ ____
ROOT
ATOM      1  C   UNL     1       1.098  10.169  18.470  0.00  0.00    +0.000 C 
ATOM      2  O   UNL     1       1.793  11.187  18.496  0.00  0.00    +0.000 OA
ATOM      3  N   UNL     1       1.577   8.942  18.084  0.00  0.00    +0.000 N 
ATOM      4  H   UNL     1       0.898   8.267  17.749  0.00  0.00    +0.000 HD
ENDROOT
BRANCH   1   5
ATOM      5  C   UNL     1      -0.348  10.152  18.939  0.00  0.00    +0.000 C 
BRANCH   5  11
ATOM      6  C   UNL     1      -1.006  11.461  21.036  0.00  0.00    +0.000 A 
ATOM      7  C   UNL     1      -1.115  11.525  22.434  0.00  0.00    +0.000 A 
ATOM      8  C   UNL     1      -0.821  10.414  23.225  0.00  0.00    +0.000 A 
ATOM      9  C   UNL     1      -0.406   9.230  22.627  0.00  0.00    +0.000 A 
ATOM     10  C   UNL     1      -0.248   9.169  21.244  0.00  0.00    +0.000 A 
ATOM     11  C   UNL     1      -0.525  10.285  20.433  0.00  0.00    +0.000 A 
BRANCH   6  13
ATOM     12  C   UNL     1      -2.359  13.374  20.698  0.00  0.00    +0.000 C 
ATOM     13  O   UNL     1      -1.352  12.495  20.202  0.00  0.00    +0.000 OA
ENDBRANCH   6  13
ENDBRANCH   5  11
ENDBRANCH   1   5
BRANCH   3  14
ATOM     14  C   UNL     1       2.922   8.781  17.590  0.00  0.00    +0.000 C 
BRANCH  14  15
ATOM     15  C   UNL     1       3.343   7.364  17.814  0.00  0.00    +0.000 A 
ATOM     16  C   UNL     1       4.394   6.719  17.190  0.00  0.00    +0.000 A 
ATOM     17  S   UNL     1       4.519   5.110  17.747  0.00  0.00    +0.000 S 
ATOM     18  C   UNL     1       3.161   5.358  18.779  0.00  0.00    +0.000 A 
ATOM     19  N   UNL     1       2.651   6.577  18.733  0.00  0.00    +0.000 NA
BRANCH  18  20
ATOM     20  C   UNL     1       2.593   4.329  19.623  0.00  0.00    +0.000 A 
ATOM     21  C   UNL     1       2.146   4.500  20.924  0.00  0.00    +0.000 A 
ATOM     22  C   UNL     1       1.599   3.310  21.490  0.00  0.00    +0.000 A 
ATOM     23  C   UNL     1       1.652   2.255  20.609  0.00  0.00    +0.000 A 
ATOM     24  S   UNL     1       2.362   2.701  19.121  0.00  0.00    +0.000 S 
ENDBRANCH  18  20
ENDBRANCH  14  15
ENDBRANCH   3  14
TORSDOF 6
ENDMDL
MODEL 7
REMARK VINA RESULT:      -6.6      5.939      9.037
REMARK  Name = 
REMARK  7 active torsions:
REMARK  status: ('A' for Active; 'I' for Inactive)
REMARK    1  A    between atoms: C_1  and  O_2
REMARK    2  A    between atoms: O_2  and  C_3
REMARK    3  A    between atoms: C_8  and  C_9
REMARK    4  A    between atoms: C_9  and  C_10
REMARK    5  A    between atoms: N_12  and  C_13
REMARK    6  A    between atoms: C_13  and  C_14
REMARK    7  A    between atoms: C_17  and  C_18
REMARK                            x       y       z     vdW  Elec       q    Type
REMARK                         _______ _______ _______ _____ _____    ______ ____
ROOT
ATOM      1  C   UNL     1       4.006   4.587  17.310  0.00  0.00    +0.000 C 
ATOM      2  O   UNL     1       4.931   4.837  16.535  0.00  0.00    +0.000 OA
ATOM      3  N   UNL     1       3.215   5.557  17.874  0.00  0.00    +0.000 N 
ATOM      4  H   UNL     1       2.742   5.321  18.740  0.00  0.00    +0.000 HD
ENDROOT
BRANCH   1   5
ATOM      5  C   UNL     1       3.595   3.167  17.665  0.00  0.00    +0.000 C 
BRANCH   5  11
ATOM      6  C   UNL     1       3.440   2.712  20.177  0.00  0.00    +0.000 A 
ATOM      7  C   UNL     1       2.655   2.579  21.334  0.00  0.00    +0.000 A 
ATOM      8  C   UNL     1       1.285   2.839  21.301  0.00  0.00    +0.000 A 
ATOM      9  C   UNL     1       0.683   3.226  20.110  0.00  0.00    +0.000 A 
ATOM     10  C   UNL     1       1.443   3.314  18.945  0.00  0.00    +0.000 A 
ATOM     11  C   UNL     1       2.823   3.041  18.957  0.00  0.00    +0.000 A 
BRANCH   6  13
ATOM     12  C   UNL     1       5.285   1.383  20.838  0.00  0.00    +0.000 C 
ATOM     13  O   UNL     1       4.803   2.543  20.164  0.00  0.00    +0.000 OA
ENDBRANCH   6  13
ENDBRANCH   5  11
ENDBRANCH   1   5
BRANCH   3  14
ATOM     14  C   UNL     1       3.478   6.959  17.660  0.00  0.00    +0.000 C 
BRANCH  14  15
ATOM     15  C   UNL     1       2.574   7.752  18.551  0.00  0.00    +0.000 A 
ATOM     16  C   UNL     1       2.199   7.412  19.837  0.00  0.00    +0.000 A 
ATOM     17  S   UNL     1       1.160   8.602  20.485  0.00  0.00    +0.000 S 
ATOM     18  C   UNL     1       1.259   9.495  19.015  0.00  0.00    +0.000 A 
ATOM     19  N   UNL     1       2.039   8.955  18.095  0.00  0.00    +0.000 NA
BRANCH  18  20
ATOM     20  C   UNL     1       0.543  10.729  18.772  0.00  0.00    +0.000 A 
ATOM     21  C   UNL     1       1.084  12.005  18.813  0.00  0.00    +0.000 A 
ATOM     22  C   UNL     1       0.139  13.024  18.492  0.00  0.00    +0.000 A 
ATOM     23  C   UNL     1      -1.104  12.502  18.224  0.00  0.00    +0.000 A 
ATOM     24  S   UNL     1      -1.127  10.801  18.368  0.00  0.00    +0.000 S 
ENDBRANCH  18  20
ENDBRANCH  14  15
ENDBRANCH   3  14
TORSDOF 6
ENDMDL
MODEL 8
REMARK VINA RESULT:      -6.6      6.905      9.575
REMARK  Name = 
REMARK  7 active torsions:
REMARK  status: ('A' for Active; 'I' for Inactive)
REMARK    1  A    between atoms: C_1  and  O_2
REMARK    2  A    between atoms: O_2  and  C_3
REMARK    3  A    between atoms: C_8  and  C_9
REMARK    4  A    between atoms: C_9  and  C_10
REMARK    5  A    between atoms: N_12  and  C_13
REMARK    6  A    between atoms: C_13  and  C_14
REMARK    7  A    between atoms: C_17  and  C_18
REMARK                            x       y       z     vdW  Elec       q    Type
REMARK                         _______ _______ _______ _____ _____    ______ ____
ROOT
ATOM      1  C   UNL     1       1.949   7.022  20.193  0.00  0.00    +0.000 C 
ATOM      2  O   UNL     1       1.494   6.098  20.870  0.00  0.00    +0.000 OA
ATOM      3  N   UNL     1       1.907   8.336  20.590  0.00  0.00    +0.000 N 
ATOM      4  H   UNL     1       1.960   9.039  19.860  0.00  0.00    +0.000 HD
ENDROOT
BRANCH   1   5
ATOM      5  C   UNL     1       2.675   6.793  18.878  0.00  0.00    +0.000 C 
BRANCH   5  11
ATOM      6  C   UNL     1       4.121   4.683  18.936  0.00  0.00    +0.000 A 
ATOM      7  C   UNL     1       4.315   3.342  18.569  0.00  0.00    +0.000 A 
ATOM      8  C   UNL     1       3.321   2.637  17.889  0.00  0.00    +0.000 A 
ATOM      9  C   UNL     1       2.127   3.268  17.562  0.00  0.00    +0.000 A 
ATOM     10  C   UNL     1       1.942   4.612  17.878  0.00  0.00    +0.000 A 
ATOM     11  C   UNL     1       2.940   5.342  18.550  0.00  0.00    +0.000 A 
BRANCH   6  13
ATOM     12  C   UNL     1       6.371   5.376  19.189  0.00  0.00    +0.000 C 
ATOM     13  O   UNL     1       5.030   5.405  19.670  0.00  0.00    +0.000 OA
ENDBRANCH   6  13
ENDBRANCH   5  11
ENDBRANCH   1   5
BRANCH   3  14
ATOM     14  C   UNL     1       1.238   8.734  21.803  0.00  0.00    +0.000 C 
BRANCH  14  15
ATOM     15  C   UNL     1       0.657  10.097  21.598  0.00  0.00    +0.000 A 
ATOM     16  C   UNL     1       0.967  10.966  20.569  0.00  0.00    +0.000 A 
ATOM     17  S   UNL     1       0.069  12.411  20.722  0.00  0.00    +0.000 S 
ATOM     18  C   UNL     1      -0.673  11.802  22.153  0.00  0.00    +0.000 A 
ATOM     19  N   UNL     1      -0.295  10.582  22.493  0.00  0.00    +0.000 NA
BRANCH  18  20
ATOM     20  C   UNL     1      -1.623  12.551  22.949  0.00  0.00    +0.000 A 
ATOM     21  C   UNL     1      -2.872  12.108  23.355  0.00  0.00    +0.000 A 
ATOM     22  C   UNL     1      -3.567  13.055  24.164  0.00  0.00    +0.000 A 
ATOM     23  C   UNL     1      -2.835  14.204  24.347  0.00  0.00    +0.000 A 
ATOM     24  S   UNL     1      -1.330  14.138  23.542  0.00  0.00    +0.000 S 
ENDBRANCH  18  20
ENDBRANCH  14  15
ENDBRANCH   3  14
TORSDOF 6
ENDMDL
MODEL 9
REMARK VINA RESULT:      -6.5      1.878      2.230
REMARK  Name = 
REMARK  7 active torsions:
REMARK  status: ('A' for Active; 'I' for Inactive)
REMARK    1  A    between atoms: C_1  and  O_2
REMARK    2  A    between atoms: O_2  and  C_3
REMARK    3  A    between atoms: C_8  and  C_9
REMARK    4  A    between atoms: C_9  and  C_10
REMARK    5  A    between atoms: N_12  and  C_13
REMARK    6  A    between atoms: C_13  and  C_14
REMARK    7  A    between atoms: C_17  and  C_18
REMARK                            x       y       z     vdW  Elec       q    Type
REMARK                         _______ _______ _______ _____ _____    ______ ____
ROOT
ATOM      1  C   UNL     1       8.679  10.061  18.447  0.00  0.00    +0.000 C 
ATOM      2  O   UNL     1       8.137  10.895  17.721  0.00  0.00    +0.000 OA
ATOM      3  N   UNL     1       8.514   8.707  18.289  0.00  0.00    +0.000 N 
ATOM      4  H   UNL     1       8.680   8.124  19.103  0.00  0.00    +0.000 HD
ENDROOT
BRANCH   1   5
ATOM      5  C   UNL     1       9.653  10.443  19.549  0.00  0.00    +0.000 C 
BRANCH   5  11
ATOM      6  C   UNL     1      10.769  12.667  20.145  0.00  0.00    +0.000 A 
ATOM      7  C   UNL     1      11.573  13.754  19.767  0.00  0.00    +0.000 A 
ATOM      8  C   UNL     1      12.195  13.781  18.518  0.00  0.00    +0.000 A 
ATOM      9  C   UNL     1      12.014  12.726  17.632  0.00  0.00    +0.000 A 
ATOM     10  C   UNL     1      11.181  11.664  17.978  0.00  0.00    +0.000 A 
ATOM     11  C   UNL     1      10.533  11.628  19.226  0.00  0.00    +0.000 A 
BRANCH   6  13
ATOM     12  C   UNL     1       9.147  13.475  21.669  0.00  0.00    +0.000 C 
ATOM     13  O   UNL     1      10.193  12.548  21.386  0.00  0.00    +0.000 OA
ENDBRANCH   6  13
ENDBRANCH   5  11
ENDBRANCH   1   5
BRANCH   3  14
ATOM     14  C   UNL     1       7.608   8.169  17.304  0.00  0.00    +0.000 C 
BRANCH  14  15
ATOM     15  C   UNL     1       6.990   6.925  17.857  0.00  0.00    +0.000 A 
ATOM     16  C   UNL     1       7.598   6.027  18.715  0.00  0.00    +0.000 A 
ATOM     17  S   UNL     1       6.529   4.751  19.094  0.00  0.00    +0.000 S 
ATOM     18  C   UNL     1       5.322   5.459  18.087  0.00  0.00    +0.000 A 
ATOM     19  N   UNL     1       5.680   6.595  17.514  0.00  0.00    +0.000 NA
BRANCH  18  20
ATOM     20  C   UNL     1       4.021   4.870  17.855  0.00  0.00    +0.000 A 
ATOM     21  C   UNL     1       3.777   3.658  17.228  0.00  0.00    +0.000 A 
ATOM     22  C   UNL     1       2.392   3.321  17.179  0.00  0.00    +0.000 A 
ATOM     23  C   UNL     1       1.609   4.291  17.760  0.00  0.00    +0.000 A 
ATOM     24  S   UNL     1       2.542   5.595  18.350  0.00  0.00    +0.000 S 
ENDBRANCH  18  20
ENDBRANCH  14  15
ENDBRANCH   3  14
TORSDOF 6
ENDMDL
