MODEL 1
REMARK VINA RESULT:      -9.3      0.000      0.000
REMARK  Name = 
REMARK  8 active torsions:
REMARK  status: ('A' for Active; 'I' for Inactive)
REMARK    1  A    between atoms: C_1  and  C_2
REMARK    2  A    between atoms: C_4  and  C_5
REMARK    3  A    between atoms: C_7  and  N_8
REMARK    4  A    between atoms: C_9  and  C_11
REMARK    5  A    between atoms: C_11  and  N_12
REMARK    6  A    between atoms: C_17  and  C_18
REMARK    7  A    between atoms: C_21  and  C_22
REMARK    8  A    between atoms: C_23  and  C_24
REMARK                            x       y       z     vdW  Elec       q    Type
REMARK                         _______ _______ _______ _____ _____    ______ ____
ROOT
ATOM      1  N   UNL     1      -0.313  11.344  21.909  0.00  0.00    +0.000 N 
ATOM      2  N   UNL     1      -0.017  11.476  20.551  0.00  0.00    +0.000 NA
ATOM      3  C   UNL     1       0.589  10.362  20.263  0.00  0.00    +0.000 A 
ATOM      4  C   UNL     1       1.166   9.950  18.974  0.00  0.00    +0.000 A 
ATOM      5  C   UNL     1       1.715   8.740  18.893  0.00  0.00    +0.000 A 
ATOM      6  C   UNL     1       1.696   7.876  20.119  0.00  0.00    +0.000 A 
ATOM      7  N   UNL     1       1.243   8.248  21.254  0.00  0.00    +0.000 NA
ATOM      8  N   UNL     1       0.711   9.497  21.296  0.00  0.00    +0.000 N 
ATOM      9  C   UNL     1       0.233  10.136  22.420  0.00  0.00    +0.000 A 
ATOM     10  O   UNL     1       0.311   9.773  23.581  0.00  0.00    +0.000 OA
ENDROOT
BRANCH   6  11
ATOM     11  C   UNL     1       2.269   6.512  19.965  0.00  0.00    +0.000 A 
ATOM     12  C   UNL     1       3.263   6.265  19.025  0.00  0.00    +0.000 A 
ATOM     13  C   UNL     1       3.795   4.989  18.895  0.00  0.00    +0.000 A 
ATOM     14  C   UNL     1       3.307   3.921  19.670  0.00  0.00    +0.000 A 
ATOM     15  C   UNL     1       3.904   2.556  19.473  0.00  0.00    +0.000 C 
ATOM     16  C   UNL     1       2.251   4.152  20.575  0.00  0.00    +0.000 A 
ATOM     17  C   UNL     1       1.581   3.048  21.349  0.00  0.00    +0.000 C 
ATOM     18  C   UNL     1       1.753   5.458  20.732  0.00  0.00    +0.000 A 
ENDBRANCH   6  11
BRANCH   1  19
ATOM     19  C   UNL     1      -0.938  12.402  22.681  0.00  0.00    +0.000 C 
BRANCH  19  21
ATOM     20  N   UNL     1      -3.269  12.972  21.932  0.00  0.00    +0.000 N 
ATOM     21  C   UNL     1      -2.457  12.271  22.823  0.00  0.00    +0.000 C 
ATOM     22  O   UNL     1      -2.894  11.437  23.632  0.00  0.00    +0.000 OA
ATOM     23  H   UNL     1      -2.798  13.451  21.165  0.00  0.00    +0.000 HD
BRANCH  20  30
ATOM     24  C   UNL     1      -7.569  13.676  24.263  0.00  0.00    +0.000 C 
ATOM     25  C   UNL     1      -6.830  13.226  23.034  0.00  0.00    +0.000 A 
ATOM     26  C   UNL     1      -7.503  12.727  21.914  0.00  0.00    +0.000 A 
ATOM     27  C   UNL     1      -6.780  12.306  20.792  0.00  0.00    +0.000 A 
ATOM     28  C   UNL     1      -7.499  11.776  19.586  0.00  0.00    +0.000 C 
ATOM     29  C   UNL     1      -5.377  12.371  20.809  0.00  0.00    +0.000 A 
ATOM     30  C   UNL     1      -4.684  12.871  21.917  0.00  0.00    +0.000 A 
ATOM     31  C   UNL     1      -5.428  13.296  23.022  0.00  0.00    +0.000 A 
ENDBRANCH  20  30
ENDBRANCH  19  21
ENDBRANCH   1  19
TORSDOF 4
ENDMDL
MODEL 2
REMARK VINA RESULT:      -9.2      4.725     11.626
REMARK  Name = 
REMARK  8 active torsions:
REMARK  status: ('A' for Active; 'I' for Inactive)
REMARK    1  A    between atoms: C_1  and  C_2
REMARK    2  A    between atoms: C_4  and  C_5
REMARK    3  A    between atoms: C_7  and  N_8
REMARK    4  A    between atoms: C_9  and  C_11
REMARK    5  A    between atoms: C_11  and  N_12
REMARK    6  A    between atoms: C_17  and  C_18
REMARK    7  A    between atoms: C_21  and  C_22
REMARK    8  A    between atoms: C_23  and  C_24
REMARK                            x       y       z     vdW  Elec       q    Type
REMARK                         _______ _______ _______ _____ _____    ______ ____
ROOT
ATOM      1  N   UNL     1       4.107   5.325  18.620  0.00  0.00    +0.000 N 
ATOM      2  N   UNL     1       3.956   6.322  17.654  0.00  0.00    +0.000 NA
ATOM      3  C   UNL     1       3.121   7.155  18.205  0.00  0.00    +0.000 A 
ATOM      4  C   UNL     1       2.561   8.389  17.634  0.00  0.00    +0.000 A 
ATOM      5  C   UNL     1       1.742   9.114  18.393  0.00  0.00    +0.000 A 
ATOM      6  C   UNL     1       1.458   8.627  19.782  0.00  0.00    +0.000 A 
ATOM      7  N   UNL     1       1.900   7.530  20.265  0.00  0.00    +0.000 NA
ATOM      8  N   UNL     1       2.715   6.812  19.449  0.00  0.00    +0.000 N 
ATOM      9  C   UNL     1       3.247   5.571  19.724  0.00  0.00    +0.000 A 
ATOM     10  O   UNL     1       2.996   4.837  20.664  0.00  0.00    +0.000 OA
ENDROOT
BRANCH   6  11
ATOM     11  C   UNL     1       0.584   9.498  20.613  0.00  0.00    +0.000 A 
ATOM     12  C   UNL     1       0.359   9.202  21.952  0.00  0.00    +0.000 A 
ATOM     13  C   UNL     1      -0.453  10.027  22.719  0.00  0.00    +0.000 A 
ATOM     14  C   UNL     1      -1.098  11.139  22.148  0.00  0.00    +0.000 A 
ATOM     15  C   UNL     1      -1.984  11.985  23.020  0.00  0.00    +0.000 C 
ATOM     16  C   UNL     1      -0.928  11.403  20.773  0.00  0.00    +0.000 A 
ATOM     17  C   UNL     1      -1.679  12.490  20.051  0.00  0.00    +0.000 C 
ATOM     18  C   UNL     1      -0.066  10.589  20.018  0.00  0.00    +0.000 A 
ENDBRANCH   6  11
BRANCH   1  19
ATOM     19  C   UNL     1       4.910   4.137  18.400  0.00  0.00    +0.000 C 
BRANCH  19  21
ATOM     20  N   UNL     1       5.075   3.988  15.896  0.00  0.00    +0.000 N 
ATOM     21  C   UNL     1       5.737   4.159  17.111  0.00  0.00    +0.000 C 
ATOM     22  O   UNL     1       6.936   4.471  17.196  0.00  0.00    +0.000 OA
ATOM     23  H   UNL     1       4.056   3.964  15.930  0.00  0.00    +0.000 HD
BRANCH  20  30
ATOM     24  C   UNL     1       5.328   2.494  11.192  0.00  0.00    +0.000 C 
ATOM     25  C   UNL     1       5.861   3.362  12.297  0.00  0.00    +0.000 A 
ATOM     26  C   UNL     1       6.950   4.216  12.099  0.00  0.00    +0.000 A 
ATOM     27  C   UNL     1       7.427   5.002  13.154  0.00  0.00    +0.000 A 
ATOM     28  C   UNL     1       8.592   5.924  12.944  0.00  0.00    +0.000 C 
ATOM     29  C   UNL     1       6.815   4.910  14.415  0.00  0.00    +0.000 A 
ATOM     30  C   UNL     1       5.721   4.065  14.635  0.00  0.00    +0.000 A 
ATOM     31  C   UNL     1       5.255   3.298  13.563  0.00  0.00    +0.000 A 
ENDBRANCH  20  30
ENDBRANCH  19  21
ENDBRANCH   1  19
TORSDOF 4
ENDMDL
MODEL 3
REMARK VINA RESULT:      -9.1      0.459      1.630
REMARK  Name = 
REMARK  8 active torsions:
REMARK  status: ('A' for Active; 'I' for Inactive)
REMARK    1  A    between atoms: C_1  and  C_2
REMARK    2  A    between atoms: C_4  and  C_5
REMARK    3  A    between atoms: C_7  and  N_8
REMARK    4  A    between atoms: C_9  and  C_11
REMARK    5  A    between atoms: C_11  and  N_12
REMARK    6  A    between atoms: C_17  and  C_18
REMARK    7  A    between atoms: C_21  and  C_22
REMARK    8  A    between atoms: C_23  and  C_24
REMARK                            x       y       z     vdW  Elec       q    Type
REMARK                         _______ _______ _______ _____ _____    ______ ____
ROOT
ATOM      1  N   UNL     1      -0.492  11.301  22.065  0.00  0.00    +0.000 N 
ATOM      2  N   UNL     1      -0.261  11.470  20.698  0.00  0.00    +0.000 NA
ATOM      3  C   UNL     1       0.380  10.388  20.363  0.00  0.00    +0.000 A 
ATOM      4  C   UNL     1       0.919  10.025  19.044  0.00  0.00    +0.000 A 
ATOM      5  C   UNL     1       1.517   8.842  18.916  0.00  0.00    +0.000 A 
ATOM      6  C   UNL     1       1.588   7.957  20.125  0.00  0.00    +0.000 A 
ATOM      7  N   UNL     1       1.167   8.289  21.285  0.00  0.00    +0.000 NA
ATOM      8  N   UNL     1       0.584   9.512  21.374  0.00  0.00    +0.000 N 
ATOM      9  C   UNL     1       0.127  10.109  22.529  0.00  0.00    +0.000 A 
ATOM     10  O   UNL     1       0.270   9.730  23.679  0.00  0.00    +0.000 OA
ENDROOT
BRANCH   6  11
ATOM     11  C   UNL     1       2.213   6.623  19.921  0.00  0.00    +0.000 A 
ATOM     12  C   UNL     1       3.191   6.442  18.950  0.00  0.00    +0.000 A 
ATOM     13  C   UNL     1       3.772   5.193  18.774  0.00  0.00    +0.000 A 
ATOM     14  C   UNL     1       3.349   4.086  19.532  0.00  0.00    +0.000 A 
ATOM     15  C   UNL     1       3.997   2.753  19.284  0.00  0.00    +0.000 C 
ATOM     16  C   UNL     1       2.308   4.250  20.469  0.00  0.00    +0.000 A 
ATOM     17  C   UNL     1       1.705   3.099  21.230  0.00  0.00    +0.000 C 
ATOM     18  C   UNL     1       1.761   5.529  20.673  0.00  0.00    +0.000 A 
ENDBRANCH   6  11
BRANCH   1  19
ATOM     19  C   UNL     1      -1.130  12.316  22.882  0.00  0.00    +0.000 C 
BRANCH  19  21
ATOM     20  N   UNL     1      -3.281  12.716  21.646  0.00  0.00    +0.000 N 
ATOM     21  C   UNL     1      -2.660  12.309  22.826  0.00  0.00    +0.000 C 
ATOM     22  O   UNL     1      -3.273  11.805  23.780  0.00  0.00    +0.000 OA
ATOM     23  H   UNL     1      -2.673  12.896  20.847  0.00  0.00    +0.000 HD
BRANCH  20  30
ATOM     24  C   UNL     1      -7.091  11.894  18.607  0.00  0.00    +0.000 C 
ATOM     25  C   UNL     1      -6.594  12.261  19.977  0.00  0.00    +0.000 A 
ATOM     26  C   UNL     1      -7.474  12.557  21.023  0.00  0.00    +0.000 A 
ATOM     27  C   UNL     1      -6.974  12.906  22.282  0.00  0.00    +0.000 A 
ATOM     28  C   UNL     1      -7.916  13.218  23.409  0.00  0.00    +0.000 C 
ATOM     29  C   UNL     1      -5.585  12.976  22.479  0.00  0.00    +0.000 A 
ATOM     30  C   UNL     1      -4.686  12.680  21.448  0.00  0.00    +0.000 A 
ATOM     31  C   UNL     1      -5.209  12.322  20.202  0.00  0.00    +0.000 A 
ENDBRANCH  20  30
ENDBRANCH  19  21
ENDBRANCH   1  19
TORSDOF 4
ENDMDL
MODEL 4
REMARK VINA RESULT:      -9.1      4.762     11.588
REMARK  Name = 
REMARK  8 active torsions:
REMARK  status: ('A' for Active; 'I' for Inactive)
REMARK    1  A    between atoms: C_1  and  C_2
REMARK    2  A    between atoms: C_4  and  C_5
REMARK    3  A    between atoms: C_7  and  N_8
REMARK    4  A    between atoms: C_9  and  C_11
REMARK    5  A    between atoms: C_11  and  N_12
REMARK    6  A    between atoms: C_17  and  C_18
REMARK    7  A    between atoms: C_21  and  C_22
REMARK    8  A    between atoms: C_23  and  C_24
REMARK                            x       y       z     vdW  Elec       q    Type
REMARK                         _______ _______ _______ _____ _____    ______ ____
ROOT
ATOM      1  N   UNL     1       4.199   5.262  18.612  0.00  0.00    +0.000 N 
ATOM      2  N   UNL     1       4.032   6.248  17.637  0.00  0.00    +0.000 NA
ATOM      3  C   UNL     1       3.189   7.075  18.183  0.00  0.00    +0.000 A 
ATOM      4  C   UNL     1       2.611   8.297  17.603  0.00  0.00    +0.000 A 
ATOM      5  C   UNL     1       1.786   9.019  18.359  0.00  0.00    +0.000 A 
ATOM      6  C   UNL     1       1.514   8.541  19.754  0.00  0.00    +0.000 A 
ATOM      7  N   UNL     1       1.972   7.455  20.246  0.00  0.00    +0.000 NA
ATOM      8  N   UNL     1       2.792   6.739  19.432  0.00  0.00    +0.000 N 
ATOM      9  C   UNL     1       3.341   5.508  19.717  0.00  0.00    +0.000 A 
ATOM     10  O   UNL     1       3.103   4.779  20.665  0.00  0.00    +0.000 OA
ENDROOT
BRANCH   6  11
ATOM     11  C   UNL     1       0.633   9.410  20.580  0.00  0.00    +0.000 A 
ATOM     12  C   UNL     1       0.350   9.078  21.900  0.00  0.00    +0.000 A 
ATOM     13  C   UNL     1      -0.468   9.900  22.663  0.00  0.00    +0.000 A 
ATOM     14  C   UNL     1      -1.062  11.046  22.105  0.00  0.00    +0.000 A 
ATOM     15  C   UNL     1      -1.958  11.888  22.971  0.00  0.00    +0.000 C 
ATOM     16  C   UNL     1      -0.835  11.349  20.747  0.00  0.00    +0.000 A 
ATOM     17  C   UNL     1      -1.529  12.478  20.033  0.00  0.00    +0.000 C 
ATOM     18  C   UNL     1       0.034  10.536  19.998  0.00  0.00    +0.000 A 
ENDBRANCH   6  11
BRANCH   1  19
ATOM     19  C   UNL     1       5.016   4.083  18.399  0.00  0.00    +0.000 C 
BRANCH  19  21
ATOM     20  N   UNL     1       5.096   3.979  15.889  0.00  0.00    +0.000 N 
ATOM     21  C   UNL     1       5.804   4.083  17.086  0.00  0.00    +0.000 C 
ATOM     22  O   UNL     1       7.021   4.320  17.139  0.00  0.00    +0.000 OA
ATOM     23  H   UNL     1       4.079   4.015  15.955  0.00  0.00    +0.000 HD
BRANCH  20  30
ATOM     24  C   UNL     1       8.576   5.932  12.974  0.00  0.00    +0.000 C 
ATOM     25  C   UNL     1       7.430   4.974  13.147  0.00  0.00    +0.000 A 
ATOM     26  C   UNL     1       6.978   4.173  12.093  0.00  0.00    +0.000 A 
ATOM     27  C   UNL     1       5.901   3.302  12.288  0.00  0.00    +0.000 A 
ATOM     28  C   UNL     1       5.417   2.435  11.162  0.00  0.00    +0.000 C 
ATOM     29  C   UNL     1       5.268   3.253  13.542  0.00  0.00    +0.000 A 
ATOM     30  C   UNL     1       5.707   4.043  14.611  0.00  0.00    +0.000 A 
ATOM     31  C   UNL     1       6.792   4.898  14.395  0.00  0.00    +0.000 A 
ENDBRANCH  20  30
ENDBRANCH  19  21
ENDBRANCH   1  19
TORSDOF 4
ENDMDL
MODEL 5
REMARK VINA RESULT:      -8.9      3.689      5.259
REMARK  Name = 
REMARK  8 active torsions:
REMARK  status: ('A' for Active; 'I' for Inactive)
REMARK    1  A    between atoms: C_1  and  C_2
REMARK    2  A    between atoms: C_4  and  C_5
REMARK    3  A    between atoms: C_7  and  N_8
REMARK    4  A    between atoms: C_9  and  C_11
REMARK    5  A    between atoms: C_11  and  N_12
REMARK    6  A    between atoms: C_17  and  C_18
REMARK    7  A    between atoms: C_21  and  C_22
REMARK    8  A    between atoms: C_23  and  C_24
REMARK                            x       y       z     vdW  Elec       q    Type
REMARK                         _______ _______ _______ _____ _____    ______ ____
ROOT
ATOM      1  N   UNL     1      -0.037  11.023  20.430  0.00  0.00    +0.000 N 
ATOM      2  N   UNL     1       0.427  10.941  19.116  0.00  0.00    +0.000 NA
ATOM      3  C   UNL     1       1.058   9.803  19.087  0.00  0.00    +0.000 A 
ATOM      4  C   UNL     1       1.790   9.200  17.964  0.00  0.00    +0.000 A 
ATOM      5  C   UNL     1       2.337   8.000  18.146  0.00  0.00    +0.000 A 
ATOM      6  C   UNL     1       2.160   7.343  19.482  0.00  0.00    +0.000 A 
ATOM      7  N   UNL     1       1.570   7.884  20.478  0.00  0.00    +0.000 NA
ATOM      8  N   UNL     1       1.044   9.117  20.253  0.00  0.00    +0.000 N 
ATOM      9  C   UNL     1       0.432   9.919  21.192  0.00  0.00    +0.000 A 
ATOM     10  O   UNL     1       0.362   9.748  22.396  0.00  0.00    +0.000 OA
ENDROOT
BRANCH   6  11
ATOM     11  C   UNL     1       2.739   5.980  19.621  0.00  0.00    +0.000 A 
ATOM     12  C   UNL     1       3.819   5.588  18.838  0.00  0.00    +0.000 A 
ATOM     13  C   UNL     1       4.355   4.316  18.982  0.00  0.00    +0.000 A 
ATOM     14  C   UNL     1       3.790   3.390  19.878  0.00  0.00    +0.000 A 
ATOM     15  C   UNL     1       4.398   2.019  19.977  0.00  0.00    +0.000 C 
ATOM     16  C   UNL     1       2.652   3.760  20.624  0.00  0.00    +0.000 A 
ATOM     17  C   UNL     1       1.906   2.797  21.508  0.00  0.00    +0.000 C 
ATOM     18  C   UNL     1       2.147   5.067  20.505  0.00  0.00    +0.000 A 
ENDBRANCH   6  11
BRANCH   1  19
ATOM     19  C   UNL     1      -0.748  12.181  20.938  0.00  0.00    +0.000 C 
BRANCH  19  21
ATOM     20  N   UNL     1      -0.062  13.902  19.240  0.00  0.00    +0.000 N 
ATOM     21  C   UNL     1      -0.109  13.526  20.582  0.00  0.00    +0.000 C 
ATOM     22  O   UNL     1       0.208  14.283  21.513  0.00  0.00    +0.000 OA
ATOM     23  H   UNL     1      -0.556  13.302  18.579  0.00  0.00    +0.000 HD
BRANCH  20  30
ATOM     24  C   UNL     1       3.830  16.738  18.132  0.00  0.00    +0.000 C 
ATOM     25  C   UNL     1       2.339  16.577  18.218  0.00  0.00    +0.000 A 
ATOM     26  C   UNL     1       1.467  17.615  17.873  0.00  0.00    +0.000 A 
ATOM     27  C   UNL     1       0.084  17.432  17.977  0.00  0.00    +0.000 A 
ATOM     28  C   UNL     1      -0.855  18.541  17.602  0.00  0.00    +0.000 C 
ATOM     29  C   UNL     1      -0.418  16.207  18.448  0.00  0.00    +0.000 A 
ATOM     30  C   UNL     1       0.435  15.154  18.795  0.00  0.00    +0.000 A 
ATOM     31  C   UNL     1       1.813  15.356  18.671  0.00  0.00    +0.000 A 
ENDBRANCH  20  30
ENDBRANCH  19  21
ENDBRANCH   1  19
TORSDOF 4
ENDMDL
MODEL 6
REMARK VINA RESULT:      -8.9      0.527      2.076
REMARK  Name = 
REMARK  8 active torsions:
REMARK  status: ('A' for Active; 'I' for Inactive)
REMARK    1  A    between atoms: C_1  and  C_2
REMARK    2  A    between atoms: C_4  and  C_5
REMARK    3  A    between atoms: C_7  and  N_8
REMARK    4  A    between atoms: C_9  and  C_11
REMARK    5  A    between atoms: C_11  and  N_12
REMARK    6  A    between atoms: C_17  and  C_18
REMARK    7  A    between atoms: C_21  and  C_22
REMARK    8  A    between atoms: C_23  and  C_24
REMARK                            x       y       z     vdW  Elec       q    Type
REMARK                         _______ _______ _______ _____ _____    ______ ____
ROOT
ATOM      1  N   UNL     1      -0.067  11.379  21.359  0.00  0.00    +0.000 N 
ATOM      2  N   UNL     1       0.238  11.402  19.996  0.00  0.00    +0.000 NA
ATOM      3  C   UNL     1       0.816  10.253  19.795  0.00  0.00    +0.000 A 
ATOM      4  C   UNL     1       1.388   9.732  18.545  0.00  0.00    +0.000 A 
ATOM      5  C   UNL     1       1.905   8.505  18.558  0.00  0.00    +0.000 A 
ATOM      6  C   UNL     1       1.859   7.737  19.845  0.00  0.00    +0.000 A 
ATOM      7  N   UNL     1       1.411   8.204  20.946  0.00  0.00    +0.000 NA
ATOM      8  N   UNL     1       0.911   9.466  20.891  0.00  0.00    +0.000 N 
ATOM      9  C   UNL     1       0.445  10.199  21.962  0.00  0.00    +0.000 A 
ATOM     10  O   UNL     1       0.509   9.923  23.147  0.00  0.00    +0.000 OA
ENDROOT
BRANCH   6  11
ATOM     11  C   UNL     1       2.397   6.351  19.797  0.00  0.00    +0.000 A 
ATOM     12  C   UNL     1       1.856   5.355  20.602  0.00  0.00    +0.000 A 
ATOM     13  C   UNL     1       2.363   4.063  20.543  0.00  0.00    +0.000 A 
ATOM     14  C   UNL     1       3.455   3.753  19.713  0.00  0.00    +0.000 A 
ATOM     15  C   UNL     1       3.977   2.342  19.705  0.00  0.00    +0.000 C 
ATOM     16  C   UNL     1       4.052   4.776  18.947  0.00  0.00    +0.000 A 
ATOM     17  C   UNL     1       5.300   4.565  18.133  0.00  0.00    +0.000 C 
ATOM     18  C   UNL     1       3.500   6.068  18.978  0.00  0.00    +0.000 A 
ENDBRANCH   6  11
BRANCH   1  19
ATOM     19  C   UNL     1      -0.668  12.507  22.045  0.00  0.00    +0.000 C 
BRANCH  19  21
ATOM     20  N   UNL     1      -3.086  12.935  21.514  0.00  0.00    +0.000 N 
ATOM     21  C   UNL     1      -2.156  12.338  22.363  0.00  0.00    +0.000 C 
ATOM     22  O   UNL     1      -2.469  11.560  23.277  0.00  0.00    +0.000 OA
ATOM     23  H   UNL     1      -2.721  13.365  20.664  0.00  0.00    +0.000 HD
BRANCH  20  30
ATOM     24  C   UNL     1      -7.382  11.378  19.631  0.00  0.00    +0.000 C 
ATOM     25  C   UNL     1      -6.629  12.008  20.768  0.00  0.00    +0.000 A 
ATOM     26  C   UNL     1      -7.277  12.432  21.932  0.00  0.00    +0.000 A 
ATOM     27  C   UNL     1      -6.545  13.026  22.966  0.00  0.00    +0.000 A 
ATOM     28  C   UNL     1      -7.236  13.477  24.220  0.00  0.00    +0.000 C 
ATOM     29  C   UNL     1      -5.159  13.207  22.816  0.00  0.00    +0.000 A 
ATOM     30  C   UNL     1      -4.490  12.786  21.662  0.00  0.00    +0.000 A 
ATOM     31  C   UNL     1      -5.241  12.186  20.647  0.00  0.00    +0.000 A 
ENDBRANCH  20  30
ENDBRANCH  19  21
ENDBRANCH   1  19
TORSDOF 4
ENDMDL
MODEL 7
REMARK VINA RESULT:      -8.9      4.763     11.607
REMARK  Name = 
REMARK  8 active torsions:
REMARK  status: ('A' for Active; 'I' for Inactive)
REMARK    1  A    between atoms: C_1  and  C_2
REMARK    2  A    between atoms: C_4  and  C_5
REMARK    3  A    between atoms: C_7  and  N_8
REMARK    4  A    between atoms: C_9  and  C_11
REMARK    5  A    between atoms: C_11  and  N_12
REMARK    6  A    between atoms: C_17  and  C_18
REMARK    7  A    between atoms: C_21  and  C_22
REMARK    8  A    between atoms: C_23  and  C_24
REMARK                            x       y       z     vdW  Elec       q    Type
REMARK                         _______ _______ _______ _____ _____    ______ ____
ROOT
ATOM      1  N   UNL     1       4.266   5.592  18.501  0.00  0.00    +0.000 N 
ATOM      2  N   UNL     1       4.245   6.561  17.496  0.00  0.00    +0.000 NA
ATOM      3  C   UNL     1       3.343   7.405  17.905  0.00  0.00    +0.000 A 
ATOM      4  C   UNL     1       2.863   8.620  17.229  0.00  0.00    +0.000 A 
ATOM      5  C   UNL     1       1.949   9.362  17.851  0.00  0.00    +0.000 A 
ATOM      6  C   UNL     1       1.481   8.912  19.203  0.00  0.00    +0.000 A 
ATOM      7  N   UNL     1       1.856   7.831  19.771  0.00  0.00    +0.000 NA
ATOM      8  N   UNL     1       2.773   7.095  19.092  0.00  0.00    +0.000 N 
ATOM      9  C   UNL     1       3.265   5.865  19.472  0.00  0.00    +0.000 A 
ATOM     10  O   UNL     1       2.890   5.156  20.390  0.00  0.00    +0.000 OA
ENDROOT
BRANCH   6  11
ATOM     11  C   UNL     1       0.503   9.802  19.883  0.00  0.00    +0.000 A 
ATOM     12  C   UNL     1      -0.088  10.858  19.198  0.00  0.00    +0.000 A 
ATOM     13  C   UNL     1      -1.005  11.678  19.842  0.00  0.00    +0.000 A 
ATOM     14  C   UNL     1      -1.313  11.488  21.202  0.00  0.00    +0.000 A 
ATOM     15  C   UNL     1      -2.297  12.419  21.855  0.00  0.00    +0.000 C 
ATOM     16  C   UNL     1      -0.663  10.463  21.919  0.00  0.00    +0.000 A 
ATOM     17  C   UNL     1      -0.833  10.269  23.403  0.00  0.00    +0.000 C 
ATOM     18  C   UNL     1       0.227   9.609  21.244  0.00  0.00    +0.000 A 
ENDBRANCH   6  11
BRANCH   1  19
ATOM     19  C   UNL     1       5.092   4.403  18.424  0.00  0.00    +0.000 C 
BRANCH  19  21
ATOM     20  N   UNL     1       5.202   4.273  15.917  0.00  0.00    +0.000 N 
ATOM     21  C   UNL     1       5.894   4.268  17.127  0.00  0.00    +0.000 C 
ATOM     22  O   UNL     1       7.132   4.306  17.204  0.00  0.00    +0.000 OA
ATOM     23  H   UNL     1       4.203   4.474  15.962  0.00  0.00    +0.000 HD
BRANCH  20  30
ATOM     24  C   UNL     1       5.430   2.339  11.375  0.00  0.00    +0.000 C 
ATOM     25  C   UNL     1       5.967   3.310  12.388  0.00  0.00    +0.000 A 
ATOM     26  C   UNL     1       7.052   4.145  12.102  0.00  0.00    +0.000 A 
ATOM     27  C   UNL     1       7.532   5.028  13.075  0.00  0.00    +0.000 A 
ATOM     28  C   UNL     1       8.692   5.931  12.770  0.00  0.00    +0.000 C 
ATOM     29  C   UNL     1       6.928   5.055  14.343  0.00  0.00    +0.000 A 
ATOM     30  C   UNL     1       5.839   4.231  14.650  0.00  0.00    +0.000 A 
ATOM     31  C   UNL     1       5.370   3.365  13.658  0.00  0.00    +0.000 A 
ENDBRANCH  20  30
ENDBRANCH  19  21
ENDBRANCH   1  19
TORSDOF 4
ENDMDL
MODEL 8
REMARK VINA RESULT:      -8.8      3.814      5.015
REMARK  Name = 
REMARK  8 active torsions:
REMARK  status: ('A' for Active; 'I' for Inactive)
REMARK    1  A    between atoms: C_1  and  C_2
REMARK    2  A    between atoms: C_4  and  C_5
REMARK    3  A    between atoms: C_7  and  N_8
REMARK    4  A    between atoms: C_9  and  C_11
REMARK    5  A    between atoms: C_11  and  N_12
REMARK    6  A    between atoms: C_17  and  C_18
REMARK    7  A    between atoms: C_21  and  C_22
REMARK    8  A    between atoms: C_23  and  C_24
REMARK                            x       y       z     vdW  Elec       q    Type
REMARK                         _______ _______ _______ _____ _____    ______ ____
ROOT
ATOM      1  N   UNL     1       0.503  10.931  20.958  0.00  0.00    +0.000 N 
ATOM      2  N   UNL     1       0.717  10.949  19.578  0.00  0.00    +0.000 NA
ATOM      3  C   UNL     1       1.186   9.761  19.328  0.00  0.00    +0.000 A 
ATOM      4  C   UNL     1       1.630   9.214  18.037  0.00  0.00    +0.000 A 
ATOM      5  C   UNL     1       2.048   7.950  18.004  0.00  0.00    +0.000 A 
ATOM      6  C   UNL     1       2.026   7.170  19.283  0.00  0.00    +0.000 A 
ATOM      7  N   UNL     1       1.691   7.655  20.417  0.00  0.00    +0.000 NA
ATOM      8  N   UNL     1       1.291   8.953  20.408  0.00  0.00    +0.000 N 
ATOM      9  C   UNL     1       0.957   9.705  21.514  0.00  0.00    +0.000 A 
ATOM     10  O   UNL     1       1.078   9.407  22.690  0.00  0.00    +0.000 OA
ENDROOT
BRANCH   6  11
ATOM     11  C   UNL     1       2.447   5.746  19.186  0.00  0.00    +0.000 A 
ATOM     12  C   UNL     1       2.858   5.212  17.971  0.00  0.00    +0.000 A 
ATOM     13  C   UNL     1       3.255   3.884  17.894  0.00  0.00    +0.000 A 
ATOM     14  C   UNL     1       3.202   3.048  19.024  0.00  0.00    +0.000 A 
ATOM     15  C   UNL     1       3.624   1.612  18.879  0.00  0.00    +0.000 C 
ATOM     16  C   UNL     1       2.719   3.567  20.243  0.00  0.00    +0.000 A 
ATOM     17  C   UNL     1       2.506   2.716  21.466  0.00  0.00    +0.000 C 
ATOM     18  C   UNL     1       2.366   4.926  20.320  0.00  0.00    +0.000 A 
ENDBRANCH   6  11
BRANCH   1  19
ATOM     19  C   UNL     1       0.041  12.092  21.694  0.00  0.00    +0.000 C 
BRANCH  19  21
ATOM     20  N   UNL     1       0.055  13.787  19.837  0.00  0.00    +0.000 N 
ATOM     21  C   UNL     1       0.495  13.434  21.112  0.00  0.00    +0.000 C 
ATOM     22  O   UNL     1       1.115  14.209  21.858  0.00  0.00    +0.000 OA
ATOM     23  H   UNL     1      -0.635  13.172  19.405  0.00  0.00    +0.000 HD
BRANCH  20  30
ATOM     24  C   UNL     1      -1.506  18.260  18.431  0.00  0.00    +0.000 C 
ATOM     25  C   UNL     1      -0.388  17.262  18.536  0.00  0.00    +0.000 A 
ATOM     26  C   UNL     1       0.894  17.542  18.053  0.00  0.00    +0.000 A 
ATOM     27  C   UNL     1       1.908  16.583  18.157  0.00  0.00    +0.000 A 
ATOM     28  C   UNL     1       3.287  16.883  17.646  0.00  0.00    +0.000 C 
ATOM     29  C   UNL     1       1.621  15.334  18.733  0.00  0.00    +0.000 A 
ATOM     30  C   UNL     1       0.347  15.033  19.225  0.00  0.00    +0.000 A 
ATOM     31  C   UNL     1      -0.647  16.011  19.121  0.00  0.00    +0.000 A 
ENDBRANCH  20  30
ENDBRANCH  19  21
ENDBRANCH   1  19
TORSDOF 4
ENDMDL
MODEL 9
REMARK VINA RESULT:      -8.8      1.078      2.399
REMARK  Name = 
REMARK  8 active torsions:
REMARK  status: ('A' for Active; 'I' for Inactive)
REMARK    1  A    between atoms: C_1  and  C_2
REMARK    2  A    between atoms: C_4  and  C_5
REMARK    3  A    between atoms: C_7  and  N_8
REMARK    4  A    between atoms: C_9  and  C_11
REMARK    5  A    between atoms: C_11  and  N_12
REMARK    6  A    between atoms: C_17  and  C_18
REMARK    7  A    between atoms: C_21  and  C_22
REMARK    8  A    between atoms: C_23  and  C_24
REMARK                            x       y       z     vdW  Elec       q    Type
REMARK                         _______ _______ _______ _____ _____    ______ ____
ROOT
ATOM      1  N   UNL     1      -0.671  11.362  22.090  0.00  0.00    +0.000 N 
ATOM      2  N   UNL     1      -0.600  11.714  20.740  0.00  0.00    +0.000 NA
ATOM      3  C   UNL     1       0.122  10.766  20.217  0.00  0.00    +0.000 A 
ATOM      4  C   UNL     1       0.562  10.626  18.820  0.00  0.00    +0.000 A 
ATOM      5  C   UNL     1       1.273   9.549  18.493  0.00  0.00    +0.000 A 
ATOM      6  C   UNL     1       1.565   8.547  19.570  0.00  0.00    +0.000 A 
ATOM      7  N   UNL     1       1.230   8.688  20.795  0.00  0.00    +0.000 NA
ATOM      8  N   UNL     1       0.525   9.812  21.087  0.00  0.00    +0.000 N 
ATOM      9  C   UNL     1       0.123  10.210  22.344  0.00  0.00    +0.000 A 
ATOM     10  O   UNL     1       0.423   9.723  23.420  0.00  0.00    +0.000 OA
ENDROOT
BRANCH   6  11
ATOM     11  C   UNL     1       2.312   7.333  19.145  0.00  0.00    +0.000 A 
ATOM     12  C   UNL     1       2.238   6.161  19.889  0.00  0.00    +0.000 A 
ATOM     13  C   UNL     1       2.935   5.033  19.479  0.00  0.00    +0.000 A 
ATOM     14  C   UNL     1       3.761   5.068  18.342  0.00  0.00    +0.000 A 
ATOM     15  C   UNL     1       4.510   3.822  17.956  0.00  0.00    +0.000 C 
ATOM     16  C   UNL     1       3.895   6.274  17.624  0.00  0.00    +0.000 A 
ATOM     17  C   UNL     1       4.854   6.440  16.475  0.00  0.00    +0.000 C 
ATOM     18  C   UNL     1       3.147   7.397  18.021  0.00  0.00    +0.000 A 
ENDBRANCH   6  11
BRANCH   1  19
ATOM     19  C   UNL     1      -1.332  12.189  23.081  0.00  0.00    +0.000 C 
BRANCH  19  21
ATOM     20  N   UNL     1      -3.336  12.771  21.680  0.00  0.00    +0.000 N 
ATOM     21  C   UNL     1      -2.848  12.307  22.901  0.00  0.00    +0.000 C 
ATOM     22  O   UNL     1      -3.576  11.849  23.796  0.00  0.00    +0.000 OA
ATOM     23  H   UNL     1      -2.652  12.906  20.935  0.00  0.00    +0.000 HD
BRANCH  20  30
ATOM     24  C   UNL     1      -7.078  11.451  18.734  0.00  0.00    +0.000 C 
ATOM     25  C   UNL     1      -6.596  12.200  19.944  0.00  0.00    +0.000 A 
ATOM     26  C   UNL     1      -7.468  12.949  20.739  0.00  0.00    +0.000 A 
ATOM     27  C   UNL     1      -6.981  13.644  21.852  0.00  0.00    +0.000 A 
ATOM     28  C   UNL     1      -7.916  14.443  22.712  0.00  0.00    +0.000 C 
ATOM     29  C   UNL     1      -5.609  13.597  22.150  0.00  0.00    +0.000 A 
ATOM     30  C   UNL     1      -4.718  12.851  21.370  0.00  0.00    +0.000 A 
ATOM     31  C   UNL     1      -5.230  12.156  20.269  0.00  0.00    +0.000 A 
ENDBRANCH  20  30
ENDBRANCH  19  21
ENDBRANCH   1  19
TORSDOF 4
ENDMDL
