MODEL 1
REMARK VINA RESULT:      -8.2      0.000      0.000
REMARK  Name = 
REMARK  10 active torsions:
REMARK  status: ('A' for Active; 'I' for Inactive)
REMARK    1  A    between atoms: C_1  and  O_2
REMARK    2  A    between atoms: O_2  and  C_3
REMARK    3  A    between atoms: C_6  and  C_7
REMARK    4  A    between atoms: C_8  and  C_9
REMARK    5  A    between atoms: C_9  and  O_11
REMARK    6  A    between atoms: O_11  and  C_12
REMARK    7  A    between atoms: C_12  and  C_13
REMARK    8  A    between atoms: C_16  and  C_17
REMARK    9  A    between atoms: C_25  and  O_26
REMARK   10  A    between atoms: O_26  and  C_27
REMARK                            x       y       z     vdW  Elec       q    Type
REMARK                         _______ _______ _______ _____ _____    ______ ____
ROOT
ATOM      1  C   UNL     1       7.972   7.441  17.966  0.00  0.00    +0.000 C 
ATOM      2  O   UNL     1       7.704   7.430  16.775  0.00  0.00    +0.000 OA
ENDROOT
BRANCH   1   4
ATOM      3  C   UNL     1       8.682   9.769  18.076  0.00  0.00    +0.000 C 
ATOM      4  C   UNL     1       8.521   8.595  18.703  0.00  0.00    +0.000 C 
BRANCH   3   8
ATOM      5  C   UNL     1      10.491  13.204  19.907  0.00  0.00    +0.000 A 
ATOM      6  C   UNL     1      10.418  11.970  20.572  0.00  0.00    +0.000 A 
ATOM      7  C   UNL     1       9.825  10.860  19.967  0.00  0.00    +0.000 A 
ATOM      8  C   UNL     1       9.243  10.970  18.704  0.00  0.00    +0.000 A 
ATOM      9  C   UNL     1       9.263  12.218  18.070  0.00  0.00    +0.000 A 
ATOM     10  C   UNL     1       9.870  13.341  18.658  0.00  0.00    +0.000 A 
BRANCH   5  12
ATOM     11  C   UNL     1      10.413  14.969  21.488  0.00  0.00    +0.000 C 
ATOM     12  O   UNL     1      11.134  14.273  20.471  0.00  0.00    +0.000 OA
ENDBRANCH   5  12
BRANCH  10  13
ATOM     13  O   UNL     1       9.768  14.447  17.858  0.00  0.00    +0.000 OA
ATOM     14  C   UNL     1       8.689  15.347  18.046  0.00  0.00    +0.000 C 
ENDBRANCH  10  13
ENDBRANCH   3   8
ENDBRANCH   1   4
BRANCH   1  15
ATOM     15  O   UNL     1       7.845   6.413  18.835  0.00  0.00    +0.000 OA
BRANCH  15  16
ATOM     16  C   UNL     1       7.852   5.109  18.233  0.00  0.00    +0.000 C 
BRANCH  16  17
ATOM     17  C   UNL     1       6.488   4.661  17.809  0.00  0.00    +0.000 A 
ATOM     18  C   UNL     1       6.085   4.388  16.517  0.00  0.00    +0.000 A 
ATOM     19  S   UNL     1       4.449   3.901  16.498  0.00  0.00    +0.000 S 
ATOM     20  C   UNL     1       4.375   4.073  18.213  0.00  0.00    +0.000 A 
ATOM     21  N   UNL     1       5.498   4.490  18.769  0.00  0.00    +0.000 NA
BRANCH  20  22
ATOM     22  C   UNL     1       3.126   3.819  18.953  0.00  0.00    +0.000 A 
ATOM     23  C   UNL     1       2.130   2.942  18.487  0.00  0.00    +0.000 A 
ATOM     24  C   UNL     1       0.957   2.733  19.215  0.00  0.00    +0.000 A 
ATOM     25  C   UNL     1       0.758   3.397  20.424  0.00  0.00    +0.000 A 
ATOM     26  C   UNL     1       1.738   4.261  20.909  0.00  0.00    +0.000 A 
ATOM     27  C   UNL     1       2.915   4.464  20.181  0.00  0.00    +0.000 A 
ENDBRANCH  20  22
ENDBRANCH  16  17
ENDBRANCH  15  16
ENDBRANCH   1  15
TORSDOF 8
ENDMDL
MODEL 2
REMARK VINA RESULT:      -8.1      1.510      2.427
REMARK  Name = 
REMARK  10 active torsions:
REMARK  status: ('A' for Active; 'I' for Inactive)
REMARK    1  A    between atoms: C_1  and  O_2
REMARK    2  A    between atoms: O_2  and  C_3
REMARK    3  A    between atoms: C_6  and  C_7
REMARK    4  A    between atoms: C_8  and  C_9
REMARK    5  A    between atoms: C_9  and  O_11
REMARK    6  A    between atoms: O_11  and  C_12
REMARK    7  A    between atoms: C_12  and  C_13
REMARK    8  A    between atoms: C_16  and  C_17
REMARK    9  A    between atoms: C_25  and  O_26
REMARK   10  A    between atoms: O_26  and  C_27
REMARK                            x       y       z     vdW  Elec       q    Type
REMARK                         _______ _______ _______ _____ _____    ______ ____
ROOT
ATOM      1  C   UNL     1       7.766   6.946  17.726  0.00  0.00    +0.000 C 
ATOM      2  O   UNL     1       7.887   6.138  18.634  0.00  0.00    +0.000 OA
ENDROOT
BRANCH   1   4
ATOM      3  C   UNL     1       8.846   8.886  18.728  0.00  0.00    +0.000 C 
ATOM      4  C   UNL     1       7.949   8.404  17.856  0.00  0.00    +0.000 C 
BRANCH   3   8
ATOM      5  C   UNL     1       9.379  13.099  19.357  0.00  0.00    +0.000 A 
ATOM      6  C   UNL     1       9.125  12.573  18.081  0.00  0.00    +0.000 A 
ATOM      7  C   UNL     1       8.956  11.200  17.889  0.00  0.00    +0.000 A 
ATOM      8  C   UNL     1       9.089  10.315  18.958  0.00  0.00    +0.000 A 
ATOM      9  C   UNL     1       9.402  10.837  20.218  0.00  0.00    +0.000 A 
ATOM     10  C   UNL     1       9.561  12.217  20.432  0.00  0.00    +0.000 A 
BRANCH   5  12
ATOM     11  C   UNL     1      10.766  15.020  19.345  0.00  0.00    +0.000 C 
ATOM     12  O   UNL     1       9.475  14.449  19.558  0.00  0.00    +0.000 OA
ENDBRANCH   5  12
BRANCH  10  13
ATOM     13  O   UNL     1       9.863  12.494  21.738  0.00  0.00    +0.000 OA
ATOM     14  C   UNL     1       8.815  12.624  22.684  0.00  0.00    +0.000 C 
ENDBRANCH  10  13
ENDBRANCH   3   8
ENDBRANCH   1   4
BRANCH   1  15
ATOM     15  O   UNL     1       7.425   6.680  16.445  0.00  0.00    +0.000 OA
BRANCH  15  16
ATOM     16  C   UNL     1       6.466   5.624  16.281  0.00  0.00    +0.000 C 
BRANCH  16  17
ATOM     17  C   UNL     1       5.180   5.898  16.995  0.00  0.00    +0.000 A 
ATOM     18  C   UNL     1       4.490   7.094  17.003  0.00  0.00    +0.000 A 
ATOM     19  S   UNL     1       3.069   6.952  17.939  0.00  0.00    +0.000 S 
ATOM     20  C   UNL     1       3.449   5.302  18.271  0.00  0.00    +0.000 A 
ATOM     21  N   UNL     1       4.582   4.884  17.733  0.00  0.00    +0.000 NA
BRANCH  20  22
ATOM     22  C   UNL     1       2.585   4.477  19.132  0.00  0.00    +0.000 A 
ATOM     23  C   UNL     1       2.636   4.531  20.537  0.00  0.00    +0.000 A 
ATOM     24  C   UNL     1       1.804   3.727  21.319  0.00  0.00    +0.000 A 
ATOM     25  C   UNL     1       0.903   2.856  20.711  0.00  0.00    +0.000 A 
ATOM     26  C   UNL     1       0.827   2.796  19.320  0.00  0.00    +0.000 A 
ATOM     27  C   UNL     1       1.658   3.606  18.539  0.00  0.00    +0.000 A 
ENDBRANCH  20  22
ENDBRANCH  16  17
ENDBRANCH  15  16
ENDBRANCH   1  15
TORSDOF 8
ENDMDL
MODEL 3
REMARK VINA RESULT:      -8.1      1.028      1.874
REMARK  Name = 
REMARK  10 active torsions:
REMARK  status: ('A' for Active; 'I' for Inactive)
REMARK    1  A    between atoms: C_1  and  O_2
REMARK    2  A    between atoms: O_2  and  C_3
REMARK    3  A    between atoms: C_6  and  C_7
REMARK    4  A    between atoms: C_8  and  C_9
REMARK    5  A    between atoms: C_9  and  O_11
REMARK    6  A    between atoms: O_11  and  C_12
REMARK    7  A    between atoms: C_12  and  C_13
REMARK    8  A    between atoms: C_16  and  C_17
REMARK    9  A    between atoms: C_25  and  O_26
REMARK   10  A    between atoms: O_26  and  C_27
REMARK                            x       y       z     vdW  Elec       q    Type
REMARK                         _______ _______ _______ _____ _____    ______ ____
ROOT
ATOM      1  C   UNL     1       7.837   7.543  18.009  0.00  0.00    +0.000 C 
ATOM      2  O   UNL     1       7.320   7.633  16.907  0.00  0.00    +0.000 OA
ENDROOT
BRANCH   1   4
ATOM      3  C   UNL     1       8.676   9.824  18.172  0.00  0.00    +0.000 C 
ATOM      4  C   UNL     1       8.704   8.563  18.628  0.00  0.00    +0.000 C 
BRANCH   3   8
ATOM      5  C   UNL     1      11.051  13.113  19.574  0.00  0.00    +0.000 A 
ATOM      6  C   UNL     1      11.241  12.561  18.298  0.00  0.00    +0.000 A 
ATOM      7  C   UNL     1      10.464  11.489  17.854  0.00  0.00    +0.000 A 
ATOM      8  C   UNL     1       9.514  10.909  18.694  0.00  0.00    +0.000 A 
ATOM      9  C   UNL     1       9.370  11.423  19.988  0.00  0.00    +0.000 A 
ATOM     10  C   UNL     1      10.133  12.511  20.446  0.00  0.00    +0.000 A 
BRANCH   5  12
ATOM     11  C   UNL     1      11.200  15.477  19.657  0.00  0.00    +0.000 C 
ATOM     12  O   UNL     1      11.764  14.208  19.984  0.00  0.00    +0.000 OA
ENDBRANCH   5  12
BRANCH  10  13
ATOM     13  O   UNL     1       9.821  12.839  21.737  0.00  0.00    +0.000 OA
ATOM     14  C   UNL     1       8.711  12.221  22.365  0.00  0.00    +0.000 C 
ENDBRANCH  10  13
ENDBRANCH   3   8
ENDBRANCH   1   4
BRANCH   1  15
ATOM     15  O   UNL     1       7.742   6.500  18.866  0.00  0.00    +0.000 OA
BRANCH  15  16
ATOM     16  C   UNL     1       7.797   5.205  18.249  0.00  0.00    +0.000 C 
BRANCH  16  17
ATOM     17  C   UNL     1       6.450   4.710  17.823  0.00  0.00    +0.000 A 
ATOM     18  C   UNL     1       6.071   4.385  16.537  0.00  0.00    +0.000 A 
ATOM     19  S   UNL     1       4.447   3.858  16.513  0.00  0.00    +0.000 S 
ATOM     20  C   UNL     1       4.346   4.085  18.221  0.00  0.00    +0.000 A 
ATOM     21  N   UNL     1       5.452   4.547  18.777  0.00  0.00    +0.000 NA
BRANCH  20  22
ATOM     22  C   UNL     1       3.094   3.825  18.953  0.00  0.00    +0.000 A 
ATOM     23  C   UNL     1       2.789   4.441  20.181  0.00  0.00    +0.000 A 
ATOM     24  C   UNL     1       1.594   4.163  20.848  0.00  0.00    +0.000 A 
ATOM     25  C   UNL     1       0.681   3.265  20.299  0.00  0.00    +0.000 A 
ATOM     26  C   UNL     1       0.959   2.653  19.078  0.00  0.00    +0.000 A 
ATOM     27  C   UNL     1       2.154   2.937  18.409  0.00  0.00    +0.000 A 
ENDBRANCH  20  22
ENDBRANCH  16  17
ENDBRANCH  15  16
ENDBRANCH   1  15
TORSDOF 8
ENDMDL
MODEL 4
REMARK VINA RESULT:      -8.0      1.273      1.907
REMARK  Name = 
REMARK  10 active torsions:
REMARK  status: ('A' for Active; 'I' for Inactive)
REMARK    1  A    between atoms: C_1  and  O_2
REMARK    2  A    between atoms: O_2  and  C_3
REMARK    3  A    between atoms: C_6  and  C_7
REMARK    4  A    between atoms: C_8  and  C_9
REMARK    5  A    between atoms: C_9  and  O_11
REMARK    6  A    between atoms: O_11  and  C_12
REMARK    7  A    between atoms: C_12  and  C_13
REMARK    8  A    between atoms: C_16  and  C_17
REMARK    9  A    between atoms: C_25  and  O_26
REMARK   10  A    between atoms: O_26  and  C_27
REMARK                            x       y       z     vdW  Elec       q    Type
REMARK                         _______ _______ _______ _____ _____    ______ ____
ROOT
ATOM      1  C   UNL     1       7.734   7.531  17.593  0.00  0.00    +0.000 C 
ATOM      2  O   UNL     1       7.549   7.115  16.460  0.00  0.00    +0.000 OA
ENDROOT
BRANCH   1   4
ATOM      3  C   UNL     1       9.080   9.198  18.752  0.00  0.00    +0.000 C 
ATOM      4  C   UNL     1       8.044   8.930  17.944  0.00  0.00    +0.000 C 
BRANCH   3   8
ATOM      5  C   UNL     1      10.063  13.213  19.910  0.00  0.00    +0.000 A 
ATOM      6  C   UNL     1      10.324  12.737  18.616  0.00  0.00    +0.000 A 
ATOM      7  C   UNL     1      10.002  11.428  18.251  0.00  0.00    +0.000 A 
ATOM      8  C   UNL     1       9.460  10.547  19.187  0.00  0.00    +0.000 A 
ATOM      9  C   UNL     1       9.259  11.006  20.493  0.00  0.00    +0.000 A 
ATOM     10  C   UNL     1       9.563  12.325  20.873  0.00  0.00    +0.000 A 
BRANCH   5  12
ATOM     11  C   UNL     1      11.618  15.002  19.928  0.00  0.00    +0.000 C 
ATOM     12  O   UNL     1      10.314  14.516  20.248  0.00  0.00    +0.000 OA
ENDBRANCH   5  12
BRANCH  10  13
ATOM     13  O   UNL     1       9.284  12.548  22.194  0.00  0.00    +0.000 OA
ATOM     14  C   UNL     1       7.999  13.017  22.566  0.00  0.00    +0.000 C 
ENDBRANCH  10  13
ENDBRANCH   3   8
ENDBRANCH   1   4
BRANCH   1  15
ATOM     15  O   UNL     1       7.714   6.808  18.736  0.00  0.00    +0.000 OA
BRANCH  15  16
ATOM     16  C   UNL     1       7.789   5.387  18.552  0.00  0.00    +0.000 C 
BRANCH  16  17
ATOM     17  C   UNL     1       6.457   4.772  18.256  0.00  0.00    +0.000 A 
ATOM     18  C   UNL     1       5.990   4.398  17.012  0.00  0.00    +0.000 A 
ATOM     19  S   UNL     1       4.424   3.732  17.142  0.00  0.00    +0.000 S 
ATOM     20  C   UNL     1       4.461   3.971  18.851  0.00  0.00    +0.000 A 
ATOM     21  N   UNL     1       5.569   4.534  19.299  0.00  0.00    +0.000 NA
BRANCH  20  22
ATOM     22  C   UNL     1       3.310   3.613  19.698  0.00  0.00    +0.000 A 
ATOM     23  C   UNL     1       3.408   2.713  20.774  0.00  0.00    +0.000 A 
ATOM     24  C   UNL     1       2.291   2.394  21.549  0.00  0.00    +0.000 A 
ATOM     25  C   UNL     1       1.055   2.971  21.264  0.00  0.00    +0.000 A 
ATOM     26  C   UNL     1       0.939   3.874  20.208  0.00  0.00    +0.000 A 
ATOM     27  C   UNL     1       2.061   4.196  19.437  0.00  0.00    +0.000 A 
ENDBRANCH  20  22
ENDBRANCH  16  17
ENDBRANCH  15  16
ENDBRANCH   1  15
TORSDOF 8
ENDMDL
MODEL 5
REMARK VINA RESULT:      -8.0      1.399      2.150
REMARK  Name = 
REMARK  10 active torsions:
REMARK  status: ('A' for Active; 'I' for Inactive)
REMARK    1  A    between atoms: C_1  and  O_2
REMARK    2  A    between atoms: O_2  and  C_3
REMARK    3  A    between atoms: C_6  and  C_7
REMARK    4  A    between atoms: C_8  and  C_9
REMARK    5  A    between atoms: C_9  and  O_11
REMARK    6  A    between atoms: O_11  and  C_12
REMARK    7  A    between atoms: C_12  and  C_13
REMARK    8  A    between atoms: C_16  and  C_17
REMARK    9  A    between atoms: C_25  and  O_26
REMARK   10  A    between atoms: O_26  and  C_27
REMARK                            x       y       z     vdW  Elec       q    Type
REMARK                         _______ _______ _______ _____ _____    ______ ____
ROOT
ATOM      1  C   UNL     1       7.757   7.369  17.905  0.00  0.00    +0.000 C 
ATOM      2  O   UNL     1       8.076   6.520  18.722  0.00  0.00    +0.000 OA
ENDROOT
BRANCH   1   4
ATOM      3  C   UNL     1       9.072   9.227  18.771  0.00  0.00    +0.000 C 
ATOM      4  C   UNL     1       8.039   8.812  18.025  0.00  0.00    +0.000 C 
BRANCH   3   8
ATOM      5  C   UNL     1       9.947  13.397  19.301  0.00  0.00    +0.000 A 
ATOM      6  C   UNL     1       9.946  12.802  18.030  0.00  0.00    +0.000 A 
ATOM      7  C   UNL     1       9.662  11.443  17.871  0.00  0.00    +0.000 A 
ATOM      8  C   UNL     1       9.425  10.636  18.982  0.00  0.00    +0.000 A 
ATOM      9  C   UNL     1       9.487  11.219  20.253  0.00  0.00    +0.000 A 
ATOM     10  C   UNL     1       9.756  12.588  20.431  0.00  0.00    +0.000 A 
BRANCH   5  12
ATOM     11  C   UNL     1      11.367  15.250  18.894  0.00  0.00    +0.000 C 
ATOM     12  O   UNL     1      10.156  14.741  19.452  0.00  0.00    +0.000 OA
ENDBRANCH   5  12
BRANCH  10  13
ATOM     13  O   UNL     1       9.766  12.933  21.755  0.00  0.00    +0.000 OA
ATOM     14  C   UNL     1       8.642  12.629  22.563  0.00  0.00    +0.000 C 
ENDBRANCH  10  13
ENDBRANCH   3   8
ENDBRANCH   1   4
BRANCH   1  15
ATOM     15  O   UNL     1       7.076   7.171  16.753  0.00  0.00    +0.000 OA
BRANCH  15  16
ATOM     16  C   UNL     1       5.647   7.225  16.881  0.00  0.00    +0.000 C 
BRANCH  16  17
ATOM     17  C   UNL     1       5.037   5.878  17.112  0.00  0.00    +0.000 A 
ATOM     18  C   UNL     1       5.165   4.774  16.293  0.00  0.00    +0.000 A 
ATOM     19  S   UNL     1       4.310   3.449  16.947  0.00  0.00    +0.000 S 
ATOM     20  C   UNL     1       3.824   4.421  18.288  0.00  0.00    +0.000 A 
ATOM     21  N   UNL     1       4.257   5.668  18.243  0.00  0.00    +0.000 NA
BRANCH  20  22
ATOM     22  C   UNL     1       2.954   3.881  19.347  0.00  0.00    +0.000 A 
ATOM     23  C   UNL     1       1.606   4.258  19.490  0.00  0.00    +0.000 A 
ATOM     24  C   UNL     1       0.815   3.729  20.512  0.00  0.00    +0.000 A 
ATOM     25  C   UNL     1       1.357   2.812  21.410  0.00  0.00    +0.000 A 
ATOM     26  C   UNL     1       2.687   2.416  21.279  0.00  0.00    +0.000 A 
ATOM     27  C   UNL     1       3.476   2.944  20.251  0.00  0.00    +0.000 A 
ENDBRANCH  20  22
ENDBRANCH  16  17
ENDBRANCH  15  16
ENDBRANCH   1  15
TORSDOF 8
ENDMDL
MODEL 6
REMARK VINA RESULT:      -7.9      4.832      8.095
REMARK  Name = 
REMARK  10 active torsions:
REMARK  status: ('A' for Active; 'I' for Inactive)
REMARK    1  A    between atoms: C_1  and  O_2
REMARK    2  A    between atoms: O_2  and  C_3
REMARK    3  A    between atoms: C_6  and  C_7
REMARK    4  A    between atoms: C_8  and  C_9
REMARK    5  A    between atoms: C_9  and  O_11
REMARK    6  A    between atoms: O_11  and  C_12
REMARK    7  A    between atoms: C_12  and  C_13
REMARK    8  A    between atoms: C_16  and  C_17
REMARK    9  A    between atoms: C_25  and  O_26
REMARK   10  A    between atoms: O_26  and  C_27
REMARK                            x       y       z     vdW  Elec       q    Type
REMARK                         _______ _______ _______ _____ _____    ______ ____
ROOT
ATOM      1  C   UNL     1       1.579   3.133  20.939  0.00  0.00    +0.000 C 
ATOM      2  O   UNL     1       1.621   2.621  22.047  0.00  0.00    +0.000 OA
ENDROOT
BRANCH   1   4
ATOM      3  C   UNL     1       2.047   5.493  20.558  0.00  0.00    +0.000 C 
ATOM      4  C   UNL     1       1.138   4.512  20.658  0.00  0.00    +0.000 C 
BRANCH   3   8
ATOM      5  C   UNL     1       0.997   9.561  19.674  0.00  0.00    +0.000 A 
ATOM      6  C   UNL     1       1.900   8.844  18.873  0.00  0.00    +0.000 A 
ATOM      7  C   UNL     1       2.236   7.522  19.173  0.00  0.00    +0.000 A 
ATOM      8  C   UNL     1       1.718   6.901  20.309  0.00  0.00    +0.000 A 
ATOM      9  C   UNL     1       0.866   7.639  21.139  0.00  0.00    +0.000 A 
ATOM     10  C   UNL     1       0.505   8.965  20.845  0.00  0.00    +0.000 A 
BRANCH   5  12
ATOM     11  C   UNL     1      -0.640  10.950  18.670  0.00  0.00    +0.000 C 
ATOM     12  O   UNL     1       0.613  10.833  19.343  0.00  0.00    +0.000 OA
ENDBRANCH   5  12
BRANCH  10  13
ATOM     13  O   UNL     1      -0.335   9.483  21.793  0.00  0.00    +0.000 OA
ATOM     14  C   UNL     1       0.059   9.469  23.155  0.00  0.00    +0.000 C 
ENDBRANCH  10  13
ENDBRANCH   3   8
ENDBRANCH   1   4
BRANCH   1  15
ATOM     15  O   UNL     1       1.900   2.549  19.762  0.00  0.00    +0.000 OA
BRANCH  15  16
ATOM     16  C   UNL     1       3.284   2.193  19.623  0.00  0.00    +0.000 C 
BRANCH  16  17
ATOM     17  C   UNL     1       3.990   3.014  18.589  0.00  0.00    +0.000 A 
ATOM     18  C   UNL     1       3.881   2.869  17.220  0.00  0.00    +0.000 A 
ATOM     19  S   UNL     1       4.856   4.023  16.424  0.00  0.00    +0.000 S 
ATOM     20  C   UNL     1       5.360   4.654  17.949  0.00  0.00    +0.000 A 
ATOM     21  N   UNL     1       4.848   4.029  18.994  0.00  0.00    +0.000 NA
BRANCH  20  22
ATOM     22  C   UNL     1       6.325   5.764  18.035  0.00  0.00    +0.000 A 
ATOM     23  C   UNL     1       6.230   6.918  17.237  0.00  0.00    +0.000 A 
ATOM     24  C   UNL     1       7.170   7.946  17.344  0.00  0.00    +0.000 A 
ATOM     25  C   UNL     1       8.221   7.839  18.252  0.00  0.00    +0.000 A 
ATOM     26  C   UNL     1       8.327   6.708  19.061  0.00  0.00    +0.000 A 
ATOM     27  C   UNL     1       7.380   5.683  18.955  0.00  0.00    +0.000 A 
ENDBRANCH  20  22
ENDBRANCH  16  17
ENDBRANCH  15  16
ENDBRANCH   1  15
TORSDOF 8
ENDMDL
MODEL 7
REMARK VINA RESULT:      -7.8      1.124      1.147
REMARK  Name = 
REMARK  10 active torsions:
REMARK  status: ('A' for Active; 'I' for Inactive)
REMARK    1  A    between atoms: C_1  and  O_2
REMARK    2  A    between atoms: O_2  and  C_3
REMARK    3  A    between atoms: C_6  and  C_7
REMARK    4  A    between atoms: C_8  and  C_9
REMARK    5  A    between atoms: C_9  and  O_11
REMARK    6  A    between atoms: O_11  and  C_12
REMARK    7  A    between atoms: C_12  and  C_13
REMARK    8  A    between atoms: C_16  and  C_17
REMARK    9  A    between atoms: C_25  and  O_26
REMARK   10  A    between atoms: O_26  and  C_27
REMARK                            x       y       z     vdW  Elec       q    Type
REMARK                         _______ _______ _______ _____ _____    ______ ____
ROOT
ATOM      1  C   UNL     1       7.344   7.861  17.504  0.00  0.00    +0.000 C 
ATOM      2  O   UNL     1       6.241   7.714  17.002  0.00  0.00    +0.000 OA
ENDROOT
BRANCH   1   4
ATOM      3  C   UNL     1       8.867   9.283  18.765  0.00  0.00    +0.000 C 
ATOM      4  C   UNL     1       8.000   9.159  17.750  0.00  0.00    +0.000 C 
BRANCH   3   8
ATOM      5  C   UNL     1      10.978  12.840  19.915  0.00  0.00    +0.000 A 
ATOM      6  C   UNL     1      10.105  12.186  20.798  0.00  0.00    +0.000 A 
ATOM      7  C   UNL     1       9.422  11.031  20.411  0.00  0.00    +0.000 A 
ATOM      8  C   UNL     1       9.554  10.532  19.116  0.00  0.00    +0.000 A 
ATOM      9  C   UNL     1      10.378  11.221  18.219  0.00  0.00    +0.000 A 
ATOM     10  C   UNL     1      11.084  12.377  18.595  0.00  0.00    +0.000 A 
BRANCH   5  12
ATOM     11  C   UNL     1      10.960  15.140  20.487  0.00  0.00    +0.000 C 
ATOM     12  O   UNL     1      11.700  13.932  20.314  0.00  0.00    +0.000 OA
ENDBRANCH   5  12
BRANCH  10  13
ATOM     13  O   UNL     1      11.823  12.878  17.558  0.00  0.00    +0.000 OA
ATOM     14  C   UNL     1      11.323  13.977  16.814  0.00  0.00    +0.000 C 
ENDBRANCH  10  13
ENDBRANCH   3   8
ENDBRANCH   1   4
BRANCH   1  15
ATOM     15  O   UNL     1       8.186   6.883  17.912  0.00  0.00    +0.000 OA
BRANCH  15  16
ATOM     16  C   UNL     1       7.642   5.989  18.894  0.00  0.00    +0.000 C 
BRANCH  16  17
ATOM     17  C   UNL     1       6.528   5.148  18.356  0.00  0.00    +0.000 A 
ATOM     18  C   UNL     1       6.519   4.485  17.144  0.00  0.00    +0.000 A 
ATOM     19  S   UNL     1       5.049   3.641  16.942  0.00  0.00    +0.000 S 
ATOM     20  C   UNL     1       4.513   4.199  18.484  0.00  0.00    +0.000 A 
ATOM     21  N   UNL     1       5.371   4.987  19.108  0.00  0.00    +0.000 NA
BRANCH  20  22
ATOM     22  C   UNL     1       3.180   3.847  19.002  0.00  0.00    +0.000 A 
ATOM     23  C   UNL     1       2.290   3.007  18.309  0.00  0.00    +0.000 A 
ATOM     24  C   UNL     1       1.031   2.703  18.830  0.00  0.00    +0.000 A 
ATOM     25  C   UNL     1       0.639   3.233  20.058  0.00  0.00    +0.000 A 
ATOM     26  C   UNL     1       1.509   4.058  20.768  0.00  0.00    +0.000 A 
ATOM     27  C   UNL     1       2.772   4.356  20.245  0.00  0.00    +0.000 A 
ENDBRANCH  20  22
ENDBRANCH  16  17
ENDBRANCH  15  16
ENDBRANCH   1  15
TORSDOF 8
ENDMDL
MODEL 8
REMARK VINA RESULT:      -7.7      1.263      1.752
REMARK  Name = 
REMARK  10 active torsions:
REMARK  status: ('A' for Active; 'I' for Inactive)
REMARK    1  A    between atoms: C_1  and  O_2
REMARK    2  A    between atoms: O_2  and  C_3
REMARK    3  A    between atoms: C_6  and  C_7
REMARK    4  A    between atoms: C_8  and  C_9
REMARK    5  A    between atoms: C_9  and  O_11
REMARK    6  A    between atoms: O_11  and  C_12
REMARK    7  A    between atoms: C_12  and  C_13
REMARK    8  A    between atoms: C_16  and  C_17
REMARK    9  A    between atoms: C_25  and  O_26
REMARK   10  A    between atoms: O_26  and  C_27
REMARK                            x       y       z     vdW  Elec       q    Type
REMARK                         _______ _______ _______ _____ _____    ______ ____
ROOT
ATOM      1  C   UNL     1       7.621   7.745  17.553  0.00  0.00    +0.000 C 
ATOM      2  O   UNL     1       6.654   8.053  16.875  0.00  0.00    +0.000 OA
ENDROOT
BRANCH   1   4
ATOM      3  C   UNL     1       8.648   9.935  17.847  0.00  0.00    +0.000 C 
ATOM      4  C   UNL     1       8.464   8.690  18.310  0.00  0.00    +0.000 C 
BRANCH   3   8
ATOM      5  C   UNL     1      11.013  13.021  19.666  0.00  0.00    +0.000 A 
ATOM      6  C   UNL     1      11.141  12.703  18.305  0.00  0.00    +0.000 A 
ATOM      7  C   UNL     1      10.367  11.695  17.725  0.00  0.00    +0.000 A 
ATOM      8  C   UNL     1       9.486  10.945  18.503  0.00  0.00    +0.000 A 
ATOM      9  C   UNL     1       9.406  11.223  19.872  0.00  0.00    +0.000 A 
ATOM     10  C   UNL     1      10.166  12.244  20.469  0.00  0.00    +0.000 A 
BRANCH   5  12
ATOM     11  C   UNL     1      12.297  14.979  19.300  0.00  0.00    +0.000 C 
ATOM     12  O   UNL     1      11.720  14.054  20.221  0.00  0.00    +0.000 OA
ENDBRANCH   5  12
BRANCH  10  13
ATOM     13  O   UNL     1       9.924  12.333  21.813  0.00  0.00    +0.000 OA
ATOM     14  C   UNL     1       9.052  13.340  22.299  0.00  0.00    +0.000 C 
ENDBRANCH  10  13
ENDBRANCH   3   8
ENDBRANCH   1   4
BRANCH   1  15
ATOM     15  O   UNL     1       8.124   6.502  17.732  0.00  0.00    +0.000 OA
BRANCH  15  16
ATOM     16  C   UNL     1       7.522   5.755  18.799  0.00  0.00    +0.000 C 
BRANCH  16  17
ATOM     17  C   UNL     1       6.310   4.995  18.359  0.00  0.00    +0.000 A 
ATOM     18  C   UNL     1       6.077   4.494  17.094  0.00  0.00    +0.000 A 
ATOM     19  S   UNL     1       4.572   3.689  17.043  0.00  0.00    +0.000 S 
ATOM     20  C   UNL     1       4.322   4.045  18.713  0.00  0.00    +0.000 A 
ATOM     21  N   UNL     1       5.294   4.743  19.273  0.00  0.00    +0.000 NA
BRANCH  20  22
ATOM     22  C   UNL     1       3.088   3.635  19.405  0.00  0.00    +0.000 A 
ATOM     23  C   UNL     1       1.888   3.363  18.724  0.00  0.00    +0.000 A 
ATOM     24  C   UNL     1       0.737   2.984  19.417  0.00  0.00    +0.000 A 
ATOM     25  C   UNL     1       0.765   2.867  20.805  0.00  0.00    +0.000 A 
ATOM     26  C   UNL     1       1.948   3.120  21.499  0.00  0.00    +0.000 A 
ATOM     27  C   UNL     1       3.101   3.495  20.800  0.00  0.00    +0.000 A 
ENDBRANCH  20  22
ENDBRANCH  16  17
ENDBRANCH  15  16
ENDBRANCH   1  15
TORSDOF 8
ENDMDL
MODEL 9
REMARK VINA RESULT:      -7.7      1.021      1.293
REMARK  Name = 
REMARK  10 active torsions:
REMARK  status: ('A' for Active; 'I' for Inactive)
REMARK    1  A    between atoms: C_1  and  O_2
REMARK    2  A    between atoms: O_2  and  C_3
REMARK    3  A    between atoms: C_6  and  C_7
REMARK    4  A    between atoms: C_8  and  C_9
REMARK    5  A    between atoms: C_9  and  O_11
REMARK    6  A    between atoms: O_11  and  C_12
REMARK    7  A    between atoms: C_12  and  C_13
REMARK    8  A    between atoms: C_16  and  C_17
REMARK    9  A    between atoms: C_25  and  O_26
REMARK   10  A    between atoms: O_26  and  C_27
REMARK                            x       y       z     vdW  Elec       q    Type
REMARK                         _______ _______ _______ _____ _____    ______ ____
ROOT
ATOM      1  C   UNL     1       7.993   7.295  18.242  0.00  0.00    +0.000 C 
ATOM      2  O   UNL     1       7.972   6.230  18.838  0.00  0.00    +0.000 OA
ENDROOT
BRANCH   1   4
ATOM      3  C   UNL     1       8.507   9.667  18.035  0.00  0.00    +0.000 C 
ATOM      4  C   UNL     1       8.657   8.523  18.718  0.00  0.00    +0.000 C 
BRANCH   3   8
ATOM      5  C   UNL     1      10.518  13.332  19.011  0.00  0.00    +0.000 A 
ATOM      6  C   UNL     1      10.963  12.095  19.503  0.00  0.00    +0.000 A 
ATOM      7  C   UNL     1      10.299  10.910  19.181  0.00  0.00    +0.000 A 
ATOM      8  C   UNL     1       9.143  10.937  18.402  0.00  0.00    +0.000 A 
ATOM      9  C   UNL     1       8.667  12.178  17.963  0.00  0.00    +0.000 A 
ATOM     10  C   UNL     1       9.331  13.379  18.266  0.00  0.00    +0.000 A 
BRANCH   5  12
ATOM     11  C   UNL     1      10.913  15.123  20.512  0.00  0.00    +0.000 C 
ATOM     12  O   UNL     1      11.208  14.486  19.269  0.00  0.00    +0.000 OA
ENDBRANCH   5  12
BRANCH  10  13
ATOM     13  O   UNL     1       8.685  14.462  17.733  0.00  0.00    +0.000 OA
ATOM     14  C   UNL     1       7.269  14.521  17.778  0.00  0.00    +0.000 C 
ENDBRANCH  10  13
ENDBRANCH   3   8
ENDBRANCH   1   4
BRANCH   1  15
ATOM     15  O   UNL     1       7.405   7.571  17.055  0.00  0.00    +0.000 OA
BRANCH  15  16
ATOM     16  C   UNL     1       5.972   7.637  17.092  0.00  0.00    +0.000 C 
BRANCH  16  17
ATOM     17  C   UNL     1       5.330   6.286  17.065  0.00  0.00    +0.000 A 
ATOM     18  C   UNL     1       5.668   5.240  16.228  0.00  0.00    +0.000 A 
ATOM     19  S   UNL     1       4.681   3.884  16.548  0.00  0.00    +0.000 S 
ATOM     20  C   UNL     1       3.867   4.765  17.789  0.00  0.00    +0.000 A 
ATOM     21  N   UNL     1       4.291   6.007  17.944  0.00  0.00    +0.000 NA
BRANCH  20  22
ATOM     22  C   UNL     1       2.760   4.163  18.552  0.00  0.00    +0.000 A 
ATOM     23  C   UNL     1       1.969   3.115  18.048  0.00  0.00    +0.000 A 
ATOM     24  C   UNL     1       0.924   2.576  18.800  0.00  0.00    +0.000 A 
ATOM     25  C   UNL     1       0.650   3.075  20.072  0.00  0.00    +0.000 A 
ATOM     26  C   UNL     1       1.429   4.106  20.595  0.00  0.00    +0.000 A 
ATOM     27  C   UNL     1       2.479   4.640  19.841  0.00  0.00    +0.000 A 
ENDBRANCH  20  22
ENDBRANCH  16  17
ENDBRANCH  15  16
ENDBRANCH   1  15
TORSDOF 8
ENDMDL
