MODEL 1
REMARK VINA RESULT:      -6.0      0.000      0.000
REMARK  Name = 
REMARK  16 active torsions:
REMARK  status: ('A' for Active; 'I' for Inactive)
REMARK    1  A    between atoms: C_1  and  C_2
REMARK    2  A    between atoms: C_2  and  C_3
REMARK    3  A    between atoms: C_3  and  C_4
REMARK    4  A    between atoms: C_3  and  O_6
REMARK    5  A    between atoms: C_4  and  C_5
REMARK    6  A    between atoms: O_6  and  C_7
REMARK    7  A    between atoms: C_7  and  C_9
REMARK    8  A    between atoms: C_9  and  N_10
REMARK    9  A    between atoms: C_9  and  C_19
REMARK   10  A    between atoms: C_11  and  C_13
REMARK   11  A    between atoms: C_13  and  N_14
REMARK   12  A    between atoms: C_13  and  C_15
REMARK   13  A    between atoms: C_15  and  C_16
REMARK   14  A    between atoms: C_16  and  O_18
REMARK   15  A    between atoms: C_19  and  O_21
REMARK   16  A    between atoms: O_21  and  C_22
REMARK                            x       y       z     vdW  Elec       q    Type
REMARK                         _______ _______ _______ _____ _____    ______ ____
ROOT
ATOM      1  C   UNL     1       3.657   5.696  18.856  0.00  0.00    +0.000 C 
ENDROOT
BRANCH   1   2
ATOM      2  N   UNL     1       4.904   5.956  18.130  0.00  0.00    +0.000 N 
ATOM      3  C   UNL     1       6.121   5.610  18.646  0.00  0.00    +0.000 C 
ATOM      4  O   UNL     1       6.265   5.124  19.772  0.00  0.00    +0.000 OA
ATOM      5  H   UNL     1       4.868   6.323  17.178  0.00  0.00    +0.000 HD
BRANCH   3   6
ATOM      6  C   UNL     1       7.324   5.861  17.713  0.00  0.00    +0.000 C 
BRANCH   6   7
ATOM      7  N   UNL     1       7.142   7.137  16.987  0.00  0.00    +0.000 NA
ATOM      8  H   UNL     1       6.962   6.924  15.998  0.00  0.00    +0.000 HD
ATOM      9  H   UNL     1       8.037   7.633  16.960  0.00  0.00    +0.000 HD
ENDBRANCH   6   7
BRANCH   6  10
ATOM     10  C   UNL     1       7.509   4.662  16.780  0.00  0.00    +0.000 C 
BRANCH  10  11
ATOM     11  C   UNL     1       6.922   4.946  15.425  0.00  0.00    +0.000 C 
ATOM     12  O   UNL     1       7.587   5.325  14.468  0.00  0.00    +0.000 OA
BRANCH  11  13
ATOM     13  O   UNL     1       5.577   4.829  15.366  0.00  0.00    +0.000 OA
ATOM     14  H   UNL     1       5.267   3.905  15.210  0.00  0.00    +0.000 HD
ENDBRANCH  11  13
ENDBRANCH  10  11
ENDBRANCH   6  10
ENDBRANCH   3   6
ENDBRANCH   1   2
BRANCH   1  15
ATOM     15  C   UNL     1       2.948   4.490  18.250  0.00  0.00    +0.000 C 
ATOM     16  O   UNL     1       2.890   4.247  17.050  0.00  0.00    +0.000 OA
BRANCH  15  17
ATOM     17  O   UNL     1       2.502   3.664  19.238  0.00  0.00    +0.000 OA
BRANCH  17  18
ATOM     18  C   UNL     1       3.455   3.248  20.248  0.00  0.00    +0.000 C 
BRANCH  18  20
ATOM     19  C   UNL     1       1.098   2.906  21.286  0.00  0.00    +0.000 C 
ATOM     20  C   UNL     1       2.598   2.726  21.422  0.00  0.00    +0.000 C 
ENDBRANCH  18  20
BRANCH  18  21
ATOM     21  C   UNL     1       4.342   2.165  19.616  0.00  0.00    +0.000 C 
ATOM     22  C   UNL     1       3.594   1.250  18.644  0.00  0.00    +0.000 C 
ENDBRANCH  18  21
ENDBRANCH  17  18
ENDBRANCH  15  17
ENDBRANCH   1  15
BRANCH   1  23
ATOM     23  C   UNL     1       2.731   6.894  18.979  0.00  0.00    +0.000 C 
ATOM     24  O   UNL     1       2.205   7.239  20.038  0.00  0.00    +0.000 OA
BRANCH  23  25
ATOM     25  O   UNL     1       2.584   7.567  17.804  0.00  0.00    +0.000 OA
ATOM     26  C   UNL     1       2.048   8.880  17.937  0.00  0.00    +0.000 C 
ENDBRANCH  23  25
ENDBRANCH   1  23
TORSDOF 13
ENDMDL
MODEL 2
REMARK VINA RESULT:      -5.9      2.372      6.162
REMARK  Name = 
REMARK  16 active torsions:
REMARK  status: ('A' for Active; 'I' for Inactive)
REMARK    1  A    between atoms: C_1  and  C_2
REMARK    2  A    between atoms: C_2  and  C_3
REMARK    3  A    between atoms: C_3  and  C_4
REMARK    4  A    between atoms: C_3  and  O_6
REMARK    5  A    between atoms: C_4  and  C_5
REMARK    6  A    between atoms: O_6  and  C_7
REMARK    7  A    between atoms: C_7  and  C_9
REMARK    8  A    between atoms: C_9  and  N_10
REMARK    9  A    between atoms: C_9  and  C_19
REMARK   10  A    between atoms: C_11  and  C_13
REMARK   11  A    between atoms: C_13  and  N_14
REMARK   12  A    between atoms: C_13  and  C_15
REMARK   13  A    between atoms: C_15  and  C_16
REMARK   14  A    between atoms: C_16  and  O_18
REMARK   15  A    between atoms: C_19  and  O_21
REMARK   16  A    between atoms: O_21  and  C_22
REMARK                            x       y       z     vdW  Elec       q    Type
REMARK                         _______ _______ _______ _____ _____    ______ ____
ROOT
ATOM      1  C   UNL     1       5.854   5.040  17.315  0.00  0.00    +0.000 C 
ENDROOT
BRANCH   1   2
ATOM      2  N   UNL     1       5.113   3.888  17.838  0.00  0.00    +0.000 N 
ATOM      3  C   UNL     1       4.336   3.981  18.959  0.00  0.00    +0.000 C 
ATOM      4  O   UNL     1       4.258   5.005  19.643  0.00  0.00    +0.000 OA
ATOM      5  H   UNL     1       5.097   3.015  17.310  0.00  0.00    +0.000 HD
BRANCH   3   6
ATOM      6  C   UNL     1       3.545   2.706  19.316  0.00  0.00    +0.000 C 
BRANCH   6   7
ATOM      7  N   UNL     1       3.605   1.743  18.195  0.00  0.00    +0.000 NA
ATOM      8  H   UNL     1       2.644   1.501  17.923  0.00  0.00    +0.000 HD
ATOM      9  H   UNL     1       3.981   0.856  18.539  0.00  0.00    +0.000 HD
ENDBRANCH   6   7
BRANCH   6  10
ATOM     10  C   UNL     1       2.114   3.083  19.705  0.00  0.00    +0.000 C 
BRANCH  10  11
ATOM     11  C   UNL     1       1.184   2.926  18.534  0.00  0.00    +0.000 C 
ATOM     12  O   UNL     1       0.373   2.013  18.435  0.00  0.00    +0.000 OA
BRANCH  11  13
ATOM     13  O   UNL     1       1.372   3.833  17.550  0.00  0.00    +0.000 OA
ATOM     14  H   UNL     1       1.966   4.578  17.808  0.00  0.00    +0.000 HD
ENDBRANCH  11  13
ENDBRANCH  10  11
ENDBRANCH   6  10
ENDBRANCH   3   6
ENDBRANCH   1   2
BRANCH   1  15
ATOM     15  C   UNL     1       5.571   5.205  15.827  0.00  0.00    +0.000 C 
ATOM     16  O   UNL     1       5.485   6.283  15.249  0.00  0.00    +0.000 OA
BRANCH  15  17
ATOM     17  O   UNL     1       5.556   3.987  15.215  0.00  0.00    +0.000 OA
BRANCH  17  18
ATOM     18  C   UNL     1       6.334   3.833  14.002  0.00  0.00    +0.000 C 
BRANCH  18  20
ATOM     19  C   UNL     1       5.439   2.728  11.828  0.00  0.00    +0.000 C 
ATOM     20  C   UNL     1       5.300   3.836  12.854  0.00  0.00    +0.000 C 
ENDBRANCH  18  20
BRANCH  18  21
ATOM     21  C   UNL     1       7.314   5.015  13.938  0.00  0.00    +0.000 C 
ATOM     22  C   UNL     1       7.838   5.302  12.530  0.00  0.00    +0.000 C 
ENDBRANCH  18  21
ENDBRANCH  17  18
ENDBRANCH  15  17
ENDBRANCH   1  15
BRANCH   1  23
ATOM     23  C   UNL     1       7.344   5.023  17.610  0.00  0.00    +0.000 C 
ATOM     24  O   UNL     1       8.118   4.185  17.147  0.00  0.00    +0.000 OA
BRANCH  23  25
ATOM     25  O   UNL     1       7.734   6.058  18.404  0.00  0.00    +0.000 OA
ATOM     26  C   UNL     1       7.665   7.339  17.785  0.00  0.00    +0.000 C 
ENDBRANCH  23  25
ENDBRANCH   1  23
TORSDOF 13
ENDMDL
MODEL 3
REMARK VINA RESULT:      -5.9      2.353      6.221
REMARK  Name = 
REMARK  16 active torsions:
REMARK  status: ('A' for Active; 'I' for Inactive)
REMARK    1  A    between atoms: C_1  and  C_2
REMARK    2  A    between atoms: C_2  and  C_3
REMARK    3  A    between atoms: C_3  and  C_4
REMARK    4  A    between atoms: C_3  and  O_6
REMARK    5  A    between atoms: C_4  and  C_5
REMARK    6  A    between atoms: O_6  and  C_7
REMARK    7  A    between atoms: C_7  and  C_9
REMARK    8  A    between atoms: C_9  and  N_10
REMARK    9  A    between atoms: C_9  and  C_19
REMARK   10  A    between atoms: C_11  and  C_13
REMARK   11  A    between atoms: C_13  and  N_14
REMARK   12  A    between atoms: C_13  and  C_15
REMARK   13  A    between atoms: C_15  and  C_16
REMARK   14  A    between atoms: C_16  and  O_18
REMARK   15  A    between atoms: C_19  and  O_21
REMARK   16  A    between atoms: O_21  and  C_22
REMARK                            x       y       z     vdW  Elec       q    Type
REMARK                         _______ _______ _______ _____ _____    ______ ____
ROOT
ATOM      1  C   UNL     1       5.859   5.002  16.188  0.00  0.00    +0.000 C 
ENDROOT
BRANCH   1   2
ATOM      2  N   UNL     1       4.633   4.225  16.393  0.00  0.00    +0.000 N 
ATOM      3  C   UNL     1       4.242   3.812  17.636  0.00  0.00    +0.000 C 
ATOM      4  O   UNL     1       4.916   4.001  18.653  0.00  0.00    +0.000 OA
ATOM      5  H   UNL     1       4.002   4.058  15.608  0.00  0.00    +0.000 HD
BRANCH   3   6
ATOM      6  C   UNL     1       2.879   3.093  17.690  0.00  0.00    +0.000 C 
BRANCH   6   7
ATOM      7  N   UNL     1       1.825   3.962  17.123  0.00  0.00    +0.000 NA
ATOM      8  H   UNL     1       1.132   4.152  17.857  0.00  0.00    +0.000 HD
ATOM      9  H   UNL     1       1.293   3.429  16.431  0.00  0.00    +0.000 HD
ENDBRANCH   6   7
BRANCH   6  10
ATOM     10  C   UNL     1       2.586   2.657  19.128  0.00  0.00    +0.000 C 
BRANCH  10  11
ATOM     11  C   UNL     1       1.599   3.587  19.776  0.00  0.00    +0.000 C 
ATOM     12  O   UNL     1       1.838   4.766  20.009  0.00  0.00    +0.000 OA
BRANCH  11  13
ATOM     13  O   UNL     1       0.446   2.996  20.160  0.00  0.00    +0.000 OA
ATOM     14  H   UNL     1       0.575   2.271  20.818  0.00  0.00    +0.000 HD
ENDBRANCH  11  13
ENDBRANCH  10  11
ENDBRANCH   6  10
ENDBRANCH   3   6
ENDBRANCH   1   2
BRANCH   1  15
ATOM     15  C   UNL     1       5.550   6.491  16.294  0.00  0.00    +0.000 C 
ATOM     16  O   UNL     1       4.864   7.119  15.494  0.00  0.00    +0.000 OA
BRANCH  15  17
ATOM     17  O   UNL     1       6.038   6.988  17.465  0.00  0.00    +0.000 OA
BRANCH  17  18
ATOM     18  C   UNL     1       7.473   7.166  17.574  0.00  0.00    +0.000 C 
BRANCH  18  20
ATOM     19  C   UNL     1       8.697   9.241  18.547  0.00  0.00    +0.000 C 
ATOM     20  C   UNL     1       7.694   8.695  17.548  0.00  0.00    +0.000 C 
ENDBRANCH  18  20
BRANCH  18  21
ATOM     21  C   UNL     1       7.912   6.512  18.893  0.00  0.00    +0.000 C 
ATOM     22  C   UNL     1       8.118   5.000  18.788  0.00  0.00    +0.000 C 
ENDBRANCH  18  21
ENDBRANCH  17  18
ENDBRANCH  15  17
ENDBRANCH   1  15
BRANCH   1  23
ATOM     23  C   UNL     1       6.616   4.670  14.913  0.00  0.00    +0.000 C 
ATOM     24  O   UNL     1       7.617   5.283  14.540  0.00  0.00    +0.000 OA
BRANCH  23  25
ATOM     25  O   UNL     1       6.093   3.599  14.255  0.00  0.00    +0.000 OA
ATOM     26  C   UNL     1       6.277   3.623  12.843  0.00  0.00    +0.000 C 
ENDBRANCH  23  25
ENDBRANCH   1  23
TORSDOF 13
ENDMDL
MODEL 4
REMARK VINA RESULT:      -5.9      1.745      4.145
REMARK  Name = 
REMARK  16 active torsions:
REMARK  status: ('A' for Active; 'I' for Inactive)
REMARK    1  A    between atoms: C_1  and  C_2
REMARK    2  A    between atoms: C_2  and  C_3
REMARK    3  A    between atoms: C_3  and  C_4
REMARK    4  A    between atoms: C_3  and  O_6
REMARK    5  A    between atoms: C_4  and  C_5
REMARK    6  A    between atoms: O_6  and  C_7
REMARK    7  A    between atoms: C_7  and  C_9
REMARK    8  A    between atoms: C_9  and  N_10
REMARK    9  A    between atoms: C_9  and  C_19
REMARK   10  A    between atoms: C_11  and  C_13
REMARK   11  A    between atoms: C_13  and  N_14
REMARK   12  A    between atoms: C_13  and  C_15
REMARK   13  A    between atoms: C_15  and  C_16
REMARK   14  A    between atoms: C_16  and  O_18
REMARK   15  A    between atoms: C_19  and  O_21
REMARK   16  A    between atoms: O_21  and  C_22
REMARK                            x       y       z     vdW  Elec       q    Type
REMARK                         _______ _______ _______ _____ _____    ______ ____
ROOT
ATOM      1  C   UNL     1       3.437   4.190  19.076  0.00  0.00    +0.000 C 
ENDROOT
BRANCH   1   2
ATOM      2  N   UNL     1       4.556   4.892  18.440  0.00  0.00    +0.000 N 
ATOM      3  C   UNL     1       4.828   4.754  17.108  0.00  0.00    +0.000 C 
ATOM      4  O   UNL     1       4.205   3.987  16.367  0.00  0.00    +0.000 OA
ATOM      5  H   UNL     1       5.097   5.571  18.976  0.00  0.00    +0.000 HD
BRANCH   3   6
ATOM      6  C   UNL     1       5.976   5.637  16.578  0.00  0.00    +0.000 C 
BRANCH   6   7
ATOM      7  N   UNL     1       5.451   6.615  15.600  0.00  0.00    +0.000 NA
ATOM      8  H   UNL     1       5.122   6.101  14.773  0.00  0.00    +0.000 HD
ATOM      9  H   UNL     1       6.229   7.170  15.236  0.00  0.00    +0.000 HD
ENDBRANCH   6   7
BRANCH   6  10
ATOM     10  C   UNL     1       7.082   4.749  16.002  0.00  0.00    +0.000 C 
BRANCH  10  11
ATOM     11  C   UNL     1       7.090   4.815  14.500  0.00  0.00    +0.000 C 
ATOM     12  O   UNL     1       7.849   5.536  13.861  0.00  0.00    +0.000 OA
BRANCH  11  13
ATOM     13  O   UNL     1       6.130   4.073  13.905  0.00  0.00    +0.000 OA
ATOM     14  H   UNL     1       6.036   3.168  14.289  0.00  0.00    +0.000 HD
ENDBRANCH  11  13
ENDBRANCH  10  11
ENDBRANCH   6  10
ENDBRANCH   3   6
ENDBRANCH   1   2
BRANCH   1  15
ATOM     15  C   UNL     1       2.843   5.058  20.180  0.00  0.00    +0.000 C 
ATOM     16  O   UNL     1       2.328   4.625  21.205  0.00  0.00    +0.000 OA
BRANCH  15  17
ATOM     17  O   UNL     1       3.081   6.374  19.920  0.00  0.00    +0.000 OA
BRANCH  17  18
ATOM     18  C   UNL     1       1.967   7.183  19.468  0.00  0.00    +0.000 C 
BRANCH  18  20
ATOM     19  C   UNL     1       0.425   8.236  21.275  0.00  0.00    +0.000 C 
ATOM     20  C   UNL     1       1.768   8.249  20.568  0.00  0.00    +0.000 C 
ENDBRANCH  18  20
BRANCH  18  21
ATOM     21  C   UNL     1       2.363   7.781  18.109  0.00  0.00    +0.000 C 
ATOM     22  C   UNL     1       1.887   9.221  17.911  0.00  0.00    +0.000 C 
ENDBRANCH  18  21
ENDBRANCH  17  18
ENDBRANCH  15  17
ENDBRANCH   1  15
BRANCH   1  23
ATOM     23  C   UNL     1       3.762   2.791  19.569  0.00  0.00    +0.000 C 
ATOM     24  O   UNL     1       4.808   2.503  20.152  0.00  0.00    +0.000 OA
BRANCH  23  25
ATOM     25  O   UNL     1       2.755   1.904  19.335  0.00  0.00    +0.000 OA
ATOM     26  C   UNL     1       1.822   2.317  18.341  0.00  0.00    +0.000 C 
ENDBRANCH  23  25
ENDBRANCH   1  23
TORSDOF 13
ENDMDL
MODEL 5
REMARK VINA RESULT:      -5.8      2.107      6.246
REMARK  Name = 
REMARK  16 active torsions:
REMARK  status: ('A' for Active; 'I' for Inactive)
REMARK    1  A    between atoms: C_1  and  C_2
REMARK    2  A    between atoms: C_2  and  C_3
REMARK    3  A    between atoms: C_3  and  C_4
REMARK    4  A    between atoms: C_3  and  O_6
REMARK    5  A    between atoms: C_4  and  C_5
REMARK    6  A    between atoms: O_6  and  C_7
REMARK    7  A    between atoms: C_7  and  C_9
REMARK    8  A    between atoms: C_9  and  N_10
REMARK    9  A    between atoms: C_9  and  C_19
REMARK   10  A    between atoms: C_11  and  C_13
REMARK   11  A    between atoms: C_13  and  N_14
REMARK   12  A    between atoms: C_13  and  C_15
REMARK   13  A    between atoms: C_15  and  C_16
REMARK   14  A    between atoms: C_16  and  O_18
REMARK   15  A    between atoms: C_19  and  O_21
REMARK   16  A    between atoms: O_21  and  C_22
REMARK                            x       y       z     vdW  Elec       q    Type
REMARK                         _______ _______ _______ _____ _____    ______ ____
ROOT
ATOM      1  C   UNL     1       6.257   5.388  17.807  0.00  0.00    +0.000 C 
ENDROOT
BRANCH   1   2
ATOM      2  N   UNL     1       5.098   4.676  18.355  0.00  0.00    +0.000 N 
ATOM      3  C   UNL     1       3.825   5.150  18.202  0.00  0.00    +0.000 C 
ATOM      4  O   UNL     1       3.566   6.230  17.662  0.00  0.00    +0.000 OA
ATOM      5  H   UNL     1       5.224   3.759  18.784  0.00  0.00    +0.000 HD
BRANCH   3   6
ATOM      6  C   UNL     1       2.713   4.232  18.749  0.00  0.00    +0.000 C 
BRANCH   6   7
ATOM      7  N   UNL     1       1.668   4.036  17.721  0.00  0.00    +0.000 NA
ATOM      8  H   UNL     1       2.116   3.680  16.867  0.00  0.00    +0.000 HD
ATOM      9  H   UNL     1       1.312   4.951  17.432  0.00  0.00    +0.000 HD
ENDBRANCH   6   7
BRANCH   6  10
ATOM     10  C   UNL     1       2.166   4.811  20.056  0.00  0.00    +0.000 C 
BRANCH  10  11
ATOM     11  C   UNL     1       1.542   3.732  20.896  0.00  0.00    +0.000 C 
ATOM     12  O   UNL     1       2.013   3.350  21.961  0.00  0.00    +0.000 OA
BRANCH  11  13
ATOM     13  O   UNL     1       0.455   3.153  20.341  0.00  0.00    +0.000 OA
ATOM     14  H   UNL     1      -0.081   3.770  19.787  0.00  0.00    +0.000 HD
ENDBRANCH  11  13
ENDBRANCH  10  11
ENDBRANCH   6  10
ENDBRANCH   3   6
ENDBRANCH   1   2
BRANCH   1  15
ATOM     15  C   UNL     1       6.967   4.510  16.784  0.00  0.00    +0.000 C 
ATOM     16  O   UNL     1       8.113   4.089  16.901  0.00  0.00    +0.000 OA
BRANCH  15  17
ATOM     17  O   UNL     1       6.104   4.159  15.789  0.00  0.00    +0.000 OA
BRANCH  17  18
ATOM     18  C   UNL     1       6.625   4.091  14.438  0.00  0.00    +0.000 C 
BRANCH  18  20
ATOM     19  C   UNL     1       5.657   3.162  12.214  0.00  0.00    +0.000 C 
ATOM     20  C   UNL     1       5.392   3.850  13.540  0.00  0.00    +0.000 C 
ENDBRANCH  18  20
BRANCH  18  21
ATOM     21  C   UNL     1       7.330   5.426  14.156  0.00  0.00    +0.000 C 
ATOM     22  C   UNL     1       8.072   5.457  12.819  0.00  0.00    +0.000 C 
ENDBRANCH  18  21
ENDBRANCH  17  18
ENDBRANCH  15  17
ENDBRANCH   1  15
BRANCH   1  23
ATOM     23  C   UNL     1       7.218   5.933  18.850  0.00  0.00    +0.000 C 
ATOM     24  O   UNL     1       7.272   5.515  20.008  0.00  0.00    +0.000 OA
BRANCH  23  25
ATOM     25  O   UNL     1       8.040   6.898  18.354  0.00  0.00    +0.000 OA
ATOM     26  C   UNL     1       7.369   7.947  17.661  0.00  0.00    +0.000 C 
ENDBRANCH  23  25
ENDBRANCH   1  23
TORSDOF 13
ENDMDL
MODEL 6
REMARK VINA RESULT:      -5.8      1.623      4.344
REMARK  Name = 
REMARK  16 active torsions:
REMARK  status: ('A' for Active; 'I' for Inactive)
REMARK    1  A    between atoms: C_1  and  C_2
REMARK    2  A    between atoms: C_2  and  C_3
REMARK    3  A    between atoms: C_3  and  C_4
REMARK    4  A    between atoms: C_3  and  O_6
REMARK    5  A    between atoms: C_4  and  C_5
REMARK    6  A    between atoms: O_6  and  C_7
REMARK    7  A    between atoms: C_7  and  C_9
REMARK    8  A    between atoms: C_9  and  N_10
REMARK    9  A    between atoms: C_9  and  C_19
REMARK   10  A    between atoms: C_11  and  C_13
REMARK   11  A    between atoms: C_13  and  N_14
REMARK   12  A    between atoms: C_13  and  C_15
REMARK   13  A    between atoms: C_15  and  C_16
REMARK   14  A    between atoms: C_16  and  O_18
REMARK   15  A    between atoms: C_19  and  O_21
REMARK   16  A    between atoms: O_21  and  C_22
REMARK                            x       y       z     vdW  Elec       q    Type
REMARK                         _______ _______ _______ _____ _____    ______ ____
ROOT
ATOM      1  C   UNL     1       3.539   3.672  17.809  0.00  0.00    +0.000 C 
ENDROOT
BRANCH   1   2
ATOM      2  N   UNL     1       4.823   4.378  17.771  0.00  0.00    +0.000 N 
ATOM      3  C   UNL     1       5.609   4.382  16.653  0.00  0.00    +0.000 C 
ATOM      4  O   UNL     1       5.333   3.745  15.631  0.00  0.00    +0.000 OA
ATOM      5  H   UNL     1       5.106   4.957  18.563  0.00  0.00    +0.000 HD
BRANCH   3   6
ATOM      6  C   UNL     1       6.877   5.253  16.745  0.00  0.00    +0.000 C 
BRANCH   6   7
ATOM      7  N   UNL     1       7.597   5.238  15.453  0.00  0.00    +0.000 NA
ATOM      8  H   UNL     1       7.926   6.191  15.254  0.00  0.00    +0.000 HD
ATOM      9  H   UNL     1       6.925   5.061  14.702  0.00  0.00    +0.000 HD
ENDBRANCH   6   7
BRANCH   6  10
ATOM     10  C   UNL     1       7.741   4.780  17.917  0.00  0.00    +0.000 C 
BRANCH  10  11
ATOM     11  C   UNL     1       7.887   5.868  18.944  0.00  0.00    +0.000 C 
ATOM     12  O   UNL     1       8.141   7.033  18.661  0.00  0.00    +0.000 OA
BRANCH  11  13
ATOM     13  O   UNL     1       7.796   5.441  20.223  0.00  0.00    +0.000 OA
ATOM     14  H   UNL     1       7.806   4.458  20.313  0.00  0.00    +0.000 HD
ENDBRANCH  11  13
ENDBRANCH  10  11
ENDBRANCH   6  10
ENDBRANCH   3   6
ENDBRANCH   1   2
BRANCH   1  15
ATOM     15  C   UNL     1       2.396   4.670  17.663  0.00  0.00    +0.000 C 
ATOM     16  O   UNL     1       1.212   4.365  17.573  0.00  0.00    +0.000 OA
BRANCH  15  17
ATOM     17  O   UNL     1       2.869   5.943  17.775  0.00  0.00    +0.000 OA
BRANCH  17  18
ATOM     18  C   UNL     1       2.034   6.914  18.454  0.00  0.00    +0.000 C 
BRANCH  18  20
ATOM     19  C   UNL     1       1.526   7.587  20.911  0.00  0.00    +0.000 C 
ATOM     20  C   UNL     1       2.277   6.674  19.961  0.00  0.00    +0.000 C 
ENDBRANCH  18  20
BRANCH  18  21
ATOM     21  C   UNL     1       2.482   8.306  17.981  0.00  0.00    +0.000 C 
ATOM     22  C   UNL     1       1.336   9.314  17.873  0.00  0.00    +0.000 C 
ENDBRANCH  18  21
ENDBRANCH  17  18
ENDBRANCH  15  17
ENDBRANCH   1  15
BRANCH   1  23
ATOM     23  C   UNL     1       3.348   2.765  19.013  0.00  0.00    +0.000 C 
ATOM     24  O   UNL     1       3.305   1.536  18.937  0.00  0.00    +0.000 OA
BRANCH  23  25
ATOM     25  O   UNL     1       3.273   3.455  20.184  0.00  0.00    +0.000 OA
ATOM     26  C   UNL     1       2.635   2.752  21.247  0.00  0.00    +0.000 C 
ENDBRANCH  23  25
ENDBRANCH   1  23
TORSDOF 13
ENDMDL
MODEL 7
REMARK VINA RESULT:      -5.8      2.422      6.453
REMARK  Name = 
REMARK  16 active torsions:
REMARK  status: ('A' for Active; 'I' for Inactive)
REMARK    1  A    between atoms: C_1  and  C_2
REMARK    2  A    between atoms: C_2  and  C_3
REMARK    3  A    between atoms: C_3  and  C_4
REMARK    4  A    between atoms: C_3  and  O_6
REMARK    5  A    between atoms: C_4  and  C_5
REMARK    6  A    between atoms: O_6  and  C_7
REMARK    7  A    between atoms: C_7  and  C_9
REMARK    8  A    between atoms: C_9  and  N_10
REMARK    9  A    between atoms: C_9  and  C_19
REMARK   10  A    between atoms: C_11  and  C_13
REMARK   11  A    between atoms: C_13  and  N_14
REMARK   12  A    between atoms: C_13  and  C_15
REMARK   13  A    between atoms: C_15  and  C_16
REMARK   14  A    between atoms: C_16  and  O_18
REMARK   15  A    between atoms: C_19  and  O_21
REMARK   16  A    between atoms: O_21  and  C_22
REMARK                            x       y       z     vdW  Elec       q    Type
REMARK                         _______ _______ _______ _____ _____    ______ ____
ROOT
ATOM      1  C   UNL     1       5.860   4.613  17.208  0.00  0.00    +0.000 C 
ENDROOT
BRANCH   1   2
ATOM      2  N   UNL     1       5.440   3.638  18.219  0.00  0.00    +0.000 N 
ATOM      3  C   UNL     1       4.634   3.989  19.266  0.00  0.00    +0.000 C 
ATOM      4  O   UNL     1       4.264   5.148  19.474  0.00  0.00    +0.000 OA
ATOM      5  H   UNL     1       5.675   2.652  18.099  0.00  0.00    +0.000 HD
BRANCH   3   6
ATOM      6  C   UNL     1       4.204   2.825  20.182  0.00  0.00    +0.000 C 
BRANCH   6   7
ATOM      7  N   UNL     1       5.099   1.665  19.978  0.00  0.00    +0.000 NA
ATOM      8  H   UNL     1       4.519   0.839  19.782  0.00  0.00    +0.000 HD
ATOM      9  H   UNL     1       5.545   1.430  20.869  0.00  0.00    +0.000 HD
ENDBRANCH   6   7
BRANCH   6  10
ATOM     10  C   UNL     1       2.730   2.496  19.934  0.00  0.00    +0.000 C 
BRANCH  10  11
ATOM     11  C   UNL     1       1.851   3.223  20.913  0.00  0.00    +0.000 C 
ATOM     12  O   UNL     1       0.950   3.982  20.575  0.00  0.00    +0.000 OA
BRANCH  11  13
ATOM     13  O   UNL     1       2.187   3.036  22.209  0.00  0.00    +0.000 OA
ATOM     14  H   UNL     1       1.945   2.143  22.554  0.00  0.00    +0.000 HD
ENDBRANCH  11  13
ENDBRANCH  10  11
ENDBRANCH   6  10
ENDBRANCH   3   6
ENDBRANCH   1   2
BRANCH   1  15
ATOM     15  C   UNL     1       5.383   4.168  15.830  0.00  0.00    +0.000 C 
ATOM     16  O   UNL     1       4.210   4.137  15.475  0.00  0.00    +0.000 OA
BRANCH  15  17
ATOM     17  O   UNL     1       6.452   3.933  15.019  0.00  0.00    +0.000 OA
BRANCH  17  18
ATOM     18  C   UNL     1       6.401   4.460  13.669  0.00  0.00    +0.000 C 
BRANCH  18  20
ATOM     19  C   UNL     1       7.986   5.781  12.091  0.00  0.00    +0.000 C 
ATOM     20  C   UNL     1       7.768   5.148  13.452  0.00  0.00    +0.000 C 
ENDBRANCH  18  20
BRANCH  18  21
ATOM     21  C   UNL     1       6.164   3.272  12.726  0.00  0.00    +0.000 C 
ATOM     22  C   UNL     1       4.864   3.374  11.926  0.00  0.00    +0.000 C 
ENDBRANCH  18  21
ENDBRANCH  17  18
ENDBRANCH  15  17
ENDBRANCH   1  15
BRANCH   1  23
ATOM     23  C   UNL     1       7.344   4.938  17.216  0.00  0.00    +0.000 C 
ATOM     24  O   UNL     1       8.207   4.155  17.616  0.00  0.00    +0.000 OA
BRANCH  23  25
ATOM     25  O   UNL     1       7.616   6.165  16.694  0.00  0.00    +0.000 OA
ATOM     26  C   UNL     1       7.508   7.241  17.622  0.00  0.00    +0.000 C 
ENDBRANCH  23  25
ENDBRANCH   1  23
TORSDOF 13
ENDMDL
MODEL 8
REMARK VINA RESULT:      -5.8      2.265      6.025
REMARK  Name = 
REMARK  16 active torsions:
REMARK  status: ('A' for Active; 'I' for Inactive)
REMARK    1  A    between atoms: C_1  and  C_2
REMARK    2  A    between atoms: C_2  and  C_3
REMARK    3  A    between atoms: C_3  and  C_4
REMARK    4  A    between atoms: C_3  and  O_6
REMARK    5  A    between atoms: C_4  and  C_5
REMARK    6  A    between atoms: O_6  and  C_7
REMARK    7  A    between atoms: C_7  and  C_9
REMARK    8  A    between atoms: C_9  and  N_10
REMARK    9  A    between atoms: C_9  and  C_19
REMARK   10  A    between atoms: C_11  and  C_13
REMARK   11  A    between atoms: C_13  and  N_14
REMARK   12  A    between atoms: C_13  and  C_15
REMARK   13  A    between atoms: C_15  and  C_16
REMARK   14  A    between atoms: C_16  and  O_18
REMARK   15  A    between atoms: C_19  and  O_21
REMARK   16  A    between atoms: O_21  and  C_22
REMARK                            x       y       z     vdW  Elec       q    Type
REMARK                         _______ _______ _______ _____ _____    ______ ____
ROOT
ATOM      1  C   UNL     1       6.446   6.314  16.911  0.00  0.00    +0.000 C 
ENDROOT
BRANCH   1   2
ATOM      2  N   UNL     1       5.395   5.673  17.707  0.00  0.00    +0.000 N 
ATOM      3  C   UNL     1       4.171   6.254  17.883  0.00  0.00    +0.000 C 
ATOM      4  O   UNL     1       3.887   7.375  17.451  0.00  0.00    +0.000 OA
ATOM      5  H   UNL     1       5.539   4.729  18.069  0.00  0.00    +0.000 HD
BRANCH   3   6
ATOM      6  C   UNL     1       3.147   5.404  18.662  0.00  0.00    +0.000 C 
BRANCH   6   7
ATOM      7  N   UNL     1       3.187   5.756  20.099  0.00  0.00    +0.000 NA
ATOM      8  H   UNL     1       2.462   6.461  20.280  0.00  0.00    +0.000 HD
ATOM      9  H   UNL     1       4.056   6.259  20.293  0.00  0.00    +0.000 HD
ENDBRANCH   6   7
BRANCH   6  10
ATOM     10  C   UNL     1       3.409   3.919  18.402  0.00  0.00    +0.000 C 
BRANCH  10  11
ATOM     11  C   UNL     1       2.240   3.287  17.699  0.00  0.00    +0.000 C 
ATOM     12  O   UNL     1       2.202   2.103  17.386  0.00  0.00    +0.000 OA
BRANCH  11  13
ATOM     13  O   UNL     1       1.258   4.153  17.364  0.00  0.00    +0.000 OA
ATOM     14  H   UNL     1       0.711   3.853  16.599  0.00  0.00    +0.000 HD
ENDBRANCH  11  13
ENDBRANCH  10  11
ENDBRANCH   6  10
ENDBRANCH   3   6
ENDBRANCH   1   2
BRANCH   1  15
ATOM     15  C   UNL     1       7.113   5.282  16.009  0.00  0.00    +0.000 C 
ATOM     16  O   UNL     1       7.773   4.329  16.409  0.00  0.00    +0.000 OA
BRANCH  15  17
ATOM     17  O   UNL     1       6.764   5.500  14.710  0.00  0.00    +0.000 OA
BRANCH  17  18
ATOM     18  C   UNL     1       6.960   4.415  13.769  0.00  0.00    +0.000 C 
BRANCH  18  20
ATOM     19  C   UNL     1       5.269   3.342  12.114  0.00  0.00    +0.000 C 
ATOM     20  C   UNL     1       5.550   3.834  13.521  0.00  0.00    +0.000 C 
ENDBRANCH  18  20
BRANCH  18  21
ATOM     21  C   UNL     1       7.598   5.017  12.508  0.00  0.00    +0.000 C 
ATOM     22  C   UNL     1       8.741   5.990  12.805  0.00  0.00    +0.000 C 
ENDBRANCH  18  21
ENDBRANCH  17  18
ENDBRANCH  15  17
ENDBRANCH   1  15
BRANCH   1  23
ATOM     23  C   UNL     1       7.463   7.102  17.718  0.00  0.00    +0.000 C 
ATOM     24  O   UNL     1       8.007   6.667  18.734  0.00  0.00    +0.000 OA
BRANCH  23  25
ATOM     25  O   UNL     1       7.738   8.319  17.172  0.00  0.00    +0.000 OA
ATOM     26  C   UNL     1       8.360   9.241  18.063  0.00  0.00    +0.000 C 
ENDBRANCH  23  25
ENDBRANCH   1  23
TORSDOF 13
ENDMDL
MODEL 9
REMARK VINA RESULT:      -5.8      2.000      5.524
REMARK  Name = 
REMARK  16 active torsions:
REMARK  status: ('A' for Active; 'I' for Inactive)
REMARK    1  A    between atoms: C_1  and  C_2
REMARK    2  A    between atoms: C_2  and  C_3
REMARK    3  A    between atoms: C_3  and  C_4
REMARK    4  A    between atoms: C_3  and  O_6
REMARK    5  A    between atoms: C_4  and  C_5
REMARK    6  A    between atoms: O_6  and  C_7
REMARK    7  A    between atoms: C_7  and  C_9
REMARK    8  A    between atoms: C_9  and  N_10
REMARK    9  A    between atoms: C_9  and  C_19
REMARK   10  A    between atoms: C_11  and  C_13
REMARK   11  A    between atoms: C_13  and  N_14
REMARK   12  A    between atoms: C_13  and  C_15
REMARK   13  A    between atoms: C_15  and  C_16
REMARK   14  A    between atoms: C_16  and  O_18
REMARK   15  A    between atoms: C_19  and  O_21
REMARK   16  A    between atoms: O_21  and  C_22
REMARK                            x       y       z     vdW  Elec       q    Type
REMARK                         _______ _______ _______ _____ _____    ______ ____
ROOT
ATOM      1  C   UNL     1       3.530   6.245  17.349  0.00  0.00    +0.000 C 
ENDROOT
BRANCH   1   2
ATOM      2  N   UNL     1       3.745   5.023  18.131  0.00  0.00    +0.000 N 
ATOM      3  C   UNL     1       2.883   3.964  18.062  0.00  0.00    +0.000 C 
ATOM      4  O   UNL     1       1.841   3.983  17.401  0.00  0.00    +0.000 OA
ATOM      5  H   UNL     1       4.602   4.915  18.674  0.00  0.00    +0.000 HD
BRANCH   3   6
ATOM      6  C   UNL     1       3.307   2.720  18.869  0.00  0.00    +0.000 C 
BRANCH   6   7
ATOM      7  N   UNL     1       3.920   1.719  17.969  0.00  0.00    +0.000 NA
ATOM      8  H   UNL     1       3.208   1.409  17.296  0.00  0.00    +0.000 HD
ATOM      9  H   UNL     1       4.119   0.870  18.504  0.00  0.00    +0.000 HD
ENDBRANCH   6   7
BRANCH   6  10
ATOM     10  C   UNL     1       2.104   2.175  19.641  0.00  0.00    +0.000 C 
BRANCH  10  11
ATOM     11  C   UNL     1       1.638   3.167  20.670  0.00  0.00    +0.000 C 
ATOM     12  O   UNL     1       2.220   3.361  21.731  0.00  0.00    +0.000 OA
BRANCH  11  13
ATOM     13  O   UNL     1       0.469   3.774  20.368  0.00  0.00    +0.000 OA
ATOM     14  H   UNL     1      -0.322   3.201  20.509  0.00  0.00    +0.000 HD
ENDBRANCH  11  13
ENDBRANCH  10  11
ENDBRANCH   6  10
ENDBRANCH   3   6
ENDBRANCH   1   2
BRANCH   1  15
ATOM     15  C   UNL     1       4.844   6.695  16.721  0.00  0.00    +0.000 C 
ATOM     16  O   UNL     1       5.061   6.740  15.515  0.00  0.00    +0.000 OA
BRANCH  15  17
ATOM     17  O   UNL     1       5.689   7.157  17.686  0.00  0.00    +0.000 OA
BRANCH  17  18
ATOM     18  C   UNL     1       7.112   7.104  17.415  0.00  0.00    +0.000 C 
BRANCH  18  20
ATOM     19  C   UNL     1       8.672   8.780  18.643  0.00  0.00    +0.000 C 
ATOM     20  C   UNL     1       7.610   8.557  17.582  0.00  0.00    +0.000 C 
ENDBRANCH  18  20
BRANCH  18  21
ATOM     21  C   UNL     1       7.730   6.130  18.429  0.00  0.00    +0.000 C 
ATOM     22  C   UNL     1       7.705   4.670  17.971  0.00  0.00    +0.000 C 
ENDBRANCH  18  21
ENDBRANCH  17  18
ENDBRANCH  15  17
ENDBRANCH   1  15
BRANCH   1  23
ATOM     23  C   UNL     1       2.848   7.372  18.105  0.00  0.00    +0.000 C 
ATOM     24  O   UNL     1       2.551   7.305  19.299  0.00  0.00    +0.000 OA
BRANCH  23  25
ATOM     25  O   UNL     1       2.644   8.474  17.333  0.00  0.00    +0.000 OA
ATOM     26  C   UNL     1       1.783   9.451  17.912  0.00  0.00    +0.000 C 
ENDBRANCH  23  25
ENDBRANCH   1  23
TORSDOF 13
ENDMDL
