MODEL 1
REMARK VINA RESULT:      -6.0      0.000      0.000
REMARK  Name = 
REMARK  6 active torsions:
REMARK  status: ('A' for Active; 'I' for Inactive)
REMARK    1  A    between atoms: C_1  and  N_2
REMARK    2  A    between atoms: C_3  and  C_4
REMARK    3  A    between atoms: C_3  and  C_5
REMARK    4  A    between atoms: C_7  and  O_8
REMARK    5  A    between atoms: C_10  and  C_11
REMARK    6  A    between atoms: C_10  and  C_12
REMARK                            x       y       z     vdW  Elec       q    Type
REMARK                         _______ _______ _______ _____ _____    ______ ____
ROOT
ATOM      1  C   UNL     1       5.312   4.558  19.393  0.00  0.00    +0.000 C 
ATOM      2  N   UNL     1       5.637   5.592  18.392  0.00  0.00    +0.000 NA
ATOM      3  C   UNL     1       7.123   5.736  18.192  0.00  0.00    +0.000 C 
ATOM      4  C   UNL     1       7.500   7.134  17.642  0.00  0.00    +0.000 C 
ATOM      5  C   UNL     1       7.908   5.663  19.539  0.00  0.00    +0.000 C 
ATOM      6  C   UNL     1       7.683   4.614  17.286  0.00  0.00    +0.000 C 
ATOM      7  C   UNL     1       6.919   4.403  15.987  0.00  0.00    +0.000 C 
ATOM      8  C   UNL     1       5.404   4.372  16.186  0.00  0.00    +0.000 C 
ATOM      9  C   UNL     1       4.821   5.446  17.140  0.00  0.00    +0.000 C 
ATOM     10  C   UNL     1       3.346   5.016  17.436  0.00  0.00    +0.000 C 
ATOM     11  C   UNL     1       4.633   6.810  16.433  0.00  0.00    +0.000 C 
ENDROOT
BRANCH   7  12
ATOM     12  O   UNL     1       7.340   5.335  14.996  0.00  0.00    +0.000 OA
ATOM     13  H   UNL     1       8.115   4.984  14.532  0.00  0.00    +0.000 HD
ENDBRANCH   7  12
TORSDOF 1
ENDMDL
MODEL 2
REMARK VINA RESULT:      -5.8      3.408      5.063
REMARK  Name = 
REMARK  6 active torsions:
REMARK  status: ('A' for Active; 'I' for Inactive)
REMARK    1  A    between atoms: C_1  and  N_2
REMARK    2  A    between atoms: C_3  and  C_4
REMARK    3  A    between atoms: C_3  and  C_5
REMARK    4  A    between atoms: C_7  and  O_8
REMARK    5  A    between atoms: C_10  and  C_11
REMARK    6  A    between atoms: C_10  and  C_12
REMARK                            x       y       z     vdW  Elec       q    Type
REMARK                         _______ _______ _______ _____ _____    ______ ____
ROOT
ATOM      1  C   UNL     1       1.726   5.569  20.630  0.00  0.00    +0.000 C 
ATOM      2  N   UNL     1       2.736   4.690  20.010  0.00  0.00    +0.000 NA
ATOM      3  C   UNL     1       2.570   3.254  20.430  0.00  0.00    +0.000 C 
ATOM      4  C   UNL     1       3.890   2.456  20.298  0.00  0.00    +0.000 C 
ATOM      5  C   UNL     1       2.228   3.122  21.948  0.00  0.00    +0.000 C 
ATOM      6  C   UNL     1       1.424   2.565  19.652  0.00  0.00    +0.000 C 
ATOM      7  C   UNL     1       1.481   2.747  18.142  0.00  0.00    +0.000 C 
ATOM      8  C   UNL     1       1.764   4.190  17.727  0.00  0.00    +0.000 C 
ATOM      9  C   UNL     1       2.863   4.927  18.532  0.00  0.00    +0.000 C 
ATOM     10  C   UNL     1       2.742   6.441  18.159  0.00  0.00    +0.000 C 
ATOM     11  C   UNL     1       4.285   4.575  18.031  0.00  0.00    +0.000 C 
ENDROOT
BRANCH   7  12
ATOM     12  O   UNL     1       2.371   1.805  17.554  0.00  0.00    +0.000 OA
ATOM     13  H   UNL     1       2.268   0.946  17.992  0.00  0.00    +0.000 HD
ENDBRANCH   7  12
TORSDOF 1
ENDMDL
MODEL 3
REMARK VINA RESULT:      -5.7      3.814      5.602
REMARK  Name = 
REMARK  6 active torsions:
REMARK  status: ('A' for Active; 'I' for Inactive)
REMARK    1  A    between atoms: C_1  and  N_2
REMARK    2  A    between atoms: C_3  and  C_4
REMARK    3  A    between atoms: C_3  and  C_5
REMARK    4  A    between atoms: C_7  and  O_8
REMARK    5  A    between atoms: C_10  and  C_11
REMARK    6  A    between atoms: C_10  and  C_12
REMARK                            x       y       z     vdW  Elec       q    Type
REMARK                         _______ _______ _______ _____ _____    ______ ____
ROOT
ATOM      1  C   UNL     1       4.641   4.311  18.733  0.00  0.00    +0.000 C 
ATOM      2  N   UNL     1       3.529   4.204  19.697  0.00  0.00    +0.000 NA
ATOM      3  C   UNL     1       2.320   4.985  19.254  0.00  0.00    +0.000 C 
ATOM      4  C   UNL     1       1.413   5.373  20.447  0.00  0.00    +0.000 C 
ATOM      5  C   UNL     1       2.705   6.367  18.638  0.00  0.00    +0.000 C 
ATOM      6  C   UNL     1       1.518   4.221  18.173  0.00  0.00    +0.000 C 
ATOM      7  C   UNL     1       1.207   2.772  18.517  0.00  0.00    +0.000 C 
ATOM      8  C   UNL     1       2.414   2.019  19.074  0.00  0.00    +0.000 C 
ATOM      9  C   UNL     1       3.273   2.784  20.112  0.00  0.00    +0.000 C 
ATOM     10  C   UNL     1       4.596   1.964  20.279  0.00  0.00    +0.000 C 
ATOM     11  C   UNL     1       2.662   2.719  21.533  0.00  0.00    +0.000 C 
ENDROOT
BRANCH   7  12
ATOM     12  O   UNL     1       0.055   2.688  19.350  0.00  0.00    +0.000 OA
ATOM     13  H   UNL     1      -0.229   3.581  19.600  0.00  0.00    +0.000 HD
ENDBRANCH   7  12
TORSDOF 1
ENDMDL
MODEL 4
REMARK VINA RESULT:      -5.7      3.347      4.649
REMARK  Name = 
REMARK  6 active torsions:
REMARK  status: ('A' for Active; 'I' for Inactive)
REMARK    1  A    between atoms: C_1  and  N_2
REMARK    2  A    between atoms: C_3  and  C_4
REMARK    3  A    between atoms: C_3  and  C_5
REMARK    4  A    between atoms: C_7  and  O_8
REMARK    5  A    between atoms: C_10  and  C_11
REMARK    6  A    between atoms: C_10  and  C_12
REMARK                            x       y       z     vdW  Elec       q    Type
REMARK                         _______ _______ _______ _____ _____    ______ ____
ROOT
ATOM      1  C   UNL     1       4.348   2.444  20.302  0.00  0.00    +0.000 C 
ATOM      2  N   UNL     1       3.557   3.651  19.996  0.00  0.00    +0.000 NA
ATOM      3  C   UNL     1       3.923   4.242  18.660  0.00  0.00    +0.000 C 
ATOM      4  C   UNL     1       3.578   5.749  18.580  0.00  0.00    +0.000 C 
ATOM      5  C   UNL     1       5.464   4.219  18.409  0.00  0.00    +0.000 C 
ATOM      6  C   UNL     1       3.269   3.460  17.496  0.00  0.00    +0.000 C 
ATOM      7  C   UNL     1       1.775   3.213  17.656  0.00  0.00    +0.000 C 
ATOM      8  C   UNL     1       1.399   2.721  19.053  0.00  0.00    +0.000 C 
ATOM      9  C   UNL     1       2.089   3.444  20.238  0.00  0.00    +0.000 C 
ATOM     10  C   UNL     1       1.812   2.573  21.507  0.00  0.00    +0.000 C 
ATOM     11  C   UNL     1       1.388   4.778  20.591  0.00  0.00    +0.000 C 
ENDROOT
BRANCH   7  12
ATOM     12  O   UNL     1       1.028   4.351  17.237  0.00  0.00    +0.000 OA
ATOM     13  H   UNL     1       0.230   4.431  17.782  0.00  0.00    +0.000 HD
ENDBRANCH   7  12
TORSDOF 1
ENDMDL
MODEL 5
REMARK VINA RESULT:      -5.7      3.036      4.463
REMARK  Name = 
REMARK  6 active torsions:
REMARK  status: ('A' for Active; 'I' for Inactive)
REMARK    1  A    between atoms: C_1  and  N_2
REMARK    2  A    between atoms: C_3  and  C_4
REMARK    3  A    between atoms: C_3  and  C_5
REMARK    4  A    between atoms: C_7  and  O_8
REMARK    5  A    between atoms: C_10  and  C_11
REMARK    6  A    between atoms: C_10  and  C_12
REMARK                            x       y       z     vdW  Elec       q    Type
REMARK                         _______ _______ _______ _____ _____    ______ ____
ROOT
ATOM      1  C   UNL     1       2.600   5.913  19.713  0.00  0.00    +0.000 C 
ATOM      2  N   UNL     1       2.610   4.727  18.835  0.00  0.00    +0.000 NA
ATOM      3  C   UNL     1       3.954   4.514  18.191  0.00  0.00    +0.000 C 
ATOM      4  C   UNL     1       3.844   3.698  16.879  0.00  0.00    +0.000 C 
ATOM      5  C   UNL     1       4.601   5.854  17.720  0.00  0.00    +0.000 C 
ATOM      6  C   UNL     1       4.954   3.855  19.171  0.00  0.00    +0.000 C 
ATOM      7  C   UNL     1       4.425   2.619  19.884  0.00  0.00    +0.000 C 
ATOM      8  C   UNL     1       3.013   2.809  20.437  0.00  0.00    +0.000 C 
ATOM      9  C   UNL     1       2.006   3.524  19.500  0.00  0.00    +0.000 C 
ATOM     10  C   UNL     1       0.767   3.890  20.382  0.00  0.00    +0.000 C 
ATOM     11  C   UNL     1       1.397   2.556  18.456  0.00  0.00    +0.000 C 
ENDROOT
BRANCH   7  12
ATOM     12  O   UNL     1       4.560   1.465  19.061  0.00  0.00    +0.000 OA
ATOM     13  H   UNL     1       4.012   1.569  18.268  0.00  0.00    +0.000 HD
ENDBRANCH   7  12
TORSDOF 1
ENDMDL
MODEL 6
REMARK VINA RESULT:      -5.6      3.814      5.349
REMARK  Name = 
REMARK  6 active torsions:
REMARK  status: ('A' for Active; 'I' for Inactive)
REMARK    1  A    between atoms: C_1  and  N_2
REMARK    2  A    between atoms: C_3  and  C_4
REMARK    3  A    between atoms: C_3  and  C_5
REMARK    4  A    between atoms: C_7  and  O_8
REMARK    5  A    between atoms: C_10  and  C_11
REMARK    6  A    between atoms: C_10  and  C_12
REMARK                            x       y       z     vdW  Elec       q    Type
REMARK                         _______ _______ _______ _____ _____    ______ ____
ROOT
ATOM      1  C   UNL     1       4.912   4.661  19.346  0.00  0.00    +0.000 C 
ATOM      2  N   UNL     1       3.696   3.993  18.844  0.00  0.00    +0.000 NA
ATOM      3  C   UNL     1       3.404   2.717  19.588  0.00  0.00    +0.000 C 
ATOM      4  C   UNL     1       2.547   1.740  18.746  0.00  0.00    +0.000 C 
ATOM      5  C   UNL     1       4.699   1.894  19.874  0.00  0.00    +0.000 C 
ATOM      6  C   UNL     1       2.741   2.999  20.957  0.00  0.00    +0.000 C 
ATOM      7  C   UNL     1       1.555   3.950  20.905  0.00  0.00    +0.000 C 
ATOM      8  C   UNL     1       1.822   5.190  20.053  0.00  0.00    +0.000 C 
ATOM      9  C   UNL     1       2.543   4.945  18.704  0.00  0.00    +0.000 C 
ATOM     10  C   UNL     1       2.991   6.351  18.183  0.00  0.00    +0.000 C 
ATOM     11  C   UNL     1       1.565   4.479  17.598  0.00  0.00    +0.000 C 
ENDROOT
BRANCH   7  12
ATOM     12  O   UNL     1       0.367   3.257  20.537  0.00  0.00    +0.000 OA
ATOM     13  H   UNL     1      -0.180   3.112  21.324  0.00  0.00    +0.000 HD
ENDBRANCH   7  12
TORSDOF 1
ENDMDL
MODEL 7
REMARK VINA RESULT:      -5.5      3.496      5.008
REMARK  Name = 
REMARK  6 active torsions:
REMARK  status: ('A' for Active; 'I' for Inactive)
REMARK    1  A    between atoms: C_1  and  N_2
REMARK    2  A    between atoms: C_3  and  C_4
REMARK    3  A    between atoms: C_3  and  C_5
REMARK    4  A    between atoms: C_7  and  O_8
REMARK    5  A    between atoms: C_10  and  C_11
REMARK    6  A    between atoms: C_10  and  C_12
REMARK                            x       y       z     vdW  Elec       q    Type
REMARK                         _______ _______ _______ _____ _____    ______ ____
ROOT
ATOM      1  C   UNL     1       1.920   5.373  20.849  0.00  0.00    +0.000 C 
ATOM      2  N   UNL     1       1.806   4.400  19.746  0.00  0.00    +0.000 NA
ATOM      3  C   UNL     1       2.601   4.821  18.538  0.00  0.00    +0.000 C 
ATOM      4  C   UNL     1       2.055   4.185  17.236  0.00  0.00    +0.000 C 
ATOM      5  C   UNL     1       2.482   6.352  18.259  0.00  0.00    +0.000 C 
ATOM      6  C   UNL     1       4.107   4.515  18.716  0.00  0.00    +0.000 C 
ATOM      7  C   UNL     1       4.418   3.098  19.178  0.00  0.00    +0.000 C 
ATOM      8  C   UNL     1       3.527   2.638  20.331  0.00  0.00    +0.000 C 
ATOM      9  C   UNL     1       2.023   2.989  20.210  0.00  0.00    +0.000 C 
ATOM     10  C   UNL     1       1.394   2.721  21.618  0.00  0.00    +0.000 C 
ATOM     11  C   UNL     1       1.263   1.983  19.311  0.00  0.00    +0.000 C 
ENDROOT
BRANCH   7  12
ATOM     12  O   UNL     1       4.423   2.198  18.075  0.00  0.00    +0.000 OA
ATOM     13  H   UNL     1       5.017   2.535  17.386  0.00  0.00    +0.000 HD
ENDBRANCH   7  12
TORSDOF 1
ENDMDL
MODEL 8
REMARK VINA RESULT:      -5.5      3.133      4.894
REMARK  Name = 
REMARK  6 active torsions:
REMARK  status: ('A' for Active; 'I' for Inactive)
REMARK    1  A    between atoms: C_1  and  N_2
REMARK    2  A    between atoms: C_3  and  C_4
REMARK    3  A    between atoms: C_3  and  C_5
REMARK    4  A    between atoms: C_7  and  O_8
REMARK    5  A    between atoms: C_10  and  C_11
REMARK    6  A    between atoms: C_10  and  C_12
REMARK                            x       y       z     vdW  Elec       q    Type
REMARK                         _______ _______ _______ _____ _____    ______ ____
ROOT
ATOM      1  C   UNL     1       1.872   5.246  18.140  0.00  0.00    +0.000 C 
ATOM      2  N   UNL     1       2.860   4.499  18.941  0.00  0.00    +0.000 NA
ATOM      3  C   UNL     1       2.247   3.307  19.627  0.00  0.00    +0.000 C 
ATOM      4  C   UNL     1       3.054   2.881  20.879  0.00  0.00    +0.000 C 
ATOM      5  C   UNL     1       0.834   3.626  20.210  0.00  0.00    +0.000 C 
ATOM      6  C   UNL     1       2.071   2.120  18.651  0.00  0.00    +0.000 C 
ATOM      7  C   UNL     1       3.311   1.775  17.838  0.00  0.00    +0.000 C 
ATOM      8  C   UNL     1       3.992   3.005  17.239  0.00  0.00    +0.000 C 
ATOM      9  C   UNL     1       4.125   4.232  18.176  0.00  0.00    +0.000 C 
ATOM     10  C   UNL     1       4.536   5.437  17.266  0.00  0.00    +0.000 C 
ATOM     11  C   UNL     1       5.339   4.107  19.129  0.00  0.00    +0.000 C 
ENDROOT
BRANCH   7  12
ATOM     12  O   UNL     1       4.194   0.950  18.592  0.00  0.00    +0.000 OA
ATOM     13  H   UNL     1       3.678   0.308  19.103  0.00  0.00    +0.000 HD
ENDBRANCH   7  12
TORSDOF 1
ENDMDL
MODEL 9
REMARK VINA RESULT:      -5.5      3.102      4.710
REMARK  Name = 
REMARK  6 active torsions:
REMARK  status: ('A' for Active; 'I' for Inactive)
REMARK    1  A    between atoms: C_1  and  N_2
REMARK    2  A    between atoms: C_3  and  C_4
REMARK    3  A    between atoms: C_3  and  C_5
REMARK    4  A    between atoms: C_7  and  O_8
REMARK    5  A    between atoms: C_10  and  C_11
REMARK    6  A    between atoms: C_10  and  C_12
REMARK                            x       y       z     vdW  Elec       q    Type
REMARK                         _______ _______ _______ _____ _____    ______ ____
ROOT
ATOM      1  C   UNL     1       1.866   5.177  20.022  0.00  0.00    +0.000 C 
ATOM      2  N   UNL     1       3.104   4.386  19.892  0.00  0.00    +0.000 NA
ATOM      3  C   UNL     1       2.906   2.954  20.313  0.00  0.00    +0.000 C 
ATOM      4  C   UNL     1       4.235   2.288  20.744  0.00  0.00    +0.000 C 
ATOM      5  C   UNL     1       2.019   2.834  21.592  0.00  0.00    +0.000 C 
ATOM      6  C   UNL     1       2.206   2.130  19.206  0.00  0.00    +0.000 C 
ATOM      7  C   UNL     1       2.824   2.270  17.822  0.00  0.00    +0.000 C 
ATOM      8  C   UNL     1       3.127   3.721  17.449  0.00  0.00    +0.000 C 
ATOM      9  C   UNL     1       3.769   4.589  18.561  0.00  0.00    +0.000 C 
ATOM     10  C   UNL     1       3.679   6.071  18.069  0.00  0.00    +0.000 C 
ATOM     11  C   UNL     1       5.298   4.365  18.661  0.00  0.00    +0.000 C 
ENDROOT
BRANCH   7  12
ATOM     12  O   UNL     1       3.945   1.404  17.679  0.00  0.00    +0.000 OA
ATOM     13  H   UNL     1       4.725   1.817  18.081  0.00  0.00    +0.000 HD
ENDBRANCH   7  12
TORSDOF 1
ENDMDL
