MODEL 1
REMARK VINA RESULT:      -7.3      0.000      0.000
REMARK  Name = 
REMARK  8 active torsions:
REMARK  status: ('A' for Active; 'I' for Inactive)
REMARK    1  A    between atoms: C_1  and  C_2
REMARK    2  A    between atoms: C_5  and  N_6
REMARK    3  A    between atoms: C_7  and  C_9
REMARK    4  A    between atoms: C_9  and  N_10
REMARK    5  A    between atoms: N_10  and  C_11
REMARK    6  A    between atoms: C_12  and  C_14
REMARK    7  A    between atoms: C_14  and  N_15
REMARK    8  A    between atoms: C_17  and  C_18
REMARK                            x       y       z     vdW  Elec       q    Type
REMARK                         _______ _______ _______ _____ _____    ______ ____
ROOT
ATOM      1  N   UNL     1       0.632  10.868  20.949  0.00  0.00    +0.000 N 
ATOM      2  C   UNL     1       1.105  10.930  19.571  0.00  0.00    +0.000 C 
ATOM      3  C   UNL     1      -0.455  11.603  21.421  0.00  0.00    +0.000 C 
ATOM      4  O   UNL     1      -0.955  11.358  22.525  0.00  0.00    +0.000 OA
ENDROOT
BRANCH   1   5
ATOM      5  C   UNL     1       1.194   9.825  21.804  0.00  0.00    +0.000 C 
BRANCH   5   7
ATOM      6  N   UNL     1       1.979   7.790  20.714  0.00  0.00    +0.000 N 
ATOM      7  C   UNL     1       0.879   8.419  21.280  0.00  0.00    +0.000 C 
ATOM      8  O   UNL     1      -0.233   7.924  21.448  0.00  0.00    +0.000 OA
ATOM      9  H   UNL     1       2.884   8.211  20.914  0.00  0.00    +0.000 HD
BRANCH   6  14
ATOM     10  C   UNL     1       2.130   2.809  17.870  0.00  0.00    +0.000 C 
ATOM     11  C   UNL     1       2.061   4.101  18.624  0.00  0.00    +0.000 A 
ATOM     12  C   UNL     1       1.728   4.126  19.981  0.00  0.00    +0.000 A 
ATOM     13  C   UNL     1       1.689   5.334  20.686  0.00  0.00    +0.000 A 
ATOM     14  C   UNL     1       1.986   6.542  20.051  0.00  0.00    +0.000 A 
ATOM     15  C   UNL     1       2.285   6.524  18.684  0.00  0.00    +0.000 A 
ATOM     16  C   UNL     1       2.330   5.314  17.978  0.00  0.00    +0.000 A 
ENDBRANCH   6  14
ENDBRANCH   5   7
ENDBRANCH   1   5
BRANCH   3  17
ATOM     17  C   UNL     1      -1.065  12.636  20.458  0.00  0.00    +0.000 C 
BRANCH  17  18
ATOM     18  N   UNL     1      -2.317  12.234  19.816  0.00  0.00    +0.000 N 
ATOM     19  C   UNL     1      -2.285  11.590  18.589  0.00  0.00    +0.000 A 
ATOM     20  C   UNL     1      -3.403  11.371  17.874  0.00  0.00    +0.000 A 
ATOM     21  C   UNL     1      -4.677  11.797  18.428  0.00  0.00    +0.000 A 
ATOM     22  C   UNL     1      -4.745  12.391  19.627  0.00  0.00    +0.000 A 
ATOM     23  C   UNL     1      -3.507  12.650  20.410  0.00  0.00    +0.000 A 
ATOM     24  O   UNL     1      -3.583  13.235  21.486  0.00  0.00    +0.000 OA
BRANCH  20  25
ATOM     25  C   UNL     1      -3.350  10.770  16.499  0.00  0.00    +0.000 C 
ATOM     26  F   UNL     1      -2.313  11.234  15.755  0.00  0.00    +0.000 F 
ATOM     27  F   UNL     1      -3.210   9.420  16.556  0.00  0.00    +0.000 F 
ATOM     28  F   UNL     1      -4.482  11.017  15.794  0.00  0.00    +0.000 F 
ENDBRANCH  20  25
ENDBRANCH  17  18
ENDBRANCH   3  17
TORSDOF 6
ENDMDL
MODEL 2
REMARK VINA RESULT:      -7.3      7.462     10.176
REMARK  Name = 
REMARK  8 active torsions:
REMARK  status: ('A' for Active; 'I' for Inactive)
REMARK    1  A    between atoms: C_1  and  C_2
REMARK    2  A    between atoms: C_5  and  N_6
REMARK    3  A    between atoms: C_7  and  C_9
REMARK    4  A    between atoms: C_9  and  N_10
REMARK    5  A    between atoms: N_10  and  C_11
REMARK    6  A    between atoms: C_12  and  C_14
REMARK    7  A    between atoms: C_14  and  N_15
REMARK    8  A    between atoms: C_17  and  C_18
REMARK                            x       y       z     vdW  Elec       q    Type
REMARK                         _______ _______ _______ _____ _____    ______ ____
ROOT
ATOM      1  N   UNL     1       6.606   6.313  17.464  0.00  0.00    +0.000 N 
ATOM      2  C   UNL     1       6.887   5.946  16.081  0.00  0.00    +0.000 C 
ATOM      3  C   UNL     1       5.384   6.067  18.090  0.00  0.00    +0.000 C 
ATOM      4  O   UNL     1       5.263   6.191  19.314  0.00  0.00    +0.000 OA
ENDROOT
BRANCH   1   5
ATOM      5  C   UNL     1       7.733   6.756  18.282  0.00  0.00    +0.000 C 
BRANCH   5   7
ATOM      6  N   UNL     1       8.944   8.739  19.024  0.00  0.00    +0.000 N 
ATOM      7  C   UNL     1       8.003   8.257  18.124  0.00  0.00    +0.000 C 
ATOM      8  O   UNL     1       7.469   8.896  17.220  0.00  0.00    +0.000 OA
ATOM      9  H   UNL     1       9.500   8.035  19.504  0.00  0.00    +0.000 HD
BRANCH   6  14
ATOM     10  C   UNL     1      10.535  14.173  19.947  0.00  0.00    +0.000 C 
ATOM     11  C   UNL     1      10.099  12.765  19.683  0.00  0.00    +0.000 A 
ATOM     12  C   UNL     1      10.082  12.249  18.384  0.00  0.00    +0.000 A 
ATOM     13  C   UNL     1       9.696  10.925  18.146  0.00  0.00    +0.000 A 
ATOM     14  C   UNL     1       9.325  10.087  19.200  0.00  0.00    +0.000 A 
ATOM     15  C   UNL     1       9.309  10.612  20.497  0.00  0.00    +0.000 A 
ATOM     16  C   UNL     1       9.700  11.936  20.738  0.00  0.00    +0.000 A 
ENDBRANCH   6  14
ENDBRANCH   5   7
ENDBRANCH   1   5
BRANCH   3  17
ATOM     17  C   UNL     1       4.248   5.526  17.206  0.00  0.00    +0.000 C 
BRANCH  17  18
ATOM     18  N   UNL     1       3.601   4.305  17.690  0.00  0.00    +0.000 N 
ATOM     19  C   UNL     1       2.567   4.393  18.607  0.00  0.00    +0.000 A 
ATOM     20  C   UNL     1       2.070   3.304  19.221  0.00  0.00    +0.000 A 
ATOM     21  C   UNL     1       2.619   2.003  18.880  0.00  0.00    +0.000 A 
ATOM     22  C   UNL     1       3.596   1.881  17.971  0.00  0.00    +0.000 A 
ATOM     23  C   UNL     1       4.158   3.087  17.305  0.00  0.00    +0.000 A 
ATOM     24  O   UNL     1       5.083   2.962  16.509  0.00  0.00    +0.000 OA
BRANCH  20  25
ATOM     25  C   UNL     1       1.023   3.416  20.292  0.00  0.00    +0.000 C 
ATOM     26  F   UNL     1       0.649   4.698  20.539  0.00  0.00    +0.000 F 
ATOM     27  F   UNL     1      -0.106   2.743  19.951  0.00  0.00    +0.000 F 
ATOM     28  F   UNL     1       1.448   2.896  21.471  0.00  0.00    +0.000 F 
ENDBRANCH  20  25
ENDBRANCH  17  18
ENDBRANCH   3  17
TORSDOF 6
ENDMDL
MODEL 3
REMARK VINA RESULT:      -7.3      4.175      8.877
REMARK  Name = 
REMARK  8 active torsions:
REMARK  status: ('A' for Active; 'I' for Inactive)
REMARK    1  A    between atoms: C_1  and  C_2
REMARK    2  A    between atoms: C_5  and  N_6
REMARK    3  A    between atoms: C_7  and  C_9
REMARK    4  A    between atoms: C_9  and  N_10
REMARK    5  A    between atoms: N_10  and  C_11
REMARK    6  A    between atoms: C_12  and  C_14
REMARK    7  A    between atoms: C_14  and  N_15
REMARK    8  A    between atoms: C_17  and  C_18
REMARK                            x       y       z     vdW  Elec       q    Type
REMARK                         _______ _______ _______ _____ _____    ______ ____
ROOT
ATOM      1  N   UNL     1       1.430   8.646  19.494  0.00  0.00    +0.000 N 
ATOM      2  C   UNL     1       1.422   8.043  20.822  0.00  0.00    +0.000 C 
ATOM      3  C   UNL     1       2.269   8.221  18.464  0.00  0.00    +0.000 C 
ATOM      4  O   UNL     1       2.091   8.606  17.303  0.00  0.00    +0.000 OA
ENDROOT
BRANCH   1   5
ATOM      5  C   UNL     1       0.358   9.587  19.179  0.00  0.00    +0.000 C 
BRANCH   5   7
ATOM      6  N   UNL     1       0.671  11.903  18.484  0.00  0.00    +0.000 N 
ATOM      7  C   UNL     1       0.726  11.026  19.558  0.00  0.00    +0.000 C 
ATOM      8  O   UNL     1       0.955  11.325  20.728  0.00  0.00    +0.000 OA
ATOM      9  H   UNL     1       0.186  11.562  17.657  0.00  0.00    +0.000 HD
BRANCH   6  14
ATOM     10  C   UNL     1       2.054  17.470  18.623  0.00  0.00    +0.000 C 
ATOM     11  C   UNL     1       1.707  16.015  18.557  0.00  0.00    +0.000 A 
ATOM     12  C   UNL     1       2.677  15.058  18.244  0.00  0.00    +0.000 A 
ATOM     13  C   UNL     1       2.352  13.696  18.207  0.00  0.00    +0.000 A 
ATOM     14  C   UNL     1       1.054  13.263  18.488  0.00  0.00    +0.000 A 
ATOM     15  C   UNL     1       0.074  14.222  18.768  0.00  0.00    +0.000 A 
ATOM     16  C   UNL     1       0.399  15.585  18.809  0.00  0.00    +0.000 A 
ENDBRANCH   6  14
ENDBRANCH   5   7
ENDBRANCH   1   5
BRANCH   3  17
ATOM     17  C   UNL     1       3.333   7.171  18.825  0.00  0.00    +0.000 C 
BRANCH  17  18
ATOM     18  N   UNL     1       3.090   5.825  18.302  0.00  0.00    +0.000 N 
ATOM     19  C   UNL     1       2.150   5.010  18.912  0.00  0.00    +0.000 A 
ATOM     20  C   UNL     1       2.025   3.709  18.591  0.00  0.00    +0.000 A 
ATOM     21  C   UNL     1       2.883   3.164  17.553  0.00  0.00    +0.000 A 
ATOM     22  C   UNL     1       3.777   3.934  16.919  0.00  0.00    +0.000 A 
ATOM     23  C   UNL     1       3.929   5.369  17.287  0.00  0.00    +0.000 A 
ATOM     24  O   UNL     1       4.784   6.048  16.728  0.00  0.00    +0.000 OA
BRANCH  20  25
ATOM     25  C   UNL     1       1.080   2.806  19.330  0.00  0.00    +0.000 C 
ATOM     26  F   UNL     1       0.176   2.202  18.517  0.00  0.00    +0.000 F 
ATOM     27  F   UNL     1       1.748   1.812  19.972  0.00  0.00    +0.000 F 
ATOM     28  F   UNL     1       0.374   3.477  20.275  0.00  0.00    +0.000 F 
ENDBRANCH  20  25
ENDBRANCH  17  18
ENDBRANCH   3  17
TORSDOF 6
ENDMDL
MODEL 4
REMARK VINA RESULT:      -7.1      6.978     10.065
REMARK  Name = 
REMARK  8 active torsions:
REMARK  status: ('A' for Active; 'I' for Inactive)
REMARK    1  A    between atoms: C_1  and  C_2
REMARK    2  A    between atoms: C_5  and  N_6
REMARK    3  A    between atoms: C_7  and  C_9
REMARK    4  A    between atoms: C_9  and  N_10
REMARK    5  A    between atoms: N_10  and  C_11
REMARK    6  A    between atoms: C_12  and  C_14
REMARK    7  A    between atoms: C_14  and  N_15
REMARK    8  A    between atoms: C_17  and  C_18
REMARK                            x       y       z     vdW  Elec       q    Type
REMARK                         _______ _______ _______ _____ _____    ______ ____
ROOT
ATOM      1  N   UNL     1       7.380   6.459  18.017  0.00  0.00    +0.000 N 
ATOM      2  C   UNL     1       7.441   6.617  16.568  0.00  0.00    +0.000 C 
ATOM      3  C   UNL     1       6.604   5.490  18.651  0.00  0.00    +0.000 C 
ATOM      4  O   UNL     1       6.751   5.250  19.856  0.00  0.00    +0.000 OA
ENDROOT
BRANCH   1   5
ATOM      5  C   UNL     1       8.346   7.213  18.814  0.00  0.00    +0.000 C 
BRANCH   5   7
ATOM      6  N   UNL     1       9.343   9.420  19.102  0.00  0.00    +0.000 N 
ATOM      7  C   UNL     1       8.332   8.707  18.471  0.00  0.00    +0.000 C 
ATOM      8  O   UNL     1       7.533   9.153  17.651  0.00  0.00    +0.000 OA
ATOM      9  H   UNL     1      10.091   8.863  19.510  0.00  0.00    +0.000 HD
BRANCH   6  14
ATOM     10  C   UNL     1      10.092  15.099  18.770  0.00  0.00    +0.000 C 
ATOM     11  C   UNL     1       9.914  13.616  18.885  0.00  0.00    +0.000 A 
ATOM     12  C   UNL     1       9.443  13.037  20.067  0.00  0.00    +0.000 A 
ATOM     13  C   UNL     1       9.255  11.653  20.160  0.00  0.00    +0.000 A 
ATOM     14  C   UNL     1       9.529  10.820  19.073  0.00  0.00    +0.000 A 
ATOM     15  C   UNL     1      10.033  11.393  17.900  0.00  0.00    +0.000 A 
ATOM     16  C   UNL     1      10.216  12.780  17.804  0.00  0.00    +0.000 A 
ENDBRANCH   6  14
ENDBRANCH   5   7
ENDBRANCH   1   5
BRANCH   3  17
ATOM     17  C   UNL     1       5.659   4.666  17.761  0.00  0.00    +0.000 C 
BRANCH  17  18
ATOM     18  N   UNL     1       4.241   4.733  18.119  0.00  0.00    +0.000 N 
ATOM     19  C   UNL     1       3.605   3.607  18.617  0.00  0.00    +0.000 A 
ATOM     20  C   UNL     1       2.270   3.562  18.781  0.00  0.00    +0.000 A 
ATOM     21  C   UNL     1       1.490   4.744  18.455  0.00  0.00    +0.000 A 
ATOM     22  C   UNL     1       2.079   5.860  18.006  0.00  0.00    +0.000 A 
ATOM     23  C   UNL     1       3.553   5.903  17.806  0.00  0.00    +0.000 A 
ATOM     24  O   UNL     1       4.072   6.918  17.351  0.00  0.00    +0.000 OA
BRANCH  20  25
ATOM     25  C   UNL     1       1.575   2.305  19.218  0.00  0.00    +0.000 C 
ATOM     26  F   UNL     1       0.341   2.161  18.670  0.00  0.00    +0.000 F 
ATOM     27  F   UNL     1       2.285   1.201  18.865  0.00  0.00    +0.000 F 
ATOM     28  F   UNL     1       1.417   2.255  20.564  0.00  0.00    +0.000 F 
ENDBRANCH  20  25
ENDBRANCH  17  18
ENDBRANCH   3  17
TORSDOF 6
ENDMDL
MODEL 5
REMARK VINA RESULT:      -7.1      6.699      9.751
REMARK  Name = 
REMARK  8 active torsions:
REMARK  status: ('A' for Active; 'I' for Inactive)
REMARK    1  A    between atoms: C_1  and  C_2
REMARK    2  A    between atoms: C_5  and  N_6
REMARK    3  A    between atoms: C_7  and  C_9
REMARK    4  A    between atoms: C_9  and  N_10
REMARK    5  A    between atoms: N_10  and  C_11
REMARK    6  A    between atoms: C_12  and  C_14
REMARK    7  A    between atoms: C_14  and  N_15
REMARK    8  A    between atoms: C_17  and  C_18
REMARK                            x       y       z     vdW  Elec       q    Type
REMARK                         _______ _______ _______ _____ _____    ______ ____
ROOT
ATOM      1  N   UNL     1       6.668   6.532  17.647  0.00  0.00    +0.000 N 
ATOM      2  C   UNL     1       6.272   6.670  16.251  0.00  0.00    +0.000 C 
ATOM      3  C   UNL     1       5.933   5.808  18.586  0.00  0.00    +0.000 C 
ATOM      4  O   UNL     1       6.413   5.535  19.692  0.00  0.00    +0.000 OA
ENDROOT
BRANCH   1   5
ATOM      5  C   UNL     1       8.006   6.994  18.013  0.00  0.00    +0.000 C 
BRANCH   5   7
ATOM      6  N   UNL     1       9.094   8.956  18.969  0.00  0.00    +0.000 N 
ATOM      7  C   UNL     1       8.074   8.520  18.133  0.00  0.00    +0.000 C 
ATOM      8  O   UNL     1       7.328   9.234  17.466  0.00  0.00    +0.000 OA
ATOM      9  H   UNL     1       9.799   8.262  19.208  0.00  0.00    +0.000 HD
BRANCH   6  14
ATOM     10  C   UNL     1      10.084  14.431  20.370  0.00  0.00    +0.000 C 
ATOM     11  C   UNL     1       9.846  12.992  20.028  0.00  0.00    +0.000 A 
ATOM     12  C   UNL     1       9.492  12.067  21.015  0.00  0.00    +0.000 A 
ATOM     13  C   UNL     1       9.247  10.729  20.685  0.00  0.00    +0.000 A 
ATOM     14  C   UNL     1       9.345  10.288  19.364  0.00  0.00    +0.000 A 
ATOM     15  C   UNL     1       9.733  11.205  18.380  0.00  0.00    +0.000 A 
ATOM     16  C   UNL     1       9.974  12.546  18.708  0.00  0.00    +0.000 A 
ENDBRANCH   6  14
ENDBRANCH   5   7
ENDBRANCH   1   5
BRANCH   3  17
ATOM     17  C   UNL     1       4.564   5.274  18.132  0.00  0.00    +0.000 C 
BRANCH  17  18
ATOM     18  N   UNL     1       3.531   5.233  19.168  0.00  0.00    +0.000 N 
ATOM     19  C   UNL     1       3.269   4.045  19.831  0.00  0.00    +0.000 A 
ATOM     20  C   UNL     1       2.210   3.910  20.650  0.00  0.00    +0.000 A 
ATOM     21  C   UNL     1       1.344   5.056  20.862  0.00  0.00    +0.000 A 
ATOM     22  C   UNL     1       1.590   6.229  20.263  0.00  0.00    +0.000 A 
ATOM     23  C   UNL     1       2.750   6.375  19.343  0.00  0.00    +0.000 A 
ATOM     24  O   UNL     1       2.935   7.442  18.767  0.00  0.00    +0.000 OA
BRANCH  20  25
ATOM     25  C   UNL     1       1.870   2.589  21.281  0.00  0.00    +0.000 C 
ATOM     26  F   UNL     1       1.597   1.619  20.371  0.00  0.00    +0.000 F 
ATOM     27  F   UNL     1       2.898   2.128  22.041  0.00  0.00    +0.000 F 
ATOM     28  F   UNL     1       0.790   2.681  22.097  0.00  0.00    +0.000 F 
ENDBRANCH  20  25
ENDBRANCH  17  18
ENDBRANCH   3  17
TORSDOF 6
ENDMDL
MODEL 6
REMARK VINA RESULT:      -7.1      4.696      9.268
REMARK  Name = 
REMARK  8 active torsions:
REMARK  status: ('A' for Active; 'I' for Inactive)
REMARK    1  A    between atoms: C_1  and  C_2
REMARK    2  A    between atoms: C_5  and  N_6
REMARK    3  A    between atoms: C_7  and  C_9
REMARK    4  A    between atoms: C_9  and  N_10
REMARK    5  A    between atoms: N_10  and  C_11
REMARK    6  A    between atoms: C_12  and  C_14
REMARK    7  A    between atoms: C_14  and  N_15
REMARK    8  A    between atoms: C_17  and  C_18
REMARK                            x       y       z     vdW  Elec       q    Type
REMARK                         _______ _______ _______ _____ _____    ______ ____
ROOT
ATOM      1  N   UNL     1       1.630   8.615  19.832  0.00  0.00    +0.000 N 
ATOM      2  C   UNL     1       1.103   8.257  21.144  0.00  0.00    +0.000 C 
ATOM      3  C   UNL     1       2.266   7.706  18.986  0.00  0.00    +0.000 C 
ATOM      4  O   UNL     1       2.498   7.994  17.806  0.00  0.00    +0.000 OA
ENDROOT
BRANCH   1   5
ATOM      5  C   UNL     1       1.278   9.931  19.305  0.00  0.00    +0.000 C 
BRANCH   5   7
ATOM      6  N   UNL     1      -0.020  11.369  20.785  0.00  0.00    +0.000 N 
ATOM      7  C   UNL     1      -0.097  10.399  19.796  0.00  0.00    +0.000 C 
ATOM      8  O   UNL     1      -1.125   9.978  19.269  0.00  0.00    +0.000 OA
ATOM      9  H   UNL     1       0.887  11.816  20.900  0.00  0.00    +0.000 HD
BRANCH   6  14
ATOM     10  C   UNL     1      -4.479  13.697  23.545  0.00  0.00    +0.000 C 
ATOM     11  C   UNL     1      -3.298  13.090  22.853  0.00  0.00    +0.000 A 
ATOM     12  C   UNL     1      -2.646  11.975  23.387  0.00  0.00    +0.000 A 
ATOM     13  C   UNL     1      -1.557  11.398  22.722  0.00  0.00    +0.000 A 
ATOM     14  C   UNL     1      -1.101  11.919  21.509  0.00  0.00    +0.000 A 
ATOM     15  C   UNL     1      -1.731  13.056  20.990  0.00  0.00    +0.000 A 
ATOM     16  C   UNL     1      -2.825  13.632  21.652  0.00  0.00    +0.000 A 
ENDBRANCH   6  14
ENDBRANCH   5   7
ENDBRANCH   1   5
BRANCH   3  17
ATOM     17  C   UNL     1       2.547   6.306  19.558  0.00  0.00    +0.000 C 
BRANCH  17  18
ATOM     18  N   UNL     1       3.526   5.509  18.817  0.00  0.00    +0.000 N 
ATOM     19  C   UNL     1       4.880   5.721  19.022  0.00  0.00    +0.000 A 
ATOM     20  C   UNL     1       5.813   5.154  18.236  0.00  0.00    +0.000 A 
ATOM     21  C   UNL     1       5.378   4.271  17.168  0.00  0.00    +0.000 A 
ATOM     22  C   UNL     1       4.078   4.017  16.966  0.00  0.00    +0.000 A 
ATOM     23  C   UNL     1       3.045   4.660  17.823  0.00  0.00    +0.000 A 
ATOM     24  O   UNL     1       1.857   4.452  17.596  0.00  0.00    +0.000 OA
BRANCH  20  25
ATOM     25  C   UNL     1       7.272   5.472  18.395  0.00  0.00    +0.000 C 
ATOM     26  F   UNL     1       7.655   6.574  17.701  0.00  0.00    +0.000 F 
ATOM     27  F   UNL     1       7.587   5.706  19.696  0.00  0.00    +0.000 F 
ATOM     28  F   UNL     1       8.062   4.450  17.979  0.00  0.00    +0.000 F 
ENDBRANCH  20  25
ENDBRANCH  17  18
ENDBRANCH   3  17
TORSDOF 6
ENDMDL
MODEL 7
REMARK VINA RESULT:      -7.1      7.848     10.329
REMARK  Name = 
REMARK  8 active torsions:
REMARK  status: ('A' for Active; 'I' for Inactive)
REMARK    1  A    between atoms: C_1  and  C_2
REMARK    2  A    between atoms: C_5  and  N_6
REMARK    3  A    between atoms: C_7  and  C_9
REMARK    4  A    between atoms: C_9  and  N_10
REMARK    5  A    between atoms: N_10  and  C_11
REMARK    6  A    between atoms: C_12  and  C_14
REMARK    7  A    between atoms: C_14  and  N_15
REMARK    8  A    between atoms: C_17  and  C_18
REMARK                            x       y       z     vdW  Elec       q    Type
REMARK                         _______ _______ _______ _____ _____    ______ ____
ROOT
ATOM      1  N   UNL     1       6.533   6.261  17.520  0.00  0.00    +0.000 N 
ATOM      2  C   UNL     1       6.582   6.006  16.085  0.00  0.00    +0.000 C 
ATOM      3  C   UNL     1       5.442   5.930  18.322  0.00  0.00    +0.000 C 
ATOM      4  O   UNL     1       5.529   5.961  19.556  0.00  0.00    +0.000 OA
ENDROOT
BRANCH   1   5
ATOM      5  C   UNL     1       7.773   6.683  18.168  0.00  0.00    +0.000 C 
BRANCH   5   7
ATOM      6  N   UNL     1       8.914   8.675  18.990  0.00  0.00    +0.000 N 
ATOM      7  C   UNL     1       7.983   8.199  18.078  0.00  0.00    +0.000 C 
ATOM      8  O   UNL     1       7.415   8.858  17.210  0.00  0.00    +0.000 OA
ATOM      9  H   UNL     1       9.503   7.972  19.432  0.00  0.00    +0.000 HD
BRANCH   6  14
ATOM     10  C   UNL     1      10.213  14.214  19.738  0.00  0.00    +0.000 C 
ATOM     11  C   UNL     1       9.896  12.760  19.567  0.00  0.00    +0.000 A 
ATOM     12  C   UNL     1       9.577  11.958  20.667  0.00  0.00    +0.000 A 
ATOM     13  C   UNL     1       9.258  10.606  20.497  0.00  0.00    +0.000 A 
ATOM     14  C   UNL     1       9.245  10.028  19.226  0.00  0.00    +0.000 A 
ATOM     15  C   UNL     1       9.597  10.821  18.127  0.00  0.00    +0.000 A 
ATOM     16  C   UNL     1       9.912  12.176  18.295  0.00  0.00    +0.000 A 
ENDBRANCH   6  14
ENDBRANCH   5   7
ENDBRANCH   1   5
BRANCH   3  17
ATOM     17  C   UNL     1       4.184   5.415  17.603  0.00  0.00    +0.000 C 
BRANCH  17  18
ATOM     18  N   UNL     1       3.630   4.163  18.122  0.00  0.00    +0.000 N 
ATOM     19  C   UNL     1       2.926   4.166  19.316  0.00  0.00    +0.000 A 
ATOM     20  C   UNL     1       2.564   3.023  19.926  0.00  0.00    +0.000 A 
ATOM     21  C   UNL     1       2.895   1.760  19.291  0.00  0.00    +0.000 A 
ATOM     22  C   UNL     1       3.544   1.724  18.119  0.00  0.00    +0.000 A 
ATOM     23  C   UNL     1       3.962   2.987  17.452  0.00  0.00    +0.000 A 
ATOM     24  O   UNL     1       4.595   2.936  16.403  0.00  0.00    +0.000 OA
BRANCH  20  25
ATOM     25  C   UNL     1       1.896   3.030  21.272  0.00  0.00    +0.000 C 
ATOM     26  F   UNL     1       2.220   4.116  22.021  0.00  0.00    +0.000 F 
ATOM     27  F   UNL     1       0.543   3.034  21.152  0.00  0.00    +0.000 F 
ATOM     28  F   UNL     1       2.221   1.936  22.004  0.00  0.00    +0.000 F 
ENDBRANCH  20  25
ENDBRANCH  17  18
ENDBRANCH   3  17
TORSDOF 6
ENDMDL
MODEL 8
REMARK VINA RESULT:      -7.1      3.427      4.167
REMARK  Name = 
REMARK  8 active torsions:
REMARK  status: ('A' for Active; 'I' for Inactive)
REMARK    1  A    between atoms: C_1  and  C_2
REMARK    2  A    between atoms: C_5  and  N_6
REMARK    3  A    between atoms: C_7  and  C_9
REMARK    4  A    between atoms: C_9  and  N_10
REMARK    5  A    between atoms: N_10  and  C_11
REMARK    6  A    between atoms: C_12  and  C_14
REMARK    7  A    between atoms: C_14  and  N_15
REMARK    8  A    between atoms: C_17  and  C_18
REMARK                            x       y       z     vdW  Elec       q    Type
REMARK                         _______ _______ _______ _____ _____    ______ ____
ROOT
ATOM      1  N   UNL     1       0.472  10.619  21.544  0.00  0.00    +0.000 N 
ATOM      2  C   UNL     1       0.644  11.025  20.154  0.00  0.00    +0.000 C 
ATOM      3  C   UNL     1      -0.553  11.094  22.361  0.00  0.00    +0.000 C 
ATOM      4  O   UNL     1      -0.791  10.563  23.452  0.00  0.00    +0.000 OA
ENDROOT
BRANCH   1   5
ATOM      5  C   UNL     1       1.285   9.502  22.021  0.00  0.00    +0.000 C 
BRANCH   5   7
ATOM      6  N   UNL     1       2.059   7.487  20.886  0.00  0.00    +0.000 N 
ATOM      7  C   UNL     1       0.939   8.191  21.304  0.00  0.00    +0.000 C 
ATOM      8  O   UNL     1      -0.229   7.818  21.215  0.00  0.00    +0.000 OA
ATOM      9  H   UNL     1       2.945   7.781  21.291  0.00  0.00    +0.000 HD
BRANCH   6  14
ATOM     10  C   UNL     1       2.247   2.783  17.606  0.00  0.00    +0.000 C 
ATOM     11  C   UNL     1       2.167   4.004  18.470  0.00  0.00    +0.000 A 
ATOM     12  C   UNL     1       1.673   3.931  19.775  0.00  0.00    +0.000 A 
ATOM     13  C   UNL     1       1.623   5.071  20.586  0.00  0.00    +0.000 A 
ATOM     14  C   UNL     1       2.069   6.306  20.111  0.00  0.00    +0.000 A 
ATOM     15  C   UNL     1       2.531   6.389  18.792  0.00  0.00    +0.000 A 
ATOM     16  C   UNL     1       2.587   5.246  17.981  0.00  0.00    +0.000 A 
ENDBRANCH   6  14
ENDBRANCH   5   7
ENDBRANCH   1   5
BRANCH   3  17
ATOM     17  C   UNL     1      -1.433  12.217  21.788  0.00  0.00    +0.000 C 
BRANCH  17  18
ATOM     18  N   UNL     1      -2.284  12.907  22.758  0.00  0.00    +0.000 N 
ATOM     19  C   UNL     1      -3.633  12.597  22.832  0.00  0.00    +0.000 A 
ATOM     20  C   UNL     1      -4.489  13.328  23.569  0.00  0.00    +0.000 A 
ATOM     21  C   UNL     1      -3.967  14.452  24.328  0.00  0.00    +0.000 A 
ATOM     22  C   UNL     1      -2.663  14.756  24.306  0.00  0.00    +0.000 A 
ATOM     23  C   UNL     1      -1.719  13.958  23.477  0.00  0.00    +0.000 A 
ATOM     24  O   UNL     1      -0.535  14.278  23.432  0.00  0.00    +0.000 OA
BRANCH  20  25
ATOM     25  C   UNL     1      -5.965  13.053  23.560  0.00  0.00    +0.000 C 
ATOM     26  F   UNL     1      -6.352  12.190  24.534  0.00  0.00    +0.000 F 
ATOM     27  F   UNL     1      -6.680  14.193  23.747  0.00  0.00    +0.000 F 
ATOM     28  F   UNL     1      -6.374  12.524  22.379  0.00  0.00    +0.000 F 
ENDBRANCH  20  25
ENDBRANCH  17  18
ENDBRANCH   3  17
TORSDOF 6
ENDMDL
MODEL 9
REMARK VINA RESULT:      -7.0      4.567      9.141
REMARK  Name = 
REMARK  8 active torsions:
REMARK  status: ('A' for Active; 'I' for Inactive)
REMARK    1  A    between atoms: C_1  and  C_2
REMARK    2  A    between atoms: C_5  and  N_6
REMARK    3  A    between atoms: C_7  and  C_9
REMARK    4  A    between atoms: C_9  and  N_10
REMARK    5  A    between atoms: N_10  and  C_11
REMARK    6  A    between atoms: C_12  and  C_14
REMARK    7  A    between atoms: C_14  and  N_15
REMARK    8  A    between atoms: C_17  and  C_18
REMARK                            x       y       z     vdW  Elec       q    Type
REMARK                         _______ _______ _______ _____ _____    ______ ____
ROOT
ATOM      1  N   UNL     1       1.517   8.995  19.257  0.00  0.00    +0.000 N 
ATOM      2  C   UNL     1       0.915   8.771  20.566  0.00  0.00    +0.000 C 
ATOM      3  C   UNL     1       2.258   8.028  18.577  0.00  0.00    +0.000 C 
ATOM      4  O   UNL     1       2.560   8.181  17.388  0.00  0.00    +0.000 OA
ENDROOT
BRANCH   1   5
ATOM      5  C   UNL     1       1.137  10.212  18.543  0.00  0.00    +0.000 C 
BRANCH   5   7
ATOM      6  N   UNL     1      -1.044  11.286  18.358  0.00  0.00    +0.000 N 
ATOM      7  C   UNL     1      -0.309  10.154  18.037  0.00  0.00    +0.000 C 
ATOM      8  O   UNL     1      -0.693   9.210  17.350  0.00  0.00    +0.000 OA
ATOM      9  H   UNL     1      -0.506  12.092  18.668  0.00  0.00    +0.000 HD
BRANCH   6  14
ATOM     10  C   UNL     1      -6.653  12.225  17.597  0.00  0.00    +0.000 C 
ATOM     11  C   UNL     1      -5.193  11.951  17.781  0.00  0.00    +0.000 A 
ATOM     12  C   UNL     1      -4.400  11.523  16.712  0.00  0.00    +0.000 A 
ATOM     13  C   UNL     1      -3.030  11.291  16.885  0.00  0.00    +0.000 A 
ATOM     14  C   UNL     1      -2.423  11.487  18.127  0.00  0.00    +0.000 A 
ATOM     15  C   UNL     1      -3.221  11.882  19.207  0.00  0.00    +0.000 A 
ATOM     16  C   UNL     1      -4.592  12.119  19.034  0.00  0.00    +0.000 A 
ENDBRANCH   6  14
ENDBRANCH   5   7
ENDBRANCH   1   5
BRANCH   3  17
ATOM     17  C   UNL     1       2.568   6.729  19.340  0.00  0.00    +0.000 C 
BRANCH  17  18
ATOM     18  N   UNL     1       3.404   5.764  18.625  0.00  0.00    +0.000 N 
ATOM     19  C   UNL     1       4.782   5.911  18.630  0.00  0.00    +0.000 A 
ATOM     20  C   UNL     1       5.576   5.168  17.838  0.00  0.00    +0.000 A 
ATOM     21  C   UNL     1       4.964   4.164  16.985  0.00  0.00    +0.000 A 
ATOM     22  C   UNL     1       3.639   3.973  16.983  0.00  0.00    +0.000 A 
ATOM     23  C   UNL     1       2.757   4.807  17.844  0.00  0.00    +0.000 A 
ATOM     24  O   UNL     1       1.541   4.650  17.797  0.00  0.00    +0.000 OA
BRANCH  20  25
ATOM     25  C   UNL     1       7.058   5.406  17.769  0.00  0.00    +0.000 C 
ATOM     26  F   UNL     1       7.651   5.431  18.990  0.00  0.00    +0.000 F 
ATOM     27  F   UNL     1       7.681   4.430  17.057  0.00  0.00    +0.000 F 
ATOM     28  F   UNL     1       7.354   6.582  17.162  0.00  0.00    +0.000 F 
ENDBRANCH  20  25
ENDBRANCH  17  18
ENDBRANCH   3  17
TORSDOF 6
ENDMDL
