MODEL 1
REMARK VINA RESULT:      -7.2      0.000      0.000
REMARK  Name = 
REMARK  18 active torsions:
REMARK  status: ('A' for Active; 'I' for Inactive)
REMARK    1  A    between atoms: C_1  and  C_2
REMARK    2  A    between atoms: C_2  and  C_3
REMARK    3  A    between atoms: C_3  and  C_4
REMARK    4  A    between atoms: C_4  and  C_5
REMARK    5  A    between atoms: C_5  and  C_6
REMARK    6  A    between atoms: C_6  and  C_7
REMARK    7  A    between atoms: C_7  and  C_8
REMARK    8  A    between atoms: C_8  and  C_9
REMARK    9  A    between atoms: C_10  and  C_11
REMARK   10  A    between atoms: C_11  and  C_12
REMARK   11  A    between atoms: C_12  and  C_13
REMARK   12  A    between atoms: C_13  and  C_14
REMARK   13  A    between atoms: C_14  and  C_15
REMARK   14  A    between atoms: C_15  and  C_16
REMARK   15  A    between atoms: C_16  and  C_17
REMARK   16  A    between atoms: C_17  and  C_18
REMARK   17  A    between atoms: C_18  and  O_20
REMARK   18  A    between atoms: O_20  and  C_21
REMARK                            x       y       z     vdW  Elec       q    Type
REMARK                         _______ _______ _______ _____ _____    ______ ____
ROOT
ATOM      1  C   UNL     1       8.057   6.760  18.517  0.00  0.00    +0.000 C 
ENDROOT
BRANCH   1   2
ATOM      2  C   UNL     1       7.015   5.669  18.699  0.00  0.00    +0.000 C 
BRANCH   2   3
ATOM      3  C   UNL     1       6.972   4.751  17.499  0.00  0.00    +0.000 C 
ATOM      4  O   UNL     1       7.874   4.592  16.686  0.00  0.00    +0.000 OA
BRANCH   3   5
ATOM      5  O   UNL     1       5.699   4.200  17.418  0.00  0.00    +0.000 OA
BRANCH   5   6
ATOM      6  C   UNL     1       4.686   5.095  17.788  0.00  0.00    +0.000 A 
ATOM      7  C   UNL     1       4.584   6.311  17.092  0.00  0.00    +0.000 A 
ATOM      8  C   UNL     1       3.666   7.273  17.482  0.00  0.00    +0.000 A 
ATOM      9  C   UNL     1       2.839   7.028  18.571  0.00  0.00    +0.000 A 
ATOM     10  C   UNL     1       2.929   5.813  19.269  0.00  0.00    +0.000 A 
ATOM     11  C   UNL     1       3.878   4.849  18.903  0.00  0.00    +0.000 A 
ATOM     12  C   UNL     1       4.006   3.613  19.708  0.00  0.00    +0.000 C 
ATOM     13  O   UNL     1       4.965   2.864  19.583  0.00  0.00    +0.000 OA
ATOM     14  C   UNL     1       2.930   3.319  20.689  0.00  0.00    +0.000 C 
ATOM     15  C   UNL     1       2.000   4.228  21.000  0.00  0.00    +0.000 C 
ATOM     16  C   UNL     1       2.001   5.569  20.390  0.00  0.00    +0.000 C 
ATOM     17  O   UNL     1       1.234   6.427  20.793  0.00  0.00    +0.000 OA
ENDBRANCH   5   6
ENDBRANCH   3   5
ENDBRANCH   2   3
ENDBRANCH   1   2
BRANCH   1  18
ATOM     18  C   UNL     1       7.673   7.719  17.395  0.00  0.00    +0.000 C 
BRANCH  18  19
ATOM     19  C   UNL     1       7.840   9.148  17.885  0.00  0.00    +0.000 C 
BRANCH  19  20
ATOM     20  C   UNL     1       8.926   9.269  18.948  0.00  0.00    +0.000 C 
BRANCH  20  21
ATOM     21  C   UNL     1       9.668  10.604  18.831  0.00  0.00    +0.000 C 
BRANCH  21  22
ATOM     22  C   UNL     1       8.906  11.665  18.034  0.00  0.00    +0.000 C 
BRANCH  22  24
ATOM     23  C   UNL     1       9.992  13.931  17.999  0.00  0.00    +0.000 C 
ATOM     24  C   UNL     1       9.823  12.714  17.467  0.00  0.00    +0.000 C 
BRANCH  23  25
ATOM     25  C   UNL     1       9.298  14.344  19.253  0.00  0.00    +0.000 C 
BRANCH  25  26
ATOM     26  C   UNL     1      10.261  14.550  20.407  0.00  0.00    +0.000 C 
BRANCH  26  27
ATOM     27  C   UNL     1      10.134  13.378  21.369  0.00  0.00    +0.000 C 
BRANCH  27  28
ATOM     28  C   UNL     1       8.682  13.173  21.752  0.00  0.00    +0.000 C 
BRANCH  28  29
ATOM     29  C   UNL     1       8.425  11.717  22.111  0.00  0.00    +0.000 C 
BRANCH  29  30
ATOM     30  C   UNL     1       7.694  11.632  23.443  0.00  0.00    +0.000 C 
BRANCH  30  32
ATOM     31  C   UNL     1       7.758  13.048  25.504  0.00  0.00    +0.000 C 
ATOM     32  C   UNL     1       8.564  12.157  24.577  0.00  0.00    +0.000 C 
ENDBRANCH  30  32
ENDBRANCH  29  30
ENDBRANCH  28  29
ENDBRANCH  27  28
ENDBRANCH  26  27
ENDBRANCH  25  26
ENDBRANCH  23  25
ENDBRANCH  22  24
ENDBRANCH  21  22
ENDBRANCH  20  21
ENDBRANCH  19  20
ENDBRANCH  18  19
ENDBRANCH   1  18
TORSDOF 17
ENDMDL
MODEL 2
REMARK VINA RESULT:      -6.8      6.040      9.800
REMARK  Name = 
REMARK  18 active torsions:
REMARK  status: ('A' for Active; 'I' for Inactive)
REMARK    1  A    between atoms: C_1  and  C_2
REMARK    2  A    between atoms: C_2  and  C_3
REMARK    3  A    between atoms: C_3  and  C_4
REMARK    4  A    between atoms: C_4  and  C_5
REMARK    5  A    between atoms: C_5  and  C_6
REMARK    6  A    between atoms: C_6  and  C_7
REMARK    7  A    between atoms: C_7  and  C_8
REMARK    8  A    between atoms: C_8  and  C_9
REMARK    9  A    between atoms: C_10  and  C_11
REMARK   10  A    between atoms: C_11  and  C_12
REMARK   11  A    between atoms: C_12  and  C_13
REMARK   12  A    between atoms: C_13  and  C_14
REMARK   13  A    between atoms: C_14  and  C_15
REMARK   14  A    between atoms: C_15  and  C_16
REMARK   15  A    between atoms: C_16  and  C_17
REMARK   16  A    between atoms: C_17  and  C_18
REMARK   17  A    between atoms: C_18  and  O_20
REMARK   18  A    between atoms: O_20  and  C_21
REMARK                            x       y       z     vdW  Elec       q    Type
REMARK                         _______ _______ _______ _____ _____    ______ ____
ROOT
ATOM      1  C   UNL     1       1.811   8.186  18.214  0.00  0.00    +0.000 C 
ENDROOT
BRANCH   1   2
ATOM      2  C   UNL     1       1.951   9.624  17.745  0.00  0.00    +0.000 C 
BRANCH   2   3
ATOM      3  C   UNL     1       1.275  10.578  18.704  0.00  0.00    +0.000 C 
ATOM      4  O   UNL     1       1.749  11.626  19.125  0.00  0.00    +0.000 OA
BRANCH   3   5
ATOM      5  O   UNL     1       0.072  10.010  19.106  0.00  0.00    +0.000 OA
BRANCH   5   6
ATOM      6  C   UNL     1      -0.227  10.246  20.454  0.00  0.00    +0.000 A 
ATOM      7  C   UNL     1       0.377   9.429  21.424  0.00  0.00    +0.000 A 
ATOM      8  C   UNL     1       0.040   9.555  22.762  0.00  0.00    +0.000 A 
ATOM      9  C   UNL     1      -0.902  10.501  23.144  0.00  0.00    +0.000 A 
ATOM     10  C   UNL     1      -1.507  11.327  22.183  0.00  0.00    +0.000 A 
ATOM     11  C   UNL     1      -1.197  11.184  20.823  0.00  0.00    +0.000 A 
ATOM     12  C   UNL     1      -1.910  12.012  19.824  0.00  0.00    +0.000 C 
ATOM     13  O   UNL     1      -1.858  11.759  18.628  0.00  0.00    +0.000 OA
ATOM     14  C   UNL     1      -2.708  13.159  20.329  0.00  0.00    +0.000 C 
ATOM     15  C   UNL     1      -2.961  13.315  21.632  0.00  0.00    +0.000 C 
ATOM     16  C   UNL     1      -2.467  12.353  22.632  0.00  0.00    +0.000 C 
ATOM     17  O   UNL     1      -2.829  12.436  23.794  0.00  0.00    +0.000 OA
ENDBRANCH   5   6
ENDBRANCH   3   5
ENDBRANCH   2   3
ENDBRANCH   1   2
BRANCH   1  18
ATOM     18  C   UNL     1       3.117   7.414  18.049  0.00  0.00    +0.000 C 
BRANCH  18  19
ATOM     19  C   UNL     1       3.554   6.883  19.403  0.00  0.00    +0.000 C 
BRANCH  19  20
ATOM     20  C   UNL     1       2.996   5.492  19.684  0.00  0.00    +0.000 C 
BRANCH  20  21
ATOM     21  C   UNL     1       1.829   5.554  20.674  0.00  0.00    +0.000 C 
BRANCH  21  22
ATOM     22  C   UNL     1       0.798   4.439  20.483  0.00  0.00    +0.000 C 
BRANCH  22  24
ATOM     23  C   UNL     1       1.628   2.115  20.010  0.00  0.00    +0.000 C 
ATOM     24  C   UNL     1       1.342   3.092  20.878  0.00  0.00    +0.000 C 
BRANCH  23  25
ATOM     25  C   UNL     1       1.465   2.297  18.538  0.00  0.00    +0.000 C 
BRANCH  25  26
ATOM     26  C   UNL     1       2.764   2.094  17.783  0.00  0.00    +0.000 C 
BRANCH  26  27
ATOM     27  C   UNL     1       3.029   3.320  16.922  0.00  0.00    +0.000 C 
BRANCH  27  28
ATOM     28  C   UNL     1       4.510   3.644  16.917  0.00  0.00    +0.000 C 
BRANCH  28  29
ATOM     29  C   UNL     1       4.794   4.832  16.010  0.00  0.00    +0.000 C 
BRANCH  29  30
ATOM     30  C   UNL     1       6.062   5.541  16.465  0.00  0.00    +0.000 C 
BRANCH  30  32
ATOM     31  C   UNL     1       7.798   4.821  18.116  0.00  0.00    +0.000 C 
ATOM     32  C   UNL     1       6.354   5.249  17.931  0.00  0.00    +0.000 C 
ENDBRANCH  30  32
ENDBRANCH  29  30
ENDBRANCH  28  29
ENDBRANCH  27  28
ENDBRANCH  26  27
ENDBRANCH  25  26
ENDBRANCH  23  25
ENDBRANCH  22  24
ENDBRANCH  21  22
ENDBRANCH  20  21
ENDBRANCH  19  20
ENDBRANCH  18  19
ENDBRANCH   1  18
TORSDOF 17
ENDMDL
MODEL 3
REMARK VINA RESULT:      -6.7      6.659     10.787
REMARK  Name = 
REMARK  18 active torsions:
REMARK  status: ('A' for Active; 'I' for Inactive)
REMARK    1  A    between atoms: C_1  and  C_2
REMARK    2  A    between atoms: C_2  and  C_3
REMARK    3  A    between atoms: C_3  and  C_4
REMARK    4  A    between atoms: C_4  and  C_5
REMARK    5  A    between atoms: C_5  and  C_6
REMARK    6  A    between atoms: C_6  and  C_7
REMARK    7  A    between atoms: C_7  and  C_8
REMARK    8  A    between atoms: C_8  and  C_9
REMARK    9  A    between atoms: C_10  and  C_11
REMARK   10  A    between atoms: C_11  and  C_12
REMARK   11  A    between atoms: C_12  and  C_13
REMARK   12  A    between atoms: C_13  and  C_14
REMARK   13  A    between atoms: C_14  and  C_15
REMARK   14  A    between atoms: C_15  and  C_16
REMARK   15  A    between atoms: C_16  and  C_17
REMARK   16  A    between atoms: C_17  and  C_18
REMARK   17  A    between atoms: C_18  and  O_20
REMARK   18  A    between atoms: O_20  and  C_21
REMARK                            x       y       z     vdW  Elec       q    Type
REMARK                         _______ _______ _______ _____ _____    ______ ____
ROOT
ATOM      1  C   UNL     1       0.574   9.705  19.505  0.00  0.00    +0.000 C 
ENDROOT
BRANCH   1   2
ATOM      2  C   UNL     1      -0.731  10.473  19.631  0.00  0.00    +0.000 C 
BRANCH   2   3
ATOM      3  C   UNL     1      -0.495  11.965  19.555  0.00  0.00    +0.000 C 
ATOM      4  O   UNL     1       0.439  12.569  20.068  0.00  0.00    +0.000 OA
BRANCH   3   5
ATOM      5  O   UNL     1      -1.574  12.542  18.896  0.00  0.00    +0.000 OA
BRANCH   5   6
ATOM      6  C   UNL     1      -2.733  12.600  19.680  0.00  0.00    +0.000 A 
ATOM      7  C   UNL     1      -2.621  13.060  21.003  0.00  0.00    +0.000 A 
ATOM      8  C   UNL     1      -3.716  13.043  21.851  0.00  0.00    +0.000 A 
ATOM      9  C   UNL     1      -4.936  12.569  21.385  0.00  0.00    +0.000 A 
ATOM     10  C   UNL     1      -5.059  12.113  20.063  0.00  0.00    +0.000 A 
ATOM     11  C   UNL     1      -3.949  12.095  19.208  0.00  0.00    +0.000 A 
ATOM     12  C   UNL     1      -4.090  11.532  17.846  0.00  0.00    +0.000 C 
ATOM     13  O   UNL     1      -3.113  11.270  17.157  0.00  0.00    +0.000 OA
ATOM     14  C   UNL     1      -5.466  11.283  17.346  0.00  0.00    +0.000 C 
ATOM     15  C   UNL     1      -6.527  11.347  18.157  0.00  0.00    +0.000 C 
ATOM     16  C   UNL     1      -6.382  11.663  19.589  0.00  0.00    +0.000 C 
ATOM     17  O   UNL     1      -7.342  11.575  20.336  0.00  0.00    +0.000 OA
ENDBRANCH   5   6
ENDBRANCH   3   5
ENDBRANCH   2   3
ENDBRANCH   1   2
BRANCH   1  18
ATOM     18  C   UNL     1       0.976   9.522  18.045  0.00  0.00    +0.000 C 
BRANCH  18  19
ATOM     19  C   UNL     1       2.312   8.801  17.985  0.00  0.00    +0.000 C 
BRANCH  19  20
ATOM     20  C   UNL     1       2.160   7.292  18.140  0.00  0.00    +0.000 C 
BRANCH  20  21
ATOM     21  C   UNL     1       2.673   6.822  19.504  0.00  0.00    +0.000 C 
BRANCH  21  22
ATOM     22  C   UNL     1       1.631   6.061  20.328  0.00  0.00    +0.000 C 
BRANCH  22  24
ATOM     23  C   UNL     1       2.127   3.598  20.303  0.00  0.00    +0.000 C 
ATOM     24  C   UNL     1       2.187   4.789  20.909  0.00  0.00    +0.000 C 
BRANCH  23  25
ATOM     25  C   UNL     1       1.525   3.434  18.947  0.00  0.00    +0.000 C 
BRANCH  25  26
ATOM     26  C   UNL     1       2.136   2.279  18.178  0.00  0.00    +0.000 C 
BRANCH  26  27
ATOM     27  C   UNL     1       3.553   2.652  17.770  0.00  0.00    +0.000 C 
BRANCH  27  28
ATOM     28  C   UNL     1       3.557   4.000  17.075  0.00  0.00    +0.000 C 
BRANCH  28  29
ATOM     29  C   UNL     1       4.837   4.759  17.390  0.00  0.00    +0.000 C 
BRANCH  29  30
ATOM     30  C   UNL     1       5.079   5.830  16.336  0.00  0.00    +0.000 C 
BRANCH  30  32
ATOM     31  C   UNL     1       6.910   4.566  15.192  0.00  0.00    +0.000 C 
ATOM     32  C   UNL     1       5.545   5.209  15.026  0.00  0.00    +0.000 C 
ENDBRANCH  30  32
ENDBRANCH  29  30
ENDBRANCH  28  29
ENDBRANCH  27  28
ENDBRANCH  26  27
ENDBRANCH  25  26
ENDBRANCH  23  25
ENDBRANCH  22  24
ENDBRANCH  21  22
ENDBRANCH  20  21
ENDBRANCH  19  20
ENDBRANCH  18  19
ENDBRANCH   1  18
TORSDOF 17
ENDMDL
MODEL 4
REMARK VINA RESULT:      -6.6      4.852      9.205
REMARK  Name = 
REMARK  18 active torsions:
REMARK  status: ('A' for Active; 'I' for Inactive)
REMARK    1  A    between atoms: C_1  and  C_2
REMARK    2  A    between atoms: C_2  and  C_3
REMARK    3  A    between atoms: C_3  and  C_4
REMARK    4  A    between atoms: C_4  and  C_5
REMARK    5  A    between atoms: C_5  and  C_6
REMARK    6  A    between atoms: C_6  and  C_7
REMARK    7  A    between atoms: C_7  and  C_8
REMARK    8  A    between atoms: C_8  and  C_9
REMARK    9  A    between atoms: C_10  and  C_11
REMARK   10  A    between atoms: C_11  and  C_12
REMARK   11  A    between atoms: C_12  and  C_13
REMARK   12  A    between atoms: C_13  and  C_14
REMARK   13  A    between atoms: C_14  and  C_15
REMARK   14  A    between atoms: C_15  and  C_16
REMARK   15  A    between atoms: C_16  and  C_17
REMARK   16  A    between atoms: C_17  and  C_18
REMARK   17  A    between atoms: C_18  and  O_20
REMARK   18  A    between atoms: O_20  and  C_21
REMARK                            x       y       z     vdW  Elec       q    Type
REMARK                         _______ _______ _______ _____ _____    ______ ____
ROOT
ATOM      1  C   UNL     1       2.353   7.419  19.220  0.00  0.00    +0.000 C 
ENDROOT
BRANCH   1   2
ATOM      2  C   UNL     1       2.068   8.190  17.942  0.00  0.00    +0.000 C 
BRANCH   2   3
ATOM      3  C   UNL     1       1.791   9.648  18.235  0.00  0.00    +0.000 C 
ATOM      4  O   UNL     1       2.256  10.602  17.624  0.00  0.00    +0.000 OA
BRANCH   3   5
ATOM      5  O   UNL     1       1.005   9.719  19.379  0.00  0.00    +0.000 OA
BRANCH   5   6
ATOM      6  C   UNL     1      -0.242  10.317  19.156  0.00  0.00    +0.000 A 
ATOM      7  C   UNL     1      -0.892  10.067  17.936  0.00  0.00    +0.000 A 
ATOM      8  C   UNL     1      -2.078  10.710  17.623  0.00  0.00    +0.000 A 
ATOM      9  C   UNL     1      -2.628  11.609  18.528  0.00  0.00    +0.000 A 
ATOM     10  C   UNL     1      -1.989  11.861  19.753  0.00  0.00    +0.000 A 
ATOM     11  C   UNL     1      -0.772  11.240  20.063  0.00  0.00    +0.000 A 
ATOM     12  C   UNL     1      -0.079  11.587  21.325  0.00  0.00    +0.000 C 
ATOM     13  O   UNL     1       1.083  11.266  21.527  0.00  0.00    +0.000 OA
ATOM     14  C   UNL     1      -0.847  12.355  22.339  0.00  0.00    +0.000 C 
ATOM     15  C   UNL     1      -2.031  12.907  22.050  0.00  0.00    +0.000 C 
ATOM     16  C   UNL     1      -2.629  12.785  20.709  0.00  0.00    +0.000 C 
ATOM     17  O   UNL     1      -3.635  13.413  20.428  0.00  0.00    +0.000 OA
ENDBRANCH   5   6
ENDBRANCH   3   5
ENDBRANCH   2   3
ENDBRANCH   1   2
BRANCH   1  18
ATOM     18  C   UNL     1       1.891   5.969  19.113  0.00  0.00    +0.000 C 
BRANCH  18  19
ATOM     19  C   UNL     1       2.259   5.432  17.740  0.00  0.00    +0.000 C 
BRANCH  19  20
ATOM     20  C   UNL     1       1.718   4.026  17.508  0.00  0.00    +0.000 C 
BRANCH  20  21
ATOM     21  C   UNL     1       0.835   3.573  18.674  0.00  0.00    +0.000 C 
BRANCH  21  22
ATOM     22  C   UNL     1       1.347   2.320  19.386  0.00  0.00    +0.000 C 
BRANCH  22  24
ATOM     23  C   UNL     1       2.397   3.089  21.536  0.00  0.00    +0.000 C 
ATOM     24  C   UNL     1       1.392   2.496  20.880  0.00  0.00    +0.000 C 
BRANCH  23  25
ATOM     25  C   UNL     1       3.565   3.677  20.819  0.00  0.00    +0.000 C 
BRANCH  25  26
ATOM     26  C   UNL     1       4.315   2.649  19.993  0.00  0.00    +0.000 C 
BRANCH  26  27
ATOM     27  C   UNL     1       5.019   3.357  18.847  0.00  0.00    +0.000 C 
BRANCH  27  28
ATOM     28  C   UNL     1       5.343   4.786  19.236  0.00  0.00    +0.000 C 
BRANCH  28  29
ATOM     29  C   UNL     1       5.974   5.528  18.068  0.00  0.00    +0.000 C 
BRANCH  29  30
ATOM     30  C   UNL     1       7.491   5.462  18.169  0.00  0.00    +0.000 C 
BRANCH  30  32
ATOM     31  C   UNL     1       7.681   7.891  17.602  0.00  0.00    +0.000 C 
ATOM     32  C   UNL     1       8.068   6.807  18.591  0.00  0.00    +0.000 C 
ENDBRANCH  30  32
ENDBRANCH  29  30
ENDBRANCH  28  29
ENDBRANCH  27  28
ENDBRANCH  26  27
ENDBRANCH  25  26
ENDBRANCH  23  25
ENDBRANCH  22  24
ENDBRANCH  21  22
ENDBRANCH  20  21
ENDBRANCH  19  20
ENDBRANCH  18  19
ENDBRANCH   1  18
TORSDOF 17
ENDMDL
MODEL 5
REMARK VINA RESULT:      -6.6      5.411      9.510
REMARK  Name = 
REMARK  18 active torsions:
REMARK  status: ('A' for Active; 'I' for Inactive)
REMARK    1  A    between atoms: C_1  and  C_2
REMARK    2  A    between atoms: C_2  and  C_3
REMARK    3  A    between atoms: C_3  and  C_4
REMARK    4  A    between atoms: C_4  and  C_5
REMARK    5  A    between atoms: C_5  and  C_6
REMARK    6  A    between atoms: C_6  and  C_7
REMARK    7  A    between atoms: C_7  and  C_8
REMARK    8  A    between atoms: C_8  and  C_9
REMARK    9  A    between atoms: C_10  and  C_11
REMARK   10  A    between atoms: C_11  and  C_12
REMARK   11  A    between atoms: C_12  and  C_13
REMARK   12  A    between atoms: C_13  and  C_14
REMARK   13  A    between atoms: C_14  and  C_15
REMARK   14  A    between atoms: C_15  and  C_16
REMARK   15  A    between atoms: C_16  and  C_17
REMARK   16  A    between atoms: C_17  and  C_18
REMARK   17  A    between atoms: C_18  and  O_20
REMARK   18  A    between atoms: O_20  and  C_21
REMARK                            x       y       z     vdW  Elec       q    Type
REMARK                         _______ _______ _______ _____ _____    ______ ____
ROOT
ATOM      1  C   UNL     1       1.980   7.079  18.418  0.00  0.00    +0.000 C 
ENDROOT
BRANCH   1   2
ATOM      2  C   UNL     1       2.252   8.572  18.350  0.00  0.00    +0.000 C 
BRANCH   2   3
ATOM      3  C   UNL     1       1.210   9.351  19.120  0.00  0.00    +0.000 C 
ATOM      4  O   UNL     1       0.767   9.057  20.224  0.00  0.00    +0.000 OA
BRANCH   3   5
ATOM      5  O   UNL     1       0.767  10.395  18.317  0.00  0.00    +0.000 OA
BRANCH   5   6
ATOM      6  C   UNL     1      -0.151  11.235  18.961  0.00  0.00    +0.000 A 
ATOM      7  C   UNL     1       0.303  12.020  20.034  0.00  0.00    +0.000 A 
ATOM      8  C   UNL     1      -0.583  12.792  20.768  0.00  0.00    +0.000 A 
ATOM      9  C   UNL     1      -1.931  12.790  20.435  0.00  0.00    +0.000 A 
ATOM     10  C   UNL     1      -2.393  12.015  19.359  0.00  0.00    +0.000 A 
ATOM     11  C   UNL     1      -1.510  11.204  18.633  0.00  0.00    +0.000 A 
ATOM     12  C   UNL     1      -2.039  10.335  17.558  0.00  0.00    +0.000 C 
ATOM     13  O   UNL     1      -1.364   9.442  17.066  0.00  0.00    +0.000 OA
ATOM     14  C   UNL     1      -3.433  10.578  17.103  0.00  0.00    +0.000 C 
ATOM     15  C   UNL     1      -4.257  11.388  17.775  0.00  0.00    +0.000 C 
ATOM     16  C   UNL     1      -3.824  12.076  19.004  0.00  0.00    +0.000 C 
ATOM     17  O   UNL     1      -4.632  12.695  19.677  0.00  0.00    +0.000 OA
ENDBRANCH   5   6
ENDBRANCH   3   5
ENDBRANCH   2   3
ENDBRANCH   1   2
BRANCH   1  18
ATOM     18  C   UNL     1       2.702   6.431  19.595  0.00  0.00    +0.000 C 
BRANCH  18  19
ATOM     19  C   UNL     1       1.673   5.842  20.545  0.00  0.00    +0.000 C 
BRANCH  19  20
ATOM     20  C   UNL     1       2.201   4.613  21.277  0.00  0.00    +0.000 C 
BRANCH  20  21
ATOM     21  C   UNL     1       1.399   3.362  20.906  0.00  0.00    +0.000 C 
BRANCH  21  22
ATOM     22  C   UNL     1       0.901   3.354  19.459  0.00  0.00    +0.000 C 
BRANCH  22  24
ATOM     23  C   UNL     1       2.644   2.002  18.256  0.00  0.00    +0.000 C 
ATOM     24  C   UNL     1       1.390   2.151  18.698  0.00  0.00    +0.000 C 
BRANCH  23  25
ATOM     25  C   UNL     1       3.699   3.023  18.522  0.00  0.00    +0.000 C 
BRANCH  25  26
ATOM     26  C   UNL     1       4.523   3.339  17.288  0.00  0.00    +0.000 C 
BRANCH  26  27
ATOM     27  C   UNL     1       3.906   4.533  16.576  0.00  0.00    +0.000 C 
BRANCH  27  28
ATOM     28  C   UNL     1       4.842   5.724  16.648  0.00  0.00    +0.000 C 
BRANCH  28  29
ATOM     29  C   UNL     1       6.056   5.503  15.758  0.00  0.00    +0.000 C 
BRANCH  29  30
ATOM     30  C   UNL     1       7.318   5.451  16.606  0.00  0.00    +0.000 C 
BRANCH  30  32
ATOM     31  C   UNL     1       7.815   5.891  19.018  0.00  0.00    +0.000 C 
ATOM     32  C   UNL     1       7.263   6.476  17.731  0.00  0.00    +0.000 C 
ENDBRANCH  30  32
ENDBRANCH  29  30
ENDBRANCH  28  29
ENDBRANCH  27  28
ENDBRANCH  26  27
ENDBRANCH  25  26
ENDBRANCH  23  25
ENDBRANCH  22  24
ENDBRANCH  21  22
ENDBRANCH  20  21
ENDBRANCH  19  20
ENDBRANCH  18  19
ENDBRANCH   1  18
TORSDOF 17
ENDMDL
MODEL 6
REMARK VINA RESULT:      -6.5      2.093      3.442
REMARK  Name = 
REMARK  18 active torsions:
REMARK  status: ('A' for Active; 'I' for Inactive)
REMARK    1  A    between atoms: C_1  and  C_2
REMARK    2  A    between atoms: C_2  and  C_3
REMARK    3  A    between atoms: C_3  and  C_4
REMARK    4  A    between atoms: C_4  and  C_5
REMARK    5  A    between atoms: C_5  and  C_6
REMARK    6  A    between atoms: C_6  and  C_7
REMARK    7  A    between atoms: C_7  and  C_8
REMARK    8  A    between atoms: C_8  and  C_9
REMARK    9  A    between atoms: C_10  and  C_11
REMARK   10  A    between atoms: C_11  and  C_12
REMARK   11  A    between atoms: C_12  and  C_13
REMARK   12  A    between atoms: C_13  and  C_14
REMARK   13  A    between atoms: C_14  and  C_15
REMARK   14  A    between atoms: C_15  and  C_16
REMARK   15  A    between atoms: C_16  and  C_17
REMARK   16  A    between atoms: C_17  and  C_18
REMARK   17  A    between atoms: C_18  and  O_20
REMARK   18  A    between atoms: O_20  and  C_21
REMARK                            x       y       z     vdW  Elec       q    Type
REMARK                         _______ _______ _______ _____ _____    ______ ____
ROOT
ATOM      1  C   UNL     1       7.992   7.266  17.920  0.00  0.00    +0.000 C 
ENDROOT
BRANCH   1   2
ATOM      2  C   UNL     1       6.519   7.326  17.553  0.00  0.00    +0.000 C 
BRANCH   2   3
ATOM      3  C   UNL     1       6.195   6.355  16.439  0.00  0.00    +0.000 C 
ATOM      4  O   UNL     1       7.009   5.820  15.697  0.00  0.00    +0.000 OA
BRANCH   3   5
ATOM      5  O   UNL     1       4.813   6.258  16.336  0.00  0.00    +0.000 OA
BRANCH   5   6
ATOM      6  C   UNL     1       4.264   5.277  17.173  0.00  0.00    +0.000 A 
ATOM      7  C   UNL     1       4.549   3.930  16.896  0.00  0.00    +0.000 A 
ATOM      8  C   UNL     1       3.954   2.917  17.630  0.00  0.00    +0.000 A 
ATOM      9  C   UNL     1       3.068   3.241  18.650  0.00  0.00    +0.000 A 
ATOM     10  C   UNL     1       2.782   4.585  18.938  0.00  0.00    +0.000 A 
ATOM     11  C   UNL     1       3.353   5.615  18.179  0.00  0.00    +0.000 A 
ATOM     12  C   UNL     1       2.969   7.018  18.452  0.00  0.00    +0.000 C 
ATOM     13  O   UNL     1       3.244   7.921  17.674  0.00  0.00    +0.000 OA
ATOM     14  C   UNL     1       2.221   7.292  19.707  0.00  0.00    +0.000 C 
ATOM     15  C   UNL     1       1.717   6.303  20.451  0.00  0.00    +0.000 C 
ATOM     16  C   UNL     1       1.874   4.891  20.060  0.00  0.00    +0.000 C 
ATOM     17  O   UNL     1       1.286   4.017  20.674  0.00  0.00    +0.000 OA
ENDBRANCH   5   6
ENDBRANCH   3   5
ENDBRANCH   2   3
ENDBRANCH   1   2
BRANCH   1  18
ATOM     18  C   UNL     1       8.433   8.521  18.667  0.00  0.00    +0.000 C 
BRANCH  18  19
ATOM     19  C   UNL     1       8.465   9.690  17.697  0.00  0.00    +0.000 C 
BRANCH  19  20
ATOM     20  C   UNL     1       8.935  10.979  18.363  0.00  0.00    +0.000 C 
BRANCH  20  21
ATOM     21  C   UNL     1      10.350  11.351  17.910  0.00  0.00    +0.000 C 
BRANCH  21  22
ATOM     22  C   UNL     1      11.365  11.422  19.053  0.00  0.00    +0.000 C 
BRANCH  22  24
ATOM     23  C   UNL     1      11.434  13.748  20.000  0.00  0.00    +0.000 C 
ATOM     24  C   UNL     1      11.948  12.801  19.207  0.00  0.00    +0.000 C 
BRANCH  23  25
ATOM     25  C   UNL     1      10.233  13.498  20.848  0.00  0.00    +0.000 C 
BRANCH  25  26
ATOM     26  C   UNL     1       9.083  14.428  20.513  0.00  0.00    +0.000 C 
BRANCH  26  27
ATOM     27  C   UNL     1       9.530  15.391  19.424  0.00  0.00    +0.000 C 
BRANCH  27  28
ATOM     28  C   UNL     1       8.845  15.052  18.114  0.00  0.00    +0.000 C 
BRANCH  28  29
ATOM     29  C   UNL     1       7.498  14.393  18.371  0.00  0.00    +0.000 C 
BRANCH  29  30
ATOM     30  C   UNL     1       6.377  15.395  18.134  0.00  0.00    +0.000 C 
BRANCH  30  32
ATOM     31  C   UNL     1       4.210  14.872  19.269  0.00  0.00    +0.000 C 
ATOM     32  C   UNL     1       5.033  14.689  18.008  0.00  0.00    +0.000 C 
ENDBRANCH  30  32
ENDBRANCH  29  30
ENDBRANCH  28  29
ENDBRANCH  27  28
ENDBRANCH  26  27
ENDBRANCH  25  26
ENDBRANCH  23  25
ENDBRANCH  22  24
ENDBRANCH  21  22
ENDBRANCH  20  21
ENDBRANCH  19  20
ENDBRANCH  18  19
ENDBRANCH   1  18
TORSDOF 17
ENDMDL
MODEL 7
REMARK VINA RESULT:      -6.5      5.571     10.164
REMARK  Name = 
REMARK  18 active torsions:
REMARK  status: ('A' for Active; 'I' for Inactive)
REMARK    1  A    between atoms: C_1  and  C_2
REMARK    2  A    between atoms: C_2  and  C_3
REMARK    3  A    between atoms: C_3  and  C_4
REMARK    4  A    between atoms: C_4  and  C_5
REMARK    5  A    between atoms: C_5  and  C_6
REMARK    6  A    between atoms: C_6  and  C_7
REMARK    7  A    between atoms: C_7  and  C_8
REMARK    8  A    between atoms: C_8  and  C_9
REMARK    9  A    between atoms: C_10  and  C_11
REMARK   10  A    between atoms: C_11  and  C_12
REMARK   11  A    between atoms: C_12  and  C_13
REMARK   12  A    between atoms: C_13  and  C_14
REMARK   13  A    between atoms: C_14  and  C_15
REMARK   14  A    between atoms: C_15  and  C_16
REMARK   15  A    between atoms: C_16  and  C_17
REMARK   16  A    between atoms: C_17  and  C_18
REMARK   17  A    between atoms: C_18  and  O_20
REMARK   18  A    between atoms: O_20  and  C_21
REMARK                            x       y       z     vdW  Elec       q    Type
REMARK                         _______ _______ _______ _____ _____    ______ ____
ROOT
ATOM      1  C   UNL     1       2.021   8.677  18.743  0.00  0.00    +0.000 C 
ENDROOT
BRANCH   1   2
ATOM      2  C   UNL     1       1.060   9.185  19.805  0.00  0.00    +0.000 C 
BRANCH   2   3
ATOM      3  C   UNL     1       0.316  10.411  19.326  0.00  0.00    +0.000 C 
ATOM      4  O   UNL     1      -0.458  10.453  18.378  0.00  0.00    +0.000 OA
BRANCH   3   5
ATOM      5  O   UNL     1       0.743  11.499  20.077  0.00  0.00    +0.000 OA
BRANCH   5   6
ATOM      6  C   UNL     1      -0.148  11.846  21.101  0.00  0.00    +0.000 A 
ATOM      7  C   UNL     1      -0.404  10.903  22.110  0.00  0.00    +0.000 A 
ATOM      8  C   UNL     1      -1.350  11.156  23.090  0.00  0.00    +0.000 A 
ATOM      9  C   UNL     1      -2.049  12.356  23.072  0.00  0.00    +0.000 A 
ATOM     10  C   UNL     1      -1.796  13.308  22.071  0.00  0.00    +0.000 A 
ATOM     11  C   UNL     1      -0.865  13.046  21.057  0.00  0.00    +0.000 A 
ATOM     12  C   UNL     1      -0.679  14.033  19.969  0.00  0.00    +0.000 C 
ATOM     13  O   UNL     1      -0.071  13.751  18.946  0.00  0.00    +0.000 OA
ATOM     14  C   UNL     1      -1.271  15.382  20.159  0.00  0.00    +0.000 C 
ATOM     15  C   UNL     1      -2.124  15.638  21.156  0.00  0.00    +0.000 C 
ATOM     16  C   UNL     1      -2.523  14.591  22.114  0.00  0.00    +0.000 C 
ATOM     17  O   UNL     1      -3.407  14.807  22.925  0.00  0.00    +0.000 OA
ENDBRANCH   5   6
ENDBRANCH   3   5
ENDBRANCH   2   3
ENDBRANCH   1   2
BRANCH   1  18
ATOM     18  C   UNL     1       2.378   7.211  18.967  0.00  0.00    +0.000 C 
BRANCH  18  19
ATOM     19  C   UNL     1       1.978   6.813  20.377  0.00  0.00    +0.000 C 
BRANCH  19  20
ATOM     20  C   UNL     1       1.440   5.388  20.444  0.00  0.00    +0.000 C 
BRANCH  20  21
ATOM     21  C   UNL     1       2.427   4.457  21.155  0.00  0.00    +0.000 C 
BRANCH  21  22
ATOM     22  C   UNL     1       2.042   2.977  21.081  0.00  0.00    +0.000 C 
BRANCH  22  24
ATOM     23  C   UNL     1       1.428   2.473  18.697  0.00  0.00    +0.000 C 
ATOM     24  C   UNL     1       1.070   2.699  19.967  0.00  0.00    +0.000 C 
BRANCH  23  25
ATOM     25  C   UNL     1       2.859   2.436  18.279  0.00  0.00    +0.000 C 
BRANCH  25  26
ATOM     26  C   UNL     1       3.123   3.277  17.044  0.00  0.00    +0.000 C 
BRANCH  26  27
ATOM     27  C   UNL     1       3.944   4.493  17.443  0.00  0.00    +0.000 C 
BRANCH  27  28
ATOM     28  C   UNL     1       4.988   4.104  18.472  0.00  0.00    +0.000 C 
BRANCH  28  29
ATOM     29  C   UNL     1       5.457   5.326  19.247  0.00  0.00    +0.000 C 
BRANCH  29  30
ATOM     30  C   UNL     1       6.976   5.342  19.321  0.00  0.00    +0.000 C 
BRANCH  30  32
ATOM     31  C   UNL     1       7.281   7.009  17.481  0.00  0.00    +0.000 C 
ATOM     32  C   UNL     1       7.587   5.599  17.950  0.00  0.00    +0.000 C 
ENDBRANCH  30  32
ENDBRANCH  29  30
ENDBRANCH  28  29
ENDBRANCH  27  28
ENDBRANCH  26  27
ENDBRANCH  25  26
ENDBRANCH  23  25
ENDBRANCH  22  24
ENDBRANCH  21  22
ENDBRANCH  20  21
ENDBRANCH  19  20
ENDBRANCH  18  19
ENDBRANCH   1  18
TORSDOF 17
ENDMDL
MODEL 8
REMARK VINA RESULT:      -6.5      1.330      2.092
REMARK  Name = 
REMARK  18 active torsions:
REMARK  status: ('A' for Active; 'I' for Inactive)
REMARK    1  A    between atoms: C_1  and  C_2
REMARK    2  A    between atoms: C_2  and  C_3
REMARK    3  A    between atoms: C_3  and  C_4
REMARK    4  A    between atoms: C_4  and  C_5
REMARK    5  A    between atoms: C_5  and  C_6
REMARK    6  A    between atoms: C_6  and  C_7
REMARK    7  A    between atoms: C_7  and  C_8
REMARK    8  A    between atoms: C_8  and  C_9
REMARK    9  A    between atoms: C_10  and  C_11
REMARK   10  A    between atoms: C_11  and  C_12
REMARK   11  A    between atoms: C_12  and  C_13
REMARK   12  A    between atoms: C_13  and  C_14
REMARK   13  A    between atoms: C_14  and  C_15
REMARK   14  A    between atoms: C_15  and  C_16
REMARK   15  A    between atoms: C_16  and  C_17
REMARK   16  A    between atoms: C_17  and  C_18
REMARK   17  A    between atoms: C_18  and  O_20
REMARK   18  A    between atoms: O_20  and  C_21
REMARK                            x       y       z     vdW  Elec       q    Type
REMARK                         _______ _______ _______ _____ _____    ______ ____
ROOT
ATOM      1  C   UNL     1       8.353   8.114  17.762  0.00  0.00    +0.000 C 
ENDROOT
BRANCH   1   2
ATOM      2  C   UNL     1       7.084   7.375  17.373  0.00  0.00    +0.000 C 
BRANCH   2   3
ATOM      3  C   UNL     1       6.876   6.154  18.241  0.00  0.00    +0.000 C 
ATOM      4  O   UNL     1       7.509   5.879  19.253  0.00  0.00    +0.000 OA
BRANCH   3   5
ATOM      5  O   UNL     1       5.918   5.350  17.637  0.00  0.00    +0.000 OA
BRANCH   5   6
ATOM      6  C   UNL     1       4.608   5.675  18.011  0.00  0.00    +0.000 A 
ATOM      7  C   UNL     1       4.089   6.917  17.612  0.00  0.00    +0.000 A 
ATOM      8  C   UNL     1       2.837   7.330  18.038  0.00  0.00    +0.000 A 
ATOM      9  C   UNL     1       2.090   6.503  18.867  0.00  0.00    +0.000 A 
ATOM     10  C   UNL     1       2.597   5.256  19.267  0.00  0.00    +0.000 A 
ATOM     11  C   UNL     1       3.876   4.845  18.868  0.00  0.00    +0.000 A 
ATOM     12  C   UNL     1       4.418   3.563  19.372  0.00  0.00    +0.000 C 
ATOM     13  O   UNL     1       5.601   3.278  19.255  0.00  0.00    +0.000 OA
ATOM     14  C   UNL     1       3.470   2.634  20.040  0.00  0.00    +0.000 C 
ATOM     15  C   UNL     1       2.234   3.018  20.377  0.00  0.00    +0.000 C 
ATOM     16  C   UNL     1       1.754   4.385  20.108  0.00  0.00    +0.000 C 
ATOM     17  O   UNL     1       0.680   4.755  20.550  0.00  0.00    +0.000 OA
ENDBRANCH   5   6
ENDBRANCH   3   5
ENDBRANCH   2   3
ENDBRANCH   1   2
BRANCH   1  18
ATOM     18  C   UNL     1       8.055   9.543  18.205  0.00  0.00    +0.000 C 
BRANCH  18  19
ATOM     19  C   UNL     1       9.183  10.032  19.097  0.00  0.00    +0.000 C 
BRANCH  19  20
ATOM     20  C   UNL     1       9.902  11.241  18.508  0.00  0.00    +0.000 C 
BRANCH  20  21
ATOM     21  C   UNL     1      11.207  11.526  19.255  0.00  0.00    +0.000 C 
BRANCH  21  22
ATOM     22  C   UNL     1      12.149  12.476  18.511  0.00  0.00    +0.000 C 
BRANCH  22  24
ATOM     23  C   UNL     1      11.479  14.140  16.751  0.00  0.00    +0.000 C 
ATOM     24  C   UNL     1      11.606  12.873  17.165  0.00  0.00    +0.000 C 
BRANCH  23  25
ATOM     25  C   UNL     1      11.913  15.290  17.595  0.00  0.00    +0.000 C 
BRANCH  25  26
ATOM     26  C   UNL     1      10.765  15.904  18.373  0.00  0.00    +0.000 C 
BRANCH  26  27
ATOM     27  C   UNL     1      11.009  15.692  19.860  0.00  0.00    +0.000 C 
BRANCH  27  28
ATOM     28  C   UNL     1       9.983  14.728  20.424  0.00  0.00    +0.000 C 
BRANCH  28  29
ATOM     29  C   UNL     1      10.078  14.676  21.942  0.00  0.00    +0.000 C 
BRANCH  29  30
ATOM     30  C   UNL     1       8.708  14.387  22.538  0.00  0.00    +0.000 C 
BRANCH  30  32
ATOM     31  C   UNL     1       8.612  11.896  22.329  0.00  0.00    +0.000 C 
ATOM     32  C   UNL     1       8.043  13.212  21.832  0.00  0.00    +0.000 C 
ENDBRANCH  30  32
ENDBRANCH  29  30
ENDBRANCH  28  29
ENDBRANCH  27  28
ENDBRANCH  26  27
ENDBRANCH  25  26
ENDBRANCH  23  25
ENDBRANCH  22  24
ENDBRANCH  21  22
ENDBRANCH  20  21
ENDBRANCH  19  20
ENDBRANCH  18  19
ENDBRANCH   1  18
TORSDOF 17
ENDMDL
MODEL 9
REMARK VINA RESULT:      -6.5      5.649      9.406
REMARK  Name = 
REMARK  18 active torsions:
REMARK  status: ('A' for Active; 'I' for Inactive)
REMARK    1  A    between atoms: C_1  and  C_2
REMARK    2  A    between atoms: C_2  and  C_3
REMARK    3  A    between atoms: C_3  and  C_4
REMARK    4  A    between atoms: C_4  and  C_5
REMARK    5  A    between atoms: C_5  and  C_6
REMARK    6  A    between atoms: C_6  and  C_7
REMARK    7  A    between atoms: C_7  and  C_8
REMARK    8  A    between atoms: C_8  and  C_9
REMARK    9  A    between atoms: C_10  and  C_11
REMARK   10  A    between atoms: C_11  and  C_12
REMARK   11  A    between atoms: C_12  and  C_13
REMARK   12  A    between atoms: C_13  and  C_14
REMARK   13  A    between atoms: C_14  and  C_15
REMARK   14  A    between atoms: C_15  and  C_16
REMARK   15  A    between atoms: C_16  and  C_17
REMARK   16  A    between atoms: C_17  and  C_18
REMARK   17  A    between atoms: C_18  and  O_20
REMARK   18  A    between atoms: O_20  and  C_21
REMARK                            x       y       z     vdW  Elec       q    Type
REMARK                         _______ _______ _______ _____ _____    ______ ____
ROOT
ATOM      1  C   UNL     1       1.654   7.102  19.532  0.00  0.00    +0.000 C 
ENDROOT
BRANCH   1   2
ATOM      2  C   UNL     1       1.936   8.146  20.600  0.00  0.00    +0.000 C 
BRANCH   2   3
ATOM      3  C   UNL     1       0.652   8.702  21.171  0.00  0.00    +0.000 C 
ATOM      4  O   UNL     1      -0.356   8.055  21.428  0.00  0.00    +0.000 OA
BRANCH   3   5
ATOM      5  O   UNL     1       0.775  10.083  21.255  0.00  0.00    +0.000 OA
BRANCH   5   6
ATOM      6  C   UNL     1      -0.204  10.770  20.526  0.00  0.00    +0.000 A 
ATOM      7  C   UNL     1      -0.066  10.846  19.131  0.00  0.00    +0.000 A 
ATOM      8  C   UNL     1      -0.951  11.596  18.373  0.00  0.00    +0.000 A 
ATOM      9  C   UNL     1      -1.984  12.277  19.004  0.00  0.00    +0.000 A 
ATOM     10  C   UNL     1      -2.135  12.202  20.398  0.00  0.00    +0.000 A 
ATOM     11  C   UNL     1      -1.224  11.473  21.175  0.00  0.00    +0.000 A 
ATOM     12  C   UNL     1      -1.359  11.480  22.650  0.00  0.00    +0.000 C 
ATOM     13  O   UNL     1      -0.465  11.070  23.376  0.00  0.00    +0.000 OA
ATOM     14  C   UNL     1      -2.622  12.017  23.220  0.00  0.00    +0.000 C 
ATOM     15  C   UNL     1      -3.508  12.672  22.463  0.00  0.00    +0.000 C 
ATOM     16  C   UNL     1      -3.273  12.899  21.026  0.00  0.00    +0.000 C 
ATOM     17  O   UNL     1      -4.023  13.619  20.389  0.00  0.00    +0.000 OA
ENDBRANCH   5   6
ENDBRANCH   3   5
ENDBRANCH   2   3
ENDBRANCH   1   2
BRANCH   1  18
ATOM     18  C   UNL     1       2.325   7.459  18.209  0.00  0.00    +0.000 C 
BRANCH  18  19
ATOM     19  C   UNL     1       3.760   6.962  18.231  0.00  0.00    +0.000 C 
BRANCH  19  20
ATOM     20  C   UNL     1       4.414   7.028  16.855  0.00  0.00    +0.000 C 
BRANCH  20  21
ATOM     21  C   UNL     1       5.936   7.155  16.972  0.00  0.00    +0.000 C 
BRANCH  21  22
ATOM     22  C   UNL     1       6.646   5.828  17.253  0.00  0.00    +0.000 C 
BRANCH  22  24
ATOM     23  C   UNL     1       5.523   3.738  16.426  0.00  0.00    +0.000 C 
ATOM     24  C   UNL     1       6.329   4.785  16.216  0.00  0.00    +0.000 C 
BRANCH  23  25
ATOM     25  C   UNL     1       4.821   3.535  17.727  0.00  0.00    +0.000 C 
BRANCH  25  26
ATOM     26  C   UNL     1       3.558   2.708  17.580  0.00  0.00    +0.000 C 
BRANCH  26  27
ATOM     27  C   UNL     1       2.466   3.579  16.977  0.00  0.00    +0.000 C 
BRANCH  27  28
ATOM     28  C   UNL     1       1.309   3.710  17.948  0.00  0.00    +0.000 C 
BRANCH  28  29
ATOM     29  C   UNL     1       1.161   2.442  18.776  0.00  0.00    +0.000 C 
BRANCH  29  30
ATOM     30  C   UNL     1       0.565   2.777  20.136  0.00  0.00    +0.000 C 
BRANCH  30  32
ATOM     31  C   UNL     1       2.362   3.646  21.644  0.00  0.00    +0.000 C 
ATOM     32  C   UNL     1       1.215   4.022  20.725  0.00  0.00    +0.000 C 
ENDBRANCH  30  32
ENDBRANCH  29  30
ENDBRANCH  28  29
ENDBRANCH  27  28
ENDBRANCH  26  27
ENDBRANCH  25  26
ENDBRANCH  23  25
ENDBRANCH  22  24
ENDBRANCH  21  22
ENDBRANCH  20  21
ENDBRANCH  19  20
ENDBRANCH  18  19
ENDBRANCH   1  18
TORSDOF 17
ENDMDL
