MODEL 1
REMARK VINA RESULT:      -6.7      0.000      0.000
REMARK  Name = 
REMARK  1 active torsions:
REMARK  status: ('A' for Active; 'I' for Inactive)
REMARK    1  A    between atoms: N_1  and  C_2
REMARK                            x       y       z     vdW  Elec       q    Type
REMARK                         _______ _______ _______ _____ _____    ______ ____
ROOT
ATOM      1  C   UNL     1       5.485   4.017  18.331  0.00  0.00    +0.000 C 
ATOM      2  C   UNL     1       4.791   4.085  16.963  0.00  0.00    +0.000 C 
ATOM      3  C   UNL     1       4.651   5.601  16.717  0.00  0.00    +0.000 C 
ATOM      4  C   UNL     1       4.519   6.237  18.110  0.00  0.00    +0.000 C 
ATOM      5  C   UNL     1       4.638   5.063  19.093  0.00  0.00    +0.000 C 
ATOM      6  C   UNL     1       3.247   4.492  19.331  0.00  0.00    +0.000 A 
ATOM      7  C   UNL     1       2.530   4.807  20.492  0.00  0.00    +0.000 A 
ATOM      8  C   UNL     1       1.259   4.273  20.691  0.00  0.00    +0.000 A 
ATOM      9  C   UNL     1       0.700   3.426  19.733  0.00  0.00    +0.000 A 
ATOM     10  C   UNL     1       1.398   3.130  18.562  0.00  0.00    +0.000 A 
ATOM     11  C   UNL     1       2.666   3.678  18.344  0.00  0.00    +0.000 A 
ATOM     12  C   UNL     1       3.422   3.370  17.067  0.00  0.00    +0.000 C 
ENDROOT
BRANCH   1  13
ATOM     13  N   UNL     1       6.899   4.388  18.221  0.00  0.00    +0.000 NA
ATOM     14  H   UNL     1       6.976   5.404  18.179  0.00  0.00    +0.000 HD
ATOM     15  H   UNL     1       7.270   4.036  17.338  0.00  0.00    +0.000 HD
ENDBRANCH   1  13
TORSDOF 1
ENDMDL
MODEL 2
REMARK VINA RESULT:      -6.6      1.361      1.681
REMARK  Name = 
REMARK  1 active torsions:
REMARK  status: ('A' for Active; 'I' for Inactive)
REMARK    1  A    between atoms: N_1  and  C_2
REMARK                            x       y       z     vdW  Elec       q    Type
REMARK                         _______ _______ _______ _____ _____    ______ ____
ROOT
ATOM      1  C   UNL     1       4.444   3.649  17.367  0.00  0.00    +0.000 C 
ATOM      2  C   UNL     1       3.730   5.005  17.273  0.00  0.00    +0.000 C 
ATOM      3  C   UNL     1       4.638   5.936  18.102  0.00  0.00    +0.000 C 
ATOM      4  C   UNL     1       5.280   5.043  19.175  0.00  0.00    +0.000 C 
ATOM      5  C   UNL     1       4.749   3.631  18.883  0.00  0.00    +0.000 C 
ATOM      6  C   UNL     1       3.447   3.440  19.646  0.00  0.00    +0.000 A 
ATOM      7  C   UNL     1       3.416   2.717  20.845  0.00  0.00    +0.000 A 
ATOM      8  C   UNL     1       2.212   2.553  21.527  0.00  0.00    +0.000 A 
ATOM      9  C   UNL     1       1.038   3.109  21.017  0.00  0.00    +0.000 A 
ATOM     10  C   UNL     1       1.068   3.853  19.836  0.00  0.00    +0.000 A 
ATOM     11  C   UNL     1       2.274   4.041  19.156  0.00  0.00    +0.000 A 
ATOM     12  C   UNL     1       2.313   4.860  17.881  0.00  0.00    +0.000 C 
ENDROOT
BRANCH   1  13
ATOM     13  N   UNL     1       5.651   3.634  16.534  0.00  0.00    +0.000 NA
ATOM     14  H   UNL     1       5.384   3.736  15.556  0.00  0.00    +0.000 HD
ATOM     15  H   UNL     1       6.102   2.723  16.616  0.00  0.00    +0.000 HD
ENDBRANCH   1  13
TORSDOF 1
ENDMDL
MODEL 3
REMARK VINA RESULT:      -6.6      1.846      2.973
REMARK  Name = 
REMARK  1 active torsions:
REMARK  status: ('A' for Active; 'I' for Inactive)
REMARK    1  A    between atoms: N_1  and  C_2
REMARK                            x       y       z     vdW  Elec       q    Type
REMARK                         _______ _______ _______ _____ _____    ______ ____
ROOT
ATOM      1  C   UNL     1       6.100   5.514  15.740  0.00  0.00    +0.000 C 
ATOM      2  C   UNL     1       6.087   6.626  16.798  0.00  0.00    +0.000 C 
ATOM      3  C   UNL     1       6.973   6.050  17.922  0.00  0.00    +0.000 C 
ATOM      4  C   UNL     1       6.797   4.525  17.850  0.00  0.00    +0.000 C 
ATOM      5  C   UNL     1       5.856   4.293  16.657  0.00  0.00    +0.000 C 
ATOM      6  C   UNL     1       4.421   4.335  17.162  0.00  0.00    +0.000 A 
ATOM      7  C   UNL     1       3.702   3.154  17.384  0.00  0.00    +0.000 A 
ATOM      8  C   UNL     1       2.389   3.216  17.846  0.00  0.00    +0.000 A 
ATOM      9  C   UNL     1       1.790   4.453  18.088  0.00  0.00    +0.000 A 
ATOM     10  C   UNL     1       2.511   5.632  17.894  0.00  0.00    +0.000 A 
ATOM     11  C   UNL     1       3.836   5.580  17.452  0.00  0.00    +0.000 A 
ATOM     12  C   UNL     1       4.626   6.858  17.253  0.00  0.00    +0.000 C 
ENDROOT
BRANCH   1  13
ATOM     13  N   UNL     1       7.392   5.465  15.046  0.00  0.00    +0.000 NA
ATOM     14  H   UNL     1       7.233   5.276  14.057  0.00  0.00    +0.000 HD
ATOM     15  H   UNL     1       7.935   4.681  15.405  0.00  0.00    +0.000 HD
ENDBRANCH   1  13
TORSDOF 1
ENDMDL
MODEL 4
REMARK VINA RESULT:      -6.5      1.894      4.310
REMARK  Name = 
REMARK  1 active torsions:
REMARK  status: ('A' for Active; 'I' for Inactive)
REMARK    1  A    between atoms: N_1  and  C_2
REMARK                            x       y       z     vdW  Elec       q    Type
REMARK                         _______ _______ _______ _____ _____    ______ ____
ROOT
ATOM      1  C   UNL     1       2.906   3.508  20.943  0.00  0.00    +0.000 C 
ATOM      2  C   UNL     1       1.768   4.523  20.761  0.00  0.00    +0.000 C 
ATOM      3  C   UNL     1       0.697   3.714  19.999  0.00  0.00    +0.000 C 
ATOM      4  C   UNL     1       1.471   2.687  19.159  0.00  0.00    +0.000 C 
ATOM      5  C   UNL     1       2.949   2.920  19.512  0.00  0.00    +0.000 C 
ATOM      6  C   UNL     1       3.509   3.971  18.565  0.00  0.00    +0.000 A 
ATOM      7  C   UNL     1       4.295   3.601  17.466  0.00  0.00    +0.000 A 
ATOM      8  C   UNL     1       4.800   4.579  16.612  0.00  0.00    +0.000 A 
ATOM      9  C   UNL     1       4.521   5.926  16.849  0.00  0.00    +0.000 A 
ATOM     10  C   UNL     1       3.716   6.298  17.926  0.00  0.00    +0.000 A 
ATOM     11  C   UNL     1       3.188   5.323  18.777  0.00  0.00    +0.000 A 
ATOM     12  C   UNL     1       2.302   5.722  19.940  0.00  0.00    +0.000 C 
ENDROOT
BRANCH   1  13
ATOM     13  N   UNL     1       2.563   2.514  21.965  0.00  0.00    +0.000 NA
ATOM     14  H   UNL     1       3.214   1.732  21.903  0.00  0.00    +0.000 HD
ATOM     15  H   UNL     1       1.638   2.134  21.765  0.00  0.00    +0.000 HD
ENDBRANCH   1  13
TORSDOF 1
ENDMDL
MODEL 5
REMARK VINA RESULT:      -6.5      2.265      4.271
REMARK  Name = 
REMARK  1 active torsions:
REMARK  status: ('A' for Active; 'I' for Inactive)
REMARK    1  A    between atoms: N_1  and  C_2
REMARK                            x       y       z     vdW  Elec       q    Type
REMARK                         _______ _______ _______ _____ _____    ______ ____
ROOT
ATOM      1  C   UNL     1       1.664   2.566  18.526  0.00  0.00    +0.000 C 
ATOM      2  C   UNL     1       2.405   2.244  19.832  0.00  0.00    +0.000 C 
ATOM      3  C   UNL     1       1.648   3.087  20.879  0.00  0.00    +0.000 C 
ATOM      4  C   UNL     1       1.126   4.319  20.123  0.00  0.00    +0.000 C 
ATOM      5  C   UNL     1       1.565   4.103  18.666  0.00  0.00    +0.000 C 
ATOM      6  C   UNL     1       2.951   4.705  18.488  0.00  0.00    +0.000 A 
ATOM      7  C   UNL     1       3.119   5.956  17.882  0.00  0.00    +0.000 A 
ATOM      8  C   UNL     1       4.398   6.488  17.728  0.00  0.00    +0.000 A 
ATOM      9  C   UNL     1       5.510   5.775  18.177  0.00  0.00    +0.000 A 
ATOM     10  C   UNL     1       5.347   4.540  18.806  0.00  0.00    +0.000 A 
ATOM     11  C   UNL     1       4.067   4.008  18.985  0.00  0.00    +0.000 A 
ATOM     12  C   UNL     1       3.884   2.674  19.679  0.00  0.00    +0.000 C 
ENDROOT
BRANCH   1  13
ATOM     13  N   UNL     1       0.356   1.904  18.488  0.00  0.00    +0.000 NA
ATOM     14  H   UNL     1       0.492   0.899  18.383  0.00  0.00    +0.000 HD
ATOM     15  H   UNL     1      -0.151   2.213  17.660  0.00  0.00    +0.000 HD
ENDBRANCH   1  13
TORSDOF 1
ENDMDL
MODEL 6
REMARK VINA RESULT:      -6.4      1.812      3.555
REMARK  Name = 
REMARK  1 active torsions:
REMARK  status: ('A' for Active; 'I' for Inactive)
REMARK    1  A    between atoms: N_1  and  C_2
REMARK                            x       y       z     vdW  Elec       q    Type
REMARK                         _______ _______ _______ _____ _____    ______ ____
ROOT
ATOM      1  C   UNL     1       4.200   2.989  19.784  0.00  0.00    +0.000 C 
ATOM      2  C   UNL     1       2.783   2.779  20.337  0.00  0.00    +0.000 C 
ATOM      3  C   UNL     1       2.025   2.176  19.136  0.00  0.00    +0.000 C 
ATOM      4  C   UNL     1       2.700   2.758  17.884  0.00  0.00    +0.000 C 
ATOM      5  C   UNL     1       3.845   3.630  18.422  0.00  0.00    +0.000 C 
ATOM      6  C   UNL     1       3.308   5.033  18.663  0.00  0.00    +0.000 A 
ATOM      7  C   UNL     1       3.552   6.064  17.747  0.00  0.00    +0.000 A 
ATOM      8  C   UNL     1       3.052   7.342  17.988  0.00  0.00    +0.000 A 
ATOM      9  C   UNL     1       2.307   7.595  19.140  0.00  0.00    +0.000 A 
ATOM     10  C   UNL     1       2.037   6.565  20.043  0.00  0.00    +0.000 A 
ATOM     11  C   UNL     1       2.517   5.275  19.800  0.00  0.00    +0.000 A 
ATOM     12  C   UNL     1       2.214   4.152  20.771  0.00  0.00    +0.000 C 
ENDROOT
BRANCH   1  13
ATOM     13  N   UNL     1       4.906   1.710  19.653  0.00  0.00    +0.000 NA
ATOM     14  H   UNL     1       4.855   1.397  18.685  0.00  0.00    +0.000 HD
ATOM     15  H   UNL     1       4.425   1.004  20.209  0.00  0.00    +0.000 HD
ENDBRANCH   1  13
TORSDOF 1
ENDMDL
MODEL 7
REMARK VINA RESULT:      -6.4      2.297      4.035
REMARK  Name = 
REMARK  1 active torsions:
REMARK  status: ('A' for Active; 'I' for Inactive)
REMARK    1  A    between atoms: N_1  and  C_2
REMARK                            x       y       z     vdW  Elec       q    Type
REMARK                         _______ _______ _______ _____ _____    ______ ____
ROOT
ATOM      1  C   UNL     1       1.468   3.035  18.155  0.00  0.00    +0.000 C 
ATOM      2  C   UNL     1       2.822   2.364  18.433  0.00  0.00    +0.000 C 
ATOM      3  C   UNL     1       3.001   2.558  19.953  0.00  0.00    +0.000 C 
ATOM      4  C   UNL     1       2.271   3.866  20.295  0.00  0.00    +0.000 C 
ATOM      5  C   UNL     1       1.664   4.338  18.964  0.00  0.00    +0.000 C 
ATOM      6  C   UNL     1       2.687   5.212  18.253  0.00  0.00    +0.000 A 
ATOM      7  C   UNL     1       2.583   6.608  18.281  0.00  0.00    +0.000 A 
ATOM      8  C   UNL     1       3.530   7.389  17.621  0.00  0.00    +0.000 A 
ATOM      9  C   UNL     1       4.581   6.781  16.935  0.00  0.00    +0.000 A 
ATOM     10  C   UNL     1       4.706   5.391  16.927  0.00  0.00    +0.000 A 
ATOM     11  C   UNL     1       3.773   4.600  17.603  0.00  0.00    +0.000 A 
ATOM     12  C   UNL     1       3.912   3.090  17.608  0.00  0.00    +0.000 C 
ENDROOT
BRANCH   1  13
ATOM     13  N   UNL     1       0.362   2.208  18.649  0.00  0.00    +0.000 NA
ATOM     14  H   UNL     1      -0.518   2.695  18.486  0.00  0.00    +0.000 HD
ATOM     15  H   UNL     1       0.450   2.102  19.659  0.00  0.00    +0.000 HD
ENDBRANCH   1  13
TORSDOF 1
ENDMDL
MODEL 8
REMARK VINA RESULT:      -6.4      1.979      3.079
REMARK  Name = 
REMARK  1 active torsions:
REMARK  status: ('A' for Active; 'I' for Inactive)
REMARK    1  A    between atoms: N_1  and  C_2
REMARK                            x       y       z     vdW  Elec       q    Type
REMARK                         _______ _______ _______ _____ _____    ______ ____
ROOT
ATOM      1  C   UNL     1       6.807   4.854  17.180  0.00  0.00    +0.000 C 
ATOM      2  C   UNL     1       7.088   6.356  17.036  0.00  0.00    +0.000 C 
ATOM      3  C   UNL     1       7.798   6.708  18.360  0.00  0.00    +0.000 C 
ATOM      4  C   UNL     1       7.231   5.736  19.406  0.00  0.00    +0.000 C 
ATOM      5  C   UNL     1       6.257   4.839  18.626  0.00  0.00    +0.000 C 
ATOM      6  C   UNL     1       4.885   5.496  18.638  0.00  0.00    +0.000 A 
ATOM      7  C   UNL     1       3.885   5.055  19.513  0.00  0.00    +0.000 A 
ATOM      8  C   UNL     1       2.634   5.669  19.507  0.00  0.00    +0.000 A 
ATOM      9  C   UNL     1       2.379   6.724  18.630  0.00  0.00    +0.000 A 
ATOM     10  C   UNL     1       3.380   7.186  17.775  0.00  0.00    +0.000 A 
ATOM     11  C   UNL     1       4.644   6.590  17.788  0.00  0.00    +0.000 A 
ATOM     12  C   UNL     1       5.738   7.097  16.871  0.00  0.00    +0.000 C 
ENDROOT
BRANCH   1  13
ATOM     13  N   UNL     1       8.039   4.073  17.023  0.00  0.00    +0.000 NA
ATOM     14  H   UNL     1       8.679   4.302  17.782  0.00  0.00    +0.000 HD
ATOM     15  H   UNL     1       8.504   4.353  16.160  0.00  0.00    +0.000 HD
ENDBRANCH   1  13
TORSDOF 1
ENDMDL
MODEL 9
REMARK VINA RESULT:      -6.3      1.788      4.328
REMARK  Name = 
REMARK  1 active torsions:
REMARK  status: ('A' for Active; 'I' for Inactive)
REMARK    1  A    between atoms: N_1  and  C_2
REMARK                            x       y       z     vdW  Elec       q    Type
REMARK                         _______ _______ _______ _____ _____    ______ ____
ROOT
ATOM      1  C   UNL     1       3.554   3.626  19.487  0.00  0.00    +0.000 C 
ATOM      2  C   UNL     1       2.361   4.577  19.310  0.00  0.00    +0.000 C 
ATOM      3  C   UNL     1       1.407   3.775  18.401  0.00  0.00    +0.000 C 
ATOM      4  C   UNL     1       2.310   2.884  17.534  0.00  0.00    +0.000 C 
ATOM      5  C   UNL     1       3.739   3.180  18.018  0.00  0.00    +0.000 C 
ATOM      6  C   UNL     1       4.286   4.349  17.212  0.00  0.00    +0.000 A 
ATOM      7  C   UNL     1       5.172   4.137  16.148  0.00  0.00    +0.000 A 
ATOM      8  C   UNL     1       5.662   5.222  15.425  0.00  0.00    +0.000 A 
ATOM      9  C   UNL     1       5.271   6.519  15.759  0.00  0.00    +0.000 A 
ATOM     10  C   UNL     1       4.368   6.735  16.801  0.00  0.00    +0.000 A 
ATOM     11  C   UNL     1       3.854   5.651  17.519  0.00  0.00    +0.000 A 
ATOM     12  C   UNL     1       2.863   5.880  18.642  0.00  0.00    +0.000 C 
ENDROOT
BRANCH   1  13
ATOM     13  N   UNL     1       3.214   2.521  20.388  0.00  0.00    +0.000 NA
ATOM     14  H   UNL     1       2.301   2.697  20.805  0.00  0.00    +0.000 HD
ATOM     15  H   UNL     1       3.882   2.500  21.158  0.00  0.00    +0.000 HD
ENDBRANCH   1  13
TORSDOF 1
ENDMDL
