MODEL 1
REMARK VINA RESULT:      -7.8      0.000      0.000
REMARK  Name = 
REMARK  5 active torsions:
REMARK  status: ('A' for Active; 'I' for Inactive)
REMARK    1  A    between atoms: C_1  and  N_2
REMARK    2  A    between atoms: C_6  and  C_7
REMARK    3  A    between atoms: C_7  and  N_8
REMARK    4  A    between atoms: N_8  and  C_9
REMARK    5  A    between atoms: C_9  and  C_10
REMARK                            x       y       z     vdW  Elec       q    Type
REMARK                         _______ _______ _______ _____ _____    ______ ____
ROOT
ATOM      1  N   UNL     1       2.616   7.477  19.044  0.00  0.00    +0.000 N 
ATOM      2  C   UNL     1       1.836   8.346  19.816  0.00  0.00    +0.000 C 
ATOM      3  O   UNL     1       1.722   8.151  21.032  0.00  0.00    +0.000 OA
ATOM      4  N   UNL     1       1.168   9.422  19.231  0.00  0.00    +0.000 N 
ATOM      5  C   UNL     1       0.662  10.499  20.104  0.00  0.00    +0.000 C 
ATOM      6  C   UNL     1      -0.836  10.769  19.932  0.00  0.00    +0.000 C 
ATOM      7  C   UNL     1      -1.194  11.009  18.472  0.00  0.00    +0.000 C 
ATOM      8  C   UNL     1      -0.706   9.844  17.624  0.00  0.00    +0.000 C 
ATOM      9  C   UNL     1       0.786   9.567  17.825  0.00  0.00    +0.000 C 
ENDROOT
BRANCH   1  10
ATOM     10  C   UNL     1       2.923   6.161  19.643  0.00  0.00    +0.000 C 
BRANCH  10  16
ATOM     11  C   UNL     1       1.313   2.119  22.067  0.00  0.00    +0.000 C 
ATOM     12  N   UNL     1       1.269   2.860  20.823  0.00  0.00    +0.000 NA
ATOM     13  C   UNL     1       1.500   2.084  19.624  0.00  0.00    +0.000 C 
ATOM     14  C   UNL     1       1.484   2.864  18.300  0.00  0.00    +0.000 C 
ATOM     15  C   UNL     1       1.831   4.319  18.407  0.00  0.00    +0.000 C 
ATOM     16  C   UNL     1       1.959   4.972  19.582  0.00  0.00    +0.000 C 
ATOM     17  C   UNL     1       1.522   4.296  20.869  0.00  0.00    +0.000 C 
ENDBRANCH  10  16
ENDBRANCH   1  10
BRANCH   1  18
ATOM     18  C   UNL     1       3.277   7.816  17.769  0.00  0.00    +0.000 C 
BRANCH  18  19
ATOM     19  C   UNL     1       4.529   7.035  17.309  0.00  0.00    +0.000 A 
ATOM     20  C   UNL     1       5.847   7.304  17.723  0.00  0.00    +0.000 A 
ATOM     21  C   UNL     1       6.959   6.725  17.076  0.00  0.00    +0.000 A 
ATOM     22  C   UNL     1       6.730   5.843  16.047  0.00  0.00    +0.000 A 
ATOM     23  C   UNL     1       5.454   5.486  15.701  0.00  0.00    +0.000 A 
ATOM     24  C   UNL     1       4.345   6.050  16.311  0.00  0.00    +0.000 A 
ATOM     25  O   UNL     1       5.432   4.589  14.678  0.00  0.00    +0.000 OA
ATOM     26  C   UNL     1       6.846   4.449  14.404  0.00  0.00    +0.000 C 
ATOM     27  O   UNL     1       7.674   5.249  15.276  0.00  0.00    +0.000 OA
ENDBRANCH  18  19
ENDBRANCH   1  18
TORSDOF 4
ENDMDL
MODEL 2
REMARK VINA RESULT:      -7.6      1.563      1.938
REMARK  Name = 
REMARK  5 active torsions:
REMARK  status: ('A' for Active; 'I' for Inactive)
REMARK    1  A    between atoms: C_1  and  N_2
REMARK    2  A    between atoms: C_6  and  C_7
REMARK    3  A    between atoms: C_7  and  N_8
REMARK    4  A    between atoms: N_8  and  C_9
REMARK    5  A    between atoms: C_9  and  C_10
REMARK                            x       y       z     vdW  Elec       q    Type
REMARK                         _______ _______ _______ _____ _____    ______ ____
ROOT
ATOM      1  N   UNL     1       1.741   6.851  19.946  0.00  0.00    +0.000 N 
ATOM      2  C   UNL     1       1.568   8.168  20.390  0.00  0.00    +0.000 C 
ATOM      3  O   UNL     1       1.677   8.429  21.593  0.00  0.00    +0.000 OA
ATOM      4  N   UNL     1       1.256   9.191  19.495  0.00  0.00    +0.000 N 
ATOM      5  C   UNL     1       1.432  10.590  19.931  0.00  0.00    +0.000 C 
ATOM      6  C   UNL     1       0.163  11.437  19.787  0.00  0.00    +0.000 C 
ATOM      7  C   UNL     1      -0.407  11.351  18.378  0.00  0.00    +0.000 C 
ATOM      8  C   UNL     1      -0.626   9.894  17.999  0.00  0.00    +0.000 C 
ATOM      9  C   UNL     1       0.640   9.054  18.172  0.00  0.00    +0.000 C 
ENDROOT
BRANCH   1  10
ATOM     10  C   UNL     1       1.642   5.793  20.973  0.00  0.00    +0.000 C 
BRANCH  10  16
ATOM     11  C   UNL     1       4.514   1.860  19.929  0.00  0.00    +0.000 C 
ATOM     12  N   UNL     1       3.157   2.363  19.992  0.00  0.00    +0.000 NA
ATOM     13  C   UNL     1       2.343   2.115  18.821  0.00  0.00    +0.000 C 
ATOM     14  C   UNL     1       0.911   2.668  18.864  0.00  0.00    +0.000 C 
ATOM     15  C   UNL     1       0.705   3.852  19.763  0.00  0.00    +0.000 C 
ATOM     16  C   UNL     1       1.636   4.299  20.632  0.00  0.00    +0.000 C 
ATOM     17  C   UNL     1       2.873   3.464  20.906  0.00  0.00    +0.000 C 
ENDBRANCH  10  16
ENDBRANCH   1  10
BRANCH   1  18
ATOM     18  C   UNL     1       2.161   6.447  18.590  0.00  0.00    +0.000 C 
BRANCH  18  19
ATOM     19  C   UNL     1       3.657   6.463  18.201  0.00  0.00    +0.000 A 
ATOM     20  C   UNL     1       4.215   7.240  17.170  0.00  0.00    +0.000 A 
ATOM     21  C   UNL     1       5.530   7.018  16.705  0.00  0.00    +0.000 A 
ATOM     22  C   UNL     1       6.284   6.045  17.316  0.00  0.00    +0.000 A 
ATOM     23  C   UNL     1       5.795   5.353  18.392  0.00  0.00    +0.000 A 
ATOM     24  C   UNL     1       4.504   5.541  18.859  0.00  0.00    +0.000 A 
ATOM     25  O   UNL     1       6.693   4.450  18.871  0.00  0.00    +0.000 OA
ATOM     26  C   UNL     1       7.792   4.639  17.949  0.00  0.00    +0.000 C 
ATOM     27  O   UNL     1       7.531   5.655  16.957  0.00  0.00    +0.000 OA
ENDBRANCH  18  19
ENDBRANCH   1  18
TORSDOF 4
ENDMDL
MODEL 3
REMARK VINA RESULT:      -7.5      1.474      5.072
REMARK  Name = 
REMARK  5 active torsions:
REMARK  status: ('A' for Active; 'I' for Inactive)
REMARK    1  A    between atoms: C_1  and  N_2
REMARK    2  A    between atoms: C_6  and  C_7
REMARK    3  A    between atoms: C_7  and  N_8
REMARK    4  A    between atoms: N_8  and  C_9
REMARK    5  A    between atoms: C_9  and  C_10
REMARK                            x       y       z     vdW  Elec       q    Type
REMARK                         _______ _______ _______ _____ _____    ______ ____
ROOT
ATOM      1  N   UNL     1       2.809   6.459  18.330  0.00  0.00    +0.000 N 
ATOM      2  C   UNL     1       1.985   5.328  18.320  0.00  0.00    +0.000 C 
ATOM      3  O   UNL     1       1.003   5.291  17.569  0.00  0.00    +0.000 OA
ATOM      4  N   UNL     1       2.242   4.245  19.161  0.00  0.00    +0.000 N 
ATOM      5  C   UNL     1       1.583   2.956  18.876  0.00  0.00    +0.000 C 
ATOM      6  C   UNL     1       0.787   2.403  20.063  0.00  0.00    +0.000 C 
ATOM      7  C   UNL     1       1.641   2.336  21.322  0.00  0.00    +0.000 C 
ATOM      8  C   UNL     1       2.248   3.702  21.606  0.00  0.00    +0.000 C 
ATOM      9  C   UNL     1       3.017   4.255  20.405  0.00  0.00    +0.000 C 
ENDROOT
BRANCH   1  10
ATOM     10  C   UNL     1       2.240   7.693  17.748  0.00  0.00    +0.000 C 
BRANCH  10  16
ATOM     11  C   UNL     1      -0.235   8.814  21.923  0.00  0.00    +0.000 C 
ATOM     12  N   UNL     1       0.320   9.333  20.690  0.00  0.00    +0.000 NA
ATOM     13  C   UNL     1      -0.567  10.166  19.906  0.00  0.00    +0.000 C 
ATOM     14  C   UNL     1       0.001  10.700  18.582  0.00  0.00    +0.000 C 
ATOM     15  C   UNL     1       1.092   9.871  17.970  0.00  0.00    +0.000 C 
ATOM     16  C   UNL     1       1.690   8.840  18.603  0.00  0.00    +0.000 C 
ATOM     17  C   UNL     1       1.436   8.616  20.082  0.00  0.00    +0.000 C 
ENDBRANCH  10  16
ENDBRANCH   1  10
BRANCH   1  18
ATOM     18  C   UNL     1       4.232   6.485  18.722  0.00  0.00    +0.000 C 
BRANCH  18  19
ATOM     19  C   UNL     1       5.321   6.010  17.733  0.00  0.00    +0.000 A 
ATOM     20  C   UNL     1       6.672   6.403  17.770  0.00  0.00    +0.000 A 
ATOM     21  C   UNL     1       7.549   6.136  16.697  0.00  0.00    +0.000 A 
ATOM     22  C   UNL     1       7.068   5.435  15.618  0.00  0.00    +0.000 A 
ATOM     23  C   UNL     1       5.786   4.952  15.611  0.00  0.00    +0.000 A 
ATOM     24  C   UNL     1       4.901   5.211  16.645  0.00  0.00    +0.000 A 
ATOM     25  O   UNL     1       5.502   4.268  14.469  0.00  0.00    +0.000 OA
ATOM     26  C   UNL     1       6.749   4.407  13.748  0.00  0.00    +0.000 C 
ATOM     27  O   UNL     1       7.746   5.151  14.479  0.00  0.00    +0.000 OA
ENDBRANCH  18  19
ENDBRANCH   1  18
TORSDOF 4
ENDMDL
MODEL 4
REMARK VINA RESULT:      -7.4      2.606      7.261
REMARK  Name = 
REMARK  5 active torsions:
REMARK  status: ('A' for Active; 'I' for Inactive)
REMARK    1  A    between atoms: C_1  and  N_2
REMARK    2  A    between atoms: C_6  and  C_7
REMARK    3  A    between atoms: C_7  and  N_8
REMARK    4  A    between atoms: N_8  and  C_9
REMARK    5  A    between atoms: C_9  and  C_10
REMARK                            x       y       z     vdW  Elec       q    Type
REMARK                         _______ _______ _______ _____ _____    ______ ____
ROOT
ATOM      1  N   UNL     1       5.844   5.070  17.387  0.00  0.00    +0.000 N 
ATOM      2  C   UNL     1       6.554   5.504  16.261  0.00  0.00    +0.000 C 
ATOM      3  O   UNL     1       7.026   6.646  16.236  0.00  0.00    +0.000 OA
ATOM      4  N   UNL     1       6.723   4.671  15.154  0.00  0.00    +0.000 N 
ATOM      5  C   UNL     1       7.756   5.018  14.159  0.00  0.00    +0.000 C 
ATOM      6  C   UNL     1       7.211   5.134  12.732  0.00  0.00    +0.000 C 
ATOM      7  C   UNL     1       6.435   3.887  12.330  0.00  0.00    +0.000 C 
ATOM      8  C   UNL     1       5.345   3.607  13.353  0.00  0.00    +0.000 C 
ATOM      9  C   UNL     1       5.897   3.521  14.778  0.00  0.00    +0.000 C 
ENDROOT
BRANCH   1  10
ATOM     10  C   UNL     1       5.355   6.122  18.301  0.00  0.00    +0.000 C 
BRANCH  10  16
ATOM     11  C   UNL     1       2.061   9.809  17.703  0.00  0.00    +0.000 C 
ATOM     12  N   UNL     1       2.269   8.465  18.202  0.00  0.00    +0.000 NA
ATOM     13  C   UNL     1       1.786   8.213  19.543  0.00  0.00    +0.000 C 
ATOM     14  C   UNL     1       2.026   6.800  20.093  0.00  0.00    +0.000 C 
ATOM     15  C   UNL     1       3.191   6.066  19.496  0.00  0.00    +0.000 C 
ATOM     16  C   UNL     1       3.876   6.504  18.418  0.00  0.00    +0.000 C 
ATOM     17  C   UNL     1       3.338   7.670  17.608  0.00  0.00    +0.000 C 
ENDBRANCH  10  16
ENDBRANCH   1  10
BRANCH   1  18
ATOM     18  C   UNL     1       5.678   3.666  17.813  0.00  0.00    +0.000 C 
BRANCH  18  19
ATOM     19  C   UNL     1       4.335   3.186  18.408  0.00  0.00    +0.000 A 
ATOM     20  C   UNL     1       3.125   3.090  17.697  0.00  0.00    +0.000 A 
ATOM     21  C   UNL     1       1.893   2.890  18.356  0.00  0.00    +0.000 A 
ATOM     22  C   UNL     1       1.900   2.742  19.722  0.00  0.00    +0.000 A 
ATOM     23  C   UNL     1       3.079   2.725  20.420  0.00  0.00    +0.000 A 
ATOM     24  C   UNL     1       4.300   2.932  19.799  0.00  0.00    +0.000 A 
ATOM     25  O   UNL     1       2.882   2.548  21.754  0.00  0.00    +0.000 OA
ATOM     26  C   UNL     1       1.437   2.485  21.814  0.00  0.00    +0.000 C 
ATOM     27  O   UNL     1       0.811   2.610  20.520  0.00  0.00    +0.000 OA
ENDBRANCH  18  19
ENDBRANCH   1  18
TORSDOF 4
ENDMDL
MODEL 5
REMARK VINA RESULT:      -7.4      1.012      1.164
REMARK  Name = 
REMARK  5 active torsions:
REMARK  status: ('A' for Active; 'I' for Inactive)
REMARK    1  A    between atoms: C_1  and  N_2
REMARK    2  A    between atoms: C_6  and  C_7
REMARK    3  A    between atoms: C_7  and  N_8
REMARK    4  A    between atoms: N_8  and  C_9
REMARK    5  A    between atoms: C_9  and  C_10
REMARK                            x       y       z     vdW  Elec       q    Type
REMARK                         _______ _______ _______ _____ _____    ______ ____
ROOT
ATOM      1  N   UNL     1       2.644   7.409  19.176  0.00  0.00    +0.000 N 
ATOM      2  C   UNL     1       1.863   8.309  19.910  0.00  0.00    +0.000 C 
ATOM      3  O   UNL     1       1.761   8.175  21.135  0.00  0.00    +0.000 OA
ATOM      4  N   UNL     1       1.179   9.348  19.278  0.00  0.00    +0.000 N 
ATOM      5  C   UNL     1       0.670  10.463  20.100  0.00  0.00    +0.000 C 
ATOM      6  C   UNL     1      -0.833  10.709  19.929  0.00  0.00    +0.000 C 
ATOM      7  C   UNL     1      -1.206  10.871  18.461  0.00  0.00    +0.000 C 
ATOM      8  C   UNL     1      -0.714   9.670  17.669  0.00  0.00    +0.000 C 
ATOM      9  C   UNL     1       0.782   9.418  17.869  0.00  0.00    +0.000 C 
ENDROOT
BRANCH   1  10
ATOM     10  C   UNL     1       2.970   6.129  19.838  0.00  0.00    +0.000 C 
BRANCH  10  16
ATOM     11  C   UNL     1       4.005   1.330  19.002  0.00  0.00    +0.000 C 
ATOM     12  N   UNL     1       3.011   2.375  18.873  0.00  0.00    +0.000 NA
ATOM     13  C   UNL     1       2.401   2.501  17.566  0.00  0.00    +0.000 C 
ATOM     14  C   UNL     1       1.366   3.624  17.409  0.00  0.00    +0.000 C 
ATOM     15  C   UNL     1       1.528   4.785  18.346  0.00  0.00    +0.000 C 
ATOM     16  C   UNL     1       2.383   4.786  19.390  0.00  0.00    +0.000 C 
ATOM     17  C   UNL     1       3.067   3.496  19.805  0.00  0.00    +0.000 C 
ENDBRANCH  10  16
ENDBRANCH   1  10
BRANCH   1  18
ATOM     18  C   UNL     1       3.291   7.690  17.879  0.00  0.00    +0.000 C 
BRANCH  18  19
ATOM     19  C   UNL     1       4.524   6.873  17.431  0.00  0.00    +0.000 A 
ATOM     20  C   UNL     1       5.851   7.135  17.819  0.00  0.00    +0.000 A 
ATOM     21  C   UNL     1       6.946   6.515  17.178  0.00  0.00    +0.000 A 
ATOM     22  C   UNL     1       6.689   5.602  16.184  0.00  0.00    +0.000 A 
ATOM     23  C   UNL     1       5.403   5.254  15.866  0.00  0.00    +0.000 A 
ATOM     24  C   UNL     1       4.311   5.857  16.470  0.00  0.00    +0.000 A 
ATOM     25  O   UNL     1       5.354   4.324  14.875  0.00  0.00    +0.000 OA
ATOM     26  C   UNL     1       6.762   4.151  14.589  0.00  0.00    +0.000 C 
ATOM     27  O   UNL     1       7.613   4.967  15.421  0.00  0.00    +0.000 OA
ENDBRANCH  18  19
ENDBRANCH   1  18
TORSDOF 4
ENDMDL
MODEL 6
REMARK VINA RESULT:      -7.4      0.963      1.435
REMARK  Name = 
REMARK  5 active torsions:
REMARK  status: ('A' for Active; 'I' for Inactive)
REMARK    1  A    between atoms: C_1  and  N_2
REMARK    2  A    between atoms: C_6  and  C_7
REMARK    3  A    between atoms: C_7  and  N_8
REMARK    4  A    between atoms: N_8  and  C_9
REMARK    5  A    between atoms: C_9  and  C_10
REMARK                            x       y       z     vdW  Elec       q    Type
REMARK                         _______ _______ _______ _____ _____    ______ ____
ROOT
ATOM      1  N   UNL     1       2.522   7.555  18.997  0.00  0.00    +0.000 N 
ATOM      2  C   UNL     1       1.764   8.423  19.793  0.00  0.00    +0.000 C 
ATOM      3  O   UNL     1       1.694   8.232  21.012  0.00  0.00    +0.000 OA
ATOM      4  N   UNL     1       1.069   9.492  19.227  0.00  0.00    +0.000 N 
ATOM      5  C   UNL     1       0.587  10.570  20.113  0.00  0.00    +0.000 C 
ATOM      6  C   UNL     1      -0.918  10.829  19.993  0.00  0.00    +0.000 C 
ATOM      7  C   UNL     1      -1.329  11.061  18.545  0.00  0.00    +0.000 C 
ATOM      8  C   UNL     1      -0.863   9.895  17.685  0.00  0.00    +0.000 C 
ATOM      9  C   UNL     1       0.636   9.629  17.834  0.00  0.00    +0.000 C 
ENDROOT
BRANCH   1  10
ATOM     10  C   UNL     1       2.859   6.245  19.590  0.00  0.00    +0.000 C 
BRANCH  10  16
ATOM     11  C   UNL     1       1.273   2.190  22.010  0.00  0.00    +0.000 C 
ATOM     12  N   UNL     1       1.251   2.916  20.756  0.00  0.00    +0.000 NA
ATOM     13  C   UNL     1       1.540   2.132  19.574  0.00  0.00    +0.000 C 
ATOM     14  C   UNL     1       1.547   2.896  18.242  0.00  0.00    +0.000 C 
ATOM     15  C   UNL     1       1.854   4.362  18.342  0.00  0.00    +0.000 C 
ATOM     16  C   UNL     1       1.927   5.030  19.512  0.00  0.00    +0.000 C 
ATOM     17  C   UNL     1       1.466   4.358  20.793  0.00  0.00    +0.000 C 
ENDBRANCH  10  16
ENDBRANCH   1  10
BRANCH   1  18
ATOM     18  C   UNL     1       3.136   7.893  17.698  0.00  0.00    +0.000 C 
BRANCH  18  19
ATOM     19  C   UNL     1       4.394   7.138  17.211  0.00  0.00    +0.000 A 
ATOM     20  C   UNL     1       4.642   6.758  15.879  0.00  0.00    +0.000 A 
ATOM     21  C   UNL     1       5.678   5.856  15.548  0.00  0.00    +0.000 A 
ATOM     22  C   UNL     1       6.481   5.385  16.558  0.00  0.00    +0.000 A 
ATOM     23  C   UNL     1       6.322   5.828  17.845  0.00  0.00    +0.000 A 
ATOM     24  C   UNL     1       5.306   6.700  18.199  0.00  0.00    +0.000 A 
ATOM     25  O   UNL     1       7.222   5.264  18.695  0.00  0.00    +0.000 OA
ATOM     26  C   UNL     1       7.945   4.392  17.794  0.00  0.00    +0.000 C 
ATOM     27  O   UNL     1       7.472   4.468  16.432  0.00  0.00    +0.000 OA
ENDBRANCH  18  19
ENDBRANCH   1  18
TORSDOF 4
ENDMDL
MODEL 7
REMARK VINA RESULT:      -7.4      2.135      7.005
REMARK  Name = 
REMARK  5 active torsions:
REMARK  status: ('A' for Active; 'I' for Inactive)
REMARK    1  A    between atoms: C_1  and  N_2
REMARK    2  A    between atoms: C_6  and  C_7
REMARK    3  A    between atoms: C_7  and  N_8
REMARK    4  A    between atoms: N_8  and  C_9
REMARK    5  A    between atoms: C_9  and  C_10
REMARK                            x       y       z     vdW  Elec       q    Type
REMARK                         _______ _______ _______ _____ _____    ______ ____
ROOT
ATOM      1  N   UNL     1       3.706   6.695  18.225  0.00  0.00    +0.000 N 
ATOM      2  C   UNL     1       3.773   5.656  19.162  0.00  0.00    +0.000 C 
ATOM      3  O   UNL     1       4.818   5.466  19.794  0.00  0.00    +0.000 OA
ATOM      4  N   UNL     1       2.680   4.817  19.380  0.00  0.00    +0.000 N 
ATOM      5  C   UNL     1       2.661   3.984  20.598  0.00  0.00    +0.000 C 
ATOM      6  C   UNL     1       2.477   2.490  20.311  0.00  0.00    +0.000 C 
ATOM      7  C   UNL     1       1.258   2.238  19.434  0.00  0.00    +0.000 C 
ATOM      8  C   UNL     1       1.354   3.073  18.166  0.00  0.00    +0.000 C 
ATOM      9  C   UNL     1       1.565   4.559  18.466  0.00  0.00    +0.000 C 
ENDROOT
BRANCH   1  10
ATOM     10  C   UNL     1       4.997   7.241  17.757  0.00  0.00    +0.000 C 
BRANCH  10  16
ATOM     11  C   UNL     1       5.228   4.151  13.858  0.00  0.00    +0.000 C 
ATOM     12  N   UNL     1       5.981   4.798  14.913  0.00  0.00    +0.000 NA
ATOM     13  C   UNL     1       6.846   3.932  15.686  0.00  0.00    +0.000 C 
ATOM     14  C   UNL     1       7.628   4.602  16.826  0.00  0.00    +0.000 C 
ATOM     15  C   UNL     1       7.005   5.845  17.391  0.00  0.00    +0.000 C 
ATOM     16  C   UNL     1       5.944   6.466  16.834  0.00  0.00    +0.000 C 
ATOM     17  C   UNL     1       5.469   6.053  15.452  0.00  0.00    +0.000 C 
ENDBRANCH  10  16
ENDBRANCH   1  10
BRANCH   1  18
ATOM     18  C   UNL     1       2.477   7.386  17.790  0.00  0.00    +0.000 C 
BRANCH  18  19
ATOM     19  C   UNL     1       1.783   8.403  18.725  0.00  0.00    +0.000 A 
ATOM     20  C   UNL     1       1.654   8.262  20.119  0.00  0.00    +0.000 A 
ATOM     21  C   UNL     1       0.795   9.093  20.871  0.00  0.00    +0.000 A 
ATOM     22  C   UNL     1       0.111  10.088  20.215  0.00  0.00    +0.000 A 
ATOM     23  C   UNL     1       0.306  10.309  18.878  0.00  0.00    +0.000 A 
ATOM     24  C   UNL     1       1.132   9.500  18.114  0.00  0.00    +0.000 A 
ATOM     25  O   UNL     1      -0.443  11.347  18.416  0.00  0.00    +0.000 OA
ATOM     26  C   UNL     1      -1.152  11.732  19.617  0.00  0.00    +0.000 C 
ATOM     27  O   UNL     1      -0.801  10.928  20.764  0.00  0.00    +0.000 OA
ENDBRANCH  18  19
ENDBRANCH   1  18
TORSDOF 4
ENDMDL
MODEL 8
REMARK VINA RESULT:      -7.3      1.448      1.618
REMARK  Name = 
REMARK  5 active torsions:
REMARK  status: ('A' for Active; 'I' for Inactive)
REMARK    1  A    between atoms: C_1  and  N_2
REMARK    2  A    between atoms: C_6  and  C_7
REMARK    3  A    between atoms: C_7  and  N_8
REMARK    4  A    between atoms: N_8  and  C_9
REMARK    5  A    between atoms: C_9  and  C_10
REMARK                            x       y       z     vdW  Elec       q    Type
REMARK                         _______ _______ _______ _____ _____    ______ ____
ROOT
ATOM      1  N   UNL     1       1.909   6.869  19.902  0.00  0.00    +0.000 N 
ATOM      2  C   UNL     1       1.593   8.133  20.415  0.00  0.00    +0.000 C 
ATOM      3  O   UNL     1       1.609   8.321  21.636  0.00  0.00    +0.000 OA
ATOM      4  N   UNL     1       1.242   9.183  19.566  0.00  0.00    +0.000 N 
ATOM      5  C   UNL     1       1.265  10.560  20.099  0.00  0.00    +0.000 C 
ATOM      6  C   UNL     1      -0.064  11.302  19.928  0.00  0.00    +0.000 C 
ATOM      7  C   UNL     1      -0.542  11.262  18.483  0.00  0.00    +0.000 C 
ATOM      8  C   UNL     1      -0.607   9.820  18.001  0.00  0.00    +0.000 C 
ATOM      9  C   UNL     1       0.718   9.082  18.202  0.00  0.00    +0.000 C 
ENDROOT
BRANCH   1  10
ATOM     10  C   UNL     1       1.848   5.740  20.853  0.00  0.00    +0.000 C 
BRANCH  10  16
ATOM     11  C   UNL     1       4.528   1.750  19.549  0.00  0.00    +0.000 C 
ATOM     12  N   UNL     1       3.197   2.315  19.638  0.00  0.00    +0.000 NA
ATOM     13  C   UNL     1       2.385   2.194  18.447  0.00  0.00    +0.000 C 
ATOM     14  C   UNL     1       0.982   2.815  18.519  0.00  0.00    +0.000 C 
ATOM     15  C   UNL     1       0.826   3.941  19.500  0.00  0.00    +0.000 C 
ATOM     16  C   UNL     1       1.769   4.276  20.406  0.00  0.00    +0.000 C 
ATOM     17  C   UNL     1       2.960   3.361  20.627  0.00  0.00    +0.000 C 
ENDBRANCH  10  16
ENDBRANCH   1  10
BRANCH   1  18
ATOM     18  C   UNL     1       2.441   6.595  18.553  0.00  0.00    +0.000 C 
BRANCH  18  19
ATOM     19  C   UNL     1       3.814   5.905  18.382  0.00  0.00    +0.000 A 
ATOM     20  C   UNL     1       4.855   5.934  19.327  0.00  0.00    +0.000 A 
ATOM     21  C   UNL     1       6.160   5.503  19.004  0.00  0.00    +0.000 A 
ATOM     22  C   UNL     1       6.390   5.005  17.745  0.00  0.00    +0.000 A 
ATOM     23  C   UNL     1       5.365   4.868  16.847  0.00  0.00    +0.000 A 
ATOM     24  C   UNL     1       4.079   5.296  17.134  0.00  0.00    +0.000 A 
ATOM     25  O   UNL     1       5.785   4.339  15.666  0.00  0.00    +0.000 OA
ATOM     26  C   UNL     1       7.202   4.186  15.921  0.00  0.00    +0.000 C 
ATOM     27  O   UNL     1       7.588   4.612  17.245  0.00  0.00    +0.000 OA
ENDBRANCH  18  19
ENDBRANCH   1  18
TORSDOF 4
ENDMDL
MODEL 9
REMARK VINA RESULT:      -7.0      2.101      6.935
REMARK  Name = 
REMARK  5 active torsions:
REMARK  status: ('A' for Active; 'I' for Inactive)
REMARK    1  A    between atoms: C_1  and  N_2
REMARK    2  A    between atoms: C_6  and  C_7
REMARK    3  A    between atoms: C_7  and  N_8
REMARK    4  A    between atoms: N_8  and  C_9
REMARK    5  A    between atoms: C_9  and  C_10
REMARK                            x       y       z     vdW  Elec       q    Type
REMARK                         _______ _______ _______ _____ _____    ______ ____
ROOT
ATOM      1  N   UNL     1       3.691   6.705  18.188  0.00  0.00    +0.000 N 
ATOM      2  C   UNL     1       3.737   5.689  19.150  0.00  0.00    +0.000 C 
ATOM      3  O   UNL     1       4.765   5.521  19.817  0.00  0.00    +0.000 OA
ATOM      4  N   UNL     1       2.643   4.848  19.358  0.00  0.00    +0.000 N 
ATOM      5  C   UNL     1       2.595   4.044  20.594  0.00  0.00    +0.000 C 
ATOM      6  C   UNL     1       2.428   2.542  20.338  0.00  0.00    +0.000 C 
ATOM      7  C   UNL     1       1.236   2.262  19.433  0.00  0.00    +0.000 C 
ATOM      8  C   UNL     1       1.363   3.067  18.149  0.00  0.00    +0.000 C 
ATOM      9  C   UNL     1       1.557   4.560  18.418  0.00  0.00    +0.000 C 
ENDROOT
BRANCH   1  10
ATOM     10  C   UNL     1       4.992   7.248  17.744  0.00  0.00    +0.000 C 
BRANCH  10  16
ATOM     11  C   UNL     1       5.291   4.146  13.859  0.00  0.00    +0.000 C 
ATOM     12  N   UNL     1       6.025   4.797  14.924  0.00  0.00    +0.000 NA
ATOM     13  C   UNL     1       6.876   3.934  15.715  0.00  0.00    +0.000 C 
ATOM     14  C   UNL     1       7.638   4.607  16.867  0.00  0.00    +0.000 C 
ATOM     15  C   UNL     1       7.005   5.851  17.416  0.00  0.00    +0.000 C 
ATOM     16  C   UNL     1       5.954   6.471  16.839  0.00  0.00    +0.000 C 
ATOM     17  C   UNL     1       5.503   6.053  15.451  0.00  0.00    +0.000 C 
ENDBRANCH  10  16
ENDBRANCH   1  10
BRANCH   1  18
ATOM     18  C   UNL     1       2.470   7.377  17.702  0.00  0.00    +0.000 C 
BRANCH  18  19
ATOM     19  C   UNL     1       1.772   8.447  18.571  0.00  0.00    +0.000 A 
ATOM     20  C   UNL     1       1.589   9.792  18.204  0.00  0.00    +0.000 A 
ATOM     21  C   UNL     1       1.175  10.766  19.139  0.00  0.00    +0.000 A 
ATOM     22  C   UNL     1       0.906  10.363  20.425  0.00  0.00    +0.000 A 
ATOM     23  C   UNL     1       0.974   9.040  20.774  0.00  0.00    +0.000 A 
ATOM     24  C   UNL     1       1.390   8.067  19.879  0.00  0.00    +0.000 A 
ATOM     25  O   UNL     1       0.653   8.838  22.081  0.00  0.00    +0.000 OA
ATOM     26  C   UNL     1       0.403  10.195  22.516  0.00  0.00    +0.000 C 
ATOM     27  O   UNL     1       0.566  11.167  21.462  0.00  0.00    +0.000 OA
ENDBRANCH  18  19
ENDBRANCH   1  18
TORSDOF 4
ENDMDL
