MODEL 1
REMARK VINA RESULT:      -5.7      0.000      0.000
REMARK  Name = 
REMARK  5 active torsions:
REMARK  status: ('A' for Active; 'I' for Inactive)
REMARK    1  A    between atoms: C_1  and  C_2
REMARK    2  A    between atoms: C_3  and  C_4
REMARK    3  A    between atoms: C_7  and  O_8
REMARK    4  A    between atoms: C_9  and  O_10
REMARK    5  A    between atoms: O_10  and  C_11
REMARK                            x       y       z     vdW  Elec       q    Type
REMARK                         _______ _______ _______ _____ _____    ______ ____
ROOT
ATOM      1  C   UNL     1       5.846   4.680  15.925  0.00  0.00    +0.000 A 
ATOM      2  C   UNL     1       7.165   4.521  16.357  0.00  0.00    +0.000 A 
ATOM      3  C   UNL     1       7.515   4.749  17.687  0.00  0.00    +0.000 A 
ATOM      4  C   UNL     1       6.547   5.161  18.603  0.00  0.00    +0.000 A 
ATOM      5  C   UNL     1       5.222   5.362  18.194  0.00  0.00    +0.000 A 
ATOM      6  C   UNL     1       4.889   5.122  16.848  0.00  0.00    +0.000 A 
ENDROOT
BRANCH   1   9
ATOM      7  C   UNL     1       5.869   3.458  12.253  0.00  0.00    +0.000 C 
ATOM      8  C   UNL     1       6.205   3.684  13.688  0.00  0.00    +0.000 C 
ATOM      9  C   UNL     1       5.472   4.440  14.522  0.00  0.00    +0.000 C 
ENDBRANCH   1   9
BRANCH   4  10
ATOM     10  O   UNL     1       6.942   5.360  19.897  0.00  0.00    +0.000 OA
ATOM     11  H   UNL     1       6.539   4.679  20.460  0.00  0.00    +0.000 HD
ENDBRANCH   4  10
BRANCH   5  12
ATOM     12  O   UNL     1       4.159   5.774  18.951  0.00  0.00    +0.000 OA
ATOM     13  C   UNL     1       2.875   5.793  18.340  0.00  0.00    +0.000 C 
ENDBRANCH   5  12
TORSDOF 3
ENDMDL
MODEL 2
REMARK VINA RESULT:      -5.7      1.158      1.272
REMARK  Name = 
REMARK  5 active torsions:
REMARK  status: ('A' for Active; 'I' for Inactive)
REMARK    1  A    between atoms: C_1  and  C_2
REMARK    2  A    between atoms: C_3  and  C_4
REMARK    3  A    between atoms: C_7  and  O_8
REMARK    4  A    between atoms: C_9  and  O_10
REMARK    5  A    between atoms: O_10  and  C_11
REMARK                            x       y       z     vdW  Elec       q    Type
REMARK                         _______ _______ _______ _____ _____    ______ ____
ROOT
ATOM      1  C   UNL     1       5.832   4.501  16.045  0.00  0.00    +0.000 A 
ATOM      2  C   UNL     1       7.044   5.141  16.312  0.00  0.00    +0.000 A 
ATOM      3  C   UNL     1       7.433   5.422  17.621  0.00  0.00    +0.000 A 
ATOM      4  C   UNL     1       6.598   5.080  18.685  0.00  0.00    +0.000 A 
ATOM      5  C   UNL     1       5.360   4.468  18.449  0.00  0.00    +0.000 A 
ATOM      6  C   UNL     1       4.988   4.189  17.120  0.00  0.00    +0.000 A 
ENDROOT
BRANCH   1   9
ATOM      7  C   UNL     1       5.881   3.479  12.313  0.00  0.00    +0.000 C 
ATOM      8  C   UNL     1       6.267   3.751  13.728  0.00  0.00    +0.000 C 
ATOM      9  C   UNL     1       5.417   4.202  14.665  0.00  0.00    +0.000 C 
ENDBRANCH   1   9
BRANCH   4  10
ATOM     10  O   UNL     1       7.032   5.368  19.950  0.00  0.00    +0.000 OA
ATOM     11  H   UNL     1       6.263   5.506  20.526  0.00  0.00    +0.000 HD
ENDBRANCH   4  10
BRANCH   5  12
ATOM     12  O   UNL     1       4.421   4.082  19.367  0.00  0.00    +0.000 OA
ATOM     13  C   UNL     1       4.318   2.697  19.672  0.00  0.00    +0.000 C 
ENDBRANCH   5  12
TORSDOF 3
ENDMDL
MODEL 3
REMARK VINA RESULT:      -5.6      3.037      4.532
REMARK  Name = 
REMARK  5 active torsions:
REMARK  status: ('A' for Active; 'I' for Inactive)
REMARK    1  A    between atoms: C_1  and  C_2
REMARK    2  A    between atoms: C_3  and  C_4
REMARK    3  A    between atoms: C_7  and  O_8
REMARK    4  A    between atoms: C_9  and  O_10
REMARK    5  A    between atoms: O_10  and  C_11
REMARK                            x       y       z     vdW  Elec       q    Type
REMARK                         _______ _______ _______ _____ _____    ______ ____
ROOT
ATOM      1  C   UNL     1       7.470   7.511  17.857  0.00  0.00    +0.000 A 
ATOM      2  C   UNL     1       8.137   6.643  18.724  0.00  0.00    +0.000 A 
ATOM      3  C   UNL     1       7.634   5.370  18.990  0.00  0.00    +0.000 A 
ATOM      4  C   UNL     1       6.438   4.956  18.403  0.00  0.00    +0.000 A 
ATOM      5  C   UNL     1       5.727   5.815  17.556  0.00  0.00    +0.000 A 
ATOM      6  C   UNL     1       6.254   7.095  17.297  0.00  0.00    +0.000 A 
ENDROOT
BRANCH   1   9
ATOM      7  C   UNL     1       9.200  10.954  18.222  0.00  0.00    +0.000 C 
ATOM      8  C   UNL     1       8.689   9.575  18.471  0.00  0.00    +0.000 C 
ATOM      9  C   UNL     1       7.997   8.855  17.573  0.00  0.00    +0.000 C 
ENDBRANCH   1   9
BRANCH   4  10
ATOM     10  O   UNL     1       5.995   3.694  18.690  0.00  0.00    +0.000 OA
ATOM     11  H   UNL     1       6.753   3.140  18.938  0.00  0.00    +0.000 HD
ENDBRANCH   4  10
BRANCH   5  12
ATOM     12  O   UNL     1       4.542   5.577  16.914  0.00  0.00    +0.000 OA
ATOM     13  C   UNL     1       3.344   5.663  17.674  0.00  0.00    +0.000 C 
ENDBRANCH   5  12
TORSDOF 3
ENDMDL
MODEL 4
REMARK VINA RESULT:      -5.6      3.172      4.825
REMARK  Name = 
REMARK  5 active torsions:
REMARK  status: ('A' for Active; 'I' for Inactive)
REMARK    1  A    between atoms: C_1  and  C_2
REMARK    2  A    between atoms: C_3  and  C_4
REMARK    3  A    between atoms: C_7  and  O_8
REMARK    4  A    between atoms: C_9  and  O_10
REMARK    5  A    between atoms: O_10  and  C_11
REMARK                            x       y       z     vdW  Elec       q    Type
REMARK                         _______ _______ _______ _____ _____    ______ ____
ROOT
ATOM      1  C   UNL     1       7.606   7.588  17.839  0.00  0.00    +0.000 A 
ATOM      2  C   UNL     1       8.110   6.775  18.857  0.00  0.00    +0.000 A 
ATOM      3  C   UNL     1       7.627   5.480  19.045  0.00  0.00    +0.000 A 
ATOM      4  C   UNL     1       6.612   4.988  18.223  0.00  0.00    +0.000 A 
ATOM      5  C   UNL     1       6.062   5.791  17.215  0.00  0.00    +0.000 A 
ATOM      6  C   UNL     1       6.567   7.093  17.039  0.00  0.00    +0.000 A 
ENDROOT
BRANCH   1   9
ATOM      7  C   UNL     1       9.292  11.024  18.410  0.00  0.00    +0.000 C 
ATOM      8  C   UNL     1       8.802   9.626  18.575  0.00  0.00    +0.000 C 
ATOM      9  C   UNL     1       8.113   8.955  17.637  0.00  0.00    +0.000 C 
ENDBRANCH   1   9
BRANCH   4  10
ATOM     10  O   UNL     1       6.182   3.709  18.443  0.00  0.00    +0.000 OA
ATOM     11  H   UNL     1       5.388   3.733  19.000  0.00  0.00    +0.000 HD
ENDBRANCH   4  10
BRANCH   5  12
ATOM     12  O   UNL     1       5.062   5.474  16.336  0.00  0.00    +0.000 OA
ATOM     13  C   UNL     1       5.424   4.836  15.119  0.00  0.00    +0.000 C 
ENDBRANCH   5  12
TORSDOF 3
ENDMDL
MODEL 5
REMARK VINA RESULT:      -5.6      1.156      2.663
REMARK  Name = 
REMARK  5 active torsions:
REMARK  status: ('A' for Active; 'I' for Inactive)
REMARK    1  A    between atoms: C_1  and  C_2
REMARK    2  A    between atoms: C_3  and  C_4
REMARK    3  A    between atoms: C_7  and  O_8
REMARK    4  A    between atoms: C_9  and  O_10
REMARK    5  A    between atoms: O_10  and  C_11
REMARK                            x       y       z     vdW  Elec       q    Type
REMARK                         _______ _______ _______ _____ _____    ______ ____
ROOT
ATOM      1  C   UNL     1       5.285   4.100  16.663  0.00  0.00    +0.000 A 
ATOM      2  C   UNL     1       3.905   4.084  16.878  0.00  0.00    +0.000 A 
ATOM      3  C   UNL     1       3.362   4.552  18.075  0.00  0.00    +0.000 A 
ATOM      4  C   UNL     1       4.201   5.025  19.084  0.00  0.00    +0.000 A 
ATOM      5  C   UNL     1       5.591   5.022  18.912  0.00  0.00    +0.000 A 
ATOM      6  C   UNL     1       6.119   4.550  17.695  0.00  0.00    +0.000 A 
ENDROOT
BRANCH   1   9
ATOM      7  C   UNL     1       6.265   3.757  12.935  0.00  0.00    +0.000 C 
ATOM      8  C   UNL     1       5.724   4.254  14.232  0.00  0.00    +0.000 C 
ATOM      9  C   UNL     1       5.863   3.608  15.402  0.00  0.00    +0.000 C 
ENDBRANCH   1   9
BRANCH   4  10
ATOM     10  O   UNL     1       3.616   5.482  20.233  0.00  0.00    +0.000 OA
ATOM     11  H   UNL     1       2.746   5.062  20.334  0.00  0.00    +0.000 HD
ENDBRANCH   4  10
BRANCH   5  12
ATOM     12  O   UNL     1       6.552   5.434  19.796  0.00  0.00    +0.000 OA
ATOM     13  C   UNL     1       7.827   5.787  19.276  0.00  0.00    +0.000 C 
ENDBRANCH   5  12
TORSDOF 3
ENDMDL
MODEL 6
REMARK VINA RESULT:      -5.6      2.717      4.825
REMARK  Name = 
REMARK  5 active torsions:
REMARK  status: ('A' for Active; 'I' for Inactive)
REMARK    1  A    between atoms: C_1  and  C_2
REMARK    2  A    between atoms: C_3  and  C_4
REMARK    3  A    between atoms: C_7  and  O_8
REMARK    4  A    between atoms: C_9  and  O_10
REMARK    5  A    between atoms: O_10  and  C_11
REMARK                            x       y       z     vdW  Elec       q    Type
REMARK                         _______ _______ _______ _____ _____    ______ ____
ROOT
ATOM      1  C   UNL     1       3.084   5.507  18.429  0.00  0.00    +0.000 A 
ATOM      2  C   UNL     1       2.425   4.327  18.783  0.00  0.00    +0.000 A 
ATOM      3  C   UNL     1       3.136   3.227  19.262  0.00  0.00    +0.000 A 
ATOM      4  C   UNL     1       4.525   3.289  19.375  0.00  0.00    +0.000 A 
ATOM      5  C   UNL     1       5.218   4.446  18.996  0.00  0.00    +0.000 A 
ATOM      6  C   UNL     1       4.482   5.547  18.519  0.00  0.00    +0.000 A 
ENDROOT
BRANCH   1   9
ATOM      7  C   UNL     1       1.832   9.122  17.843  0.00  0.00    +0.000 C 
ATOM      8  C   UNL     1       2.597   7.930  18.310  0.00  0.00    +0.000 C 
ATOM      9  C   UNL     1       2.338   6.671  17.923  0.00  0.00    +0.000 C 
ENDBRANCH   1   9
BRANCH   4  10
ATOM     10  O   UNL     1       5.172   2.186  19.861  0.00  0.00    +0.000 OA
ATOM     11  H   UNL     1       4.617   1.403  19.715  0.00  0.00    +0.000 HD
ENDBRANCH   4  10
BRANCH   5  12
ATOM     12  O   UNL     1       6.568   4.670  19.029  0.00  0.00    +0.000 OA
ATOM     13  C   UNL     1       7.273   4.663  17.794  0.00  0.00    +0.000 C 
ENDBRANCH   5  12
TORSDOF 3
ENDMDL
MODEL 7
REMARK VINA RESULT:      -5.6      2.134      4.557
REMARK  Name = 
REMARK  5 active torsions:
REMARK  status: ('A' for Active; 'I' for Inactive)
REMARK    1  A    between atoms: C_1  and  C_2
REMARK    2  A    between atoms: C_3  and  C_4
REMARK    3  A    between atoms: C_7  and  O_8
REMARK    4  A    between atoms: C_9  and  O_10
REMARK    5  A    between atoms: O_10  and  C_11
REMARK                            x       y       z     vdW  Elec       q    Type
REMARK                         _______ _______ _______ _____ _____    ______ ____
ROOT
ATOM      1  C   UNL     1       4.050   6.286  18.042  0.00  0.00    +0.000 A 
ATOM      2  C   UNL     1       4.452   5.474  19.105  0.00  0.00    +0.000 A 
ATOM      3  C   UNL     1       5.661   4.781  19.060  0.00  0.00    +0.000 A 
ATOM      4  C   UNL     1       6.478   4.876  17.934  0.00  0.00    +0.000 A 
ATOM      5  C   UNL     1       6.088   5.654  16.836  0.00  0.00    +0.000 A 
ATOM      6  C   UNL     1       4.866   6.350  16.904  0.00  0.00    +0.000 A 
ENDROOT
BRANCH   1   9
ATOM      7  C   UNL     1       1.403   9.103  17.871  0.00  0.00    +0.000 C 
ATOM      8  C   UNL     1       2.674   8.328  17.797  0.00  0.00    +0.000 C 
ATOM      9  C   UNL     1       2.776   7.020  18.085  0.00  0.00    +0.000 C 
ENDBRANCH   1   9
BRANCH   4  10
ATOM     10  O   UNL     1       7.658   4.184  17.946  0.00  0.00    +0.000 OA
ATOM     11  H   UNL     1       7.645   3.523  17.235  0.00  0.00    +0.000 HD
ENDBRANCH   4  10
BRANCH   5  12
ATOM     12  O   UNL     1       6.757   5.846  15.658  0.00  0.00    +0.000 OA
ATOM     13  C   UNL     1       6.680   4.821  14.675  0.00  0.00    +0.000 C 
ENDBRANCH   5  12
TORSDOF 3
ENDMDL
MODEL 8
REMARK VINA RESULT:      -5.5      3.697      4.708
REMARK  Name = 
REMARK  5 active torsions:
REMARK  status: ('A' for Active; 'I' for Inactive)
REMARK    1  A    between atoms: C_1  and  C_2
REMARK    2  A    between atoms: C_3  and  C_4
REMARK    3  A    between atoms: C_7  and  O_8
REMARK    4  A    between atoms: C_9  and  O_10
REMARK    5  A    between atoms: O_10  and  C_11
REMARK                            x       y       z     vdW  Elec       q    Type
REMARK                         _______ _______ _______ _____ _____    ______ ____
ROOT
ATOM      1  C   UNL     1       3.620   5.881  18.097  0.00  0.00    +0.000 A 
ATOM      2  C   UNL     1       4.800   5.495  18.738  0.00  0.00    +0.000 A 
ATOM      3  C   UNL     1       5.044   4.156  19.043  0.00  0.00    +0.000 A 
ATOM      4  C   UNL     1       4.095   3.184  18.727  0.00  0.00    +0.000 A 
ATOM      5  C   UNL     1       2.886   3.543  18.115  0.00  0.00    +0.000 A 
ATOM      6  C   UNL     1       2.661   4.899  17.811  0.00  0.00    +0.000 A 
ENDROOT
BRANCH   1   9
ATOM      7  C   UNL     1       1.959   9.367  17.850  0.00  0.00    +0.000 C 
ATOM      8  C   UNL     1       2.267   7.950  18.198  0.00  0.00    +0.000 C 
ATOM      9  C   UNL     1       3.358   7.292  17.773  0.00  0.00    +0.000 C 
ENDBRANCH   1   9
BRANCH   4  10
ATOM     10  O   UNL     1       4.389   1.885  19.039  0.00  0.00    +0.000 OA
ATOM     11  H   UNL     1       4.075   1.696  19.938  0.00  0.00    +0.000 HD
ENDBRANCH   4  10
BRANCH   5  12
ATOM     12  O   UNL     1       1.850   2.727  17.752  0.00  0.00    +0.000 OA
ATOM     13  C   UNL     1       0.868   2.421  18.734  0.00  0.00    +0.000 C 
ENDBRANCH   5  12
TORSDOF 3
ENDMDL
MODEL 9
REMARK VINA RESULT:      -5.5      2.467      4.240
REMARK  Name = 
REMARK  5 active torsions:
REMARK  status: ('A' for Active; 'I' for Inactive)
REMARK    1  A    between atoms: C_1  and  C_2
REMARK    2  A    between atoms: C_3  and  C_4
REMARK    3  A    between atoms: C_7  and  O_8
REMARK    4  A    between atoms: C_9  and  O_10
REMARK    5  A    between atoms: O_10  and  C_11
REMARK                            x       y       z     vdW  Elec       q    Type
REMARK                         _______ _______ _______ _____ _____    ______ ____
ROOT
ATOM      1  C   UNL     1       4.393   4.832  17.272  0.00  0.00    +0.000 A 
ATOM      2  C   UNL     1       4.835   3.832  16.401  0.00  0.00    +0.000 A 
ATOM      3  C   UNL     1       5.965   4.023  15.608  0.00  0.00    +0.000 A 
ATOM      4  C   UNL     1       6.660   5.231  15.661  0.00  0.00    +0.000 A 
ATOM      5  C   UNL     1       6.223   6.266  16.499  0.00  0.00    +0.000 A 
ATOM      6  C   UNL     1       5.082   6.052  17.295  0.00  0.00    +0.000 A 
ENDROOT
BRANCH   1   9
ATOM      7  C   UNL     1       1.073   3.458  18.709  0.00  0.00    +0.000 C 
ATOM      8  C   UNL     1       2.308   3.655  17.898  0.00  0.00    +0.000 C 
ATOM      9  C   UNL     1       3.201   4.635  18.112  0.00  0.00    +0.000 C 
ENDBRANCH   1   9
BRANCH   4  10
ATOM     10  O   UNL     1       7.768   5.361  14.870  0.00  0.00    +0.000 OA
ATOM     11  H   UNL     1       7.558   5.045  13.976  0.00  0.00    +0.000 HD
ENDBRANCH   4  10
BRANCH   5  12
ATOM     12  O   UNL     1       6.774   7.508  16.663  0.00  0.00    +0.000 OA
ATOM     13  C   UNL     1       7.715   7.686  17.714  0.00  0.00    +0.000 C 
ENDBRANCH   5  12
TORSDOF 3
ENDMDL
