MODEL 1
REMARK VINA RESULT:      -6.3      0.000      0.000
REMARK  Name = 
REMARK  9 active torsions:
REMARK  status: ('A' for Active; 'I' for Inactive)
REMARK    1  A    between atoms: C_1  and  C_2
REMARK    2  A    between atoms: C_2  and  N_3
REMARK    3  A    between atoms: N_3  and  C_4
REMARK    4  A    between atoms: N_3  and  C_6
REMARK    5  A    between atoms: C_4  and  C_5
REMARK    6  A    between atoms: C_11  and  O_12
REMARK    7  A    between atoms: O_12  and  C_13
REMARK    8  A    between atoms: C_14  and  O_15
REMARK    9  A    between atoms: O_15  and  C_16
REMARK                            x       y       z     vdW  Elec       q    Type
REMARK                         _______ _______ _______ _____ _____    ______ ____
ROOT
ATOM      1  C   UNL     1       4.205   3.910  18.961  0.00  0.00    +0.000 C 
ATOM      2  C   UNL     1       3.536   3.734  17.577  0.00  0.00    +0.000 C 
ATOM      3  C   UNL     1       4.660   4.102  16.654  0.00  0.00    +0.000 A 
ATOM      4  C   UNL     1       4.749   3.784  15.308  0.00  0.00    +0.000 A 
ATOM      5  C   UNL     1       5.848   4.248  14.591  0.00  0.00    +0.000 A 
ATOM      6  C   UNL     1       6.832   5.038  15.215  0.00  0.00    +0.000 A 
ATOM      7  C   UNL     1       6.726   5.373  16.589  0.00  0.00    +0.000 A 
ATOM      8  C   UNL     1       5.636   4.879  17.302  0.00  0.00    +0.000 A 
ATOM      9  C   UNL     1       5.216   5.065  18.735  0.00  0.00    +0.000 C 
ENDROOT
BRANCH   6  10
ATOM     10  O   UNL     1       7.935   5.542  14.560  0.00  0.00    +0.000 OA
ATOM     11  C   UNL     1       8.004   5.365  13.152  0.00  0.00    +0.000 C 
ENDBRANCH   6  10
BRANCH   7  12
ATOM     12  O   UNL     1       7.741   6.170  17.050  0.00  0.00    +0.000 OA
ATOM     13  C   UNL     1       7.483   7.496  17.462  0.00  0.00    +0.000 C 
ENDBRANCH   7  12
BRANCH   1  14
ATOM     14  N   UNL     1       3.276   4.121  20.098  0.00  0.00    +0.000 NA
BRANCH  14  16
ATOM     15  C   UNL     1       2.098   6.368  20.086  0.00  0.00    +0.000 C 
ATOM     16  C   UNL     1       2.092   4.895  19.679  0.00  0.00    +0.000 C 
ENDBRANCH  14  16
BRANCH  14  17
ATOM     17  C   UNL     1       2.939   2.867  20.799  0.00  0.00    +0.000 C 
ATOM     18  C   UNL     1       1.535   2.789  21.397  0.00  0.00    +0.000 C 
ENDBRANCH  14  17
ENDBRANCH   1  14
TORSDOF 5
ENDMDL
MODEL 2
REMARK VINA RESULT:      -6.1      2.916      6.127
REMARK  Name = 
REMARK  9 active torsions:
REMARK  status: ('A' for Active; 'I' for Inactive)
REMARK    1  A    between atoms: C_1  and  C_2
REMARK    2  A    between atoms: C_2  and  N_3
REMARK    3  A    between atoms: N_3  and  C_4
REMARK    4  A    between atoms: N_3  and  C_6
REMARK    5  A    between atoms: C_4  and  C_5
REMARK    6  A    between atoms: C_11  and  O_12
REMARK    7  A    between atoms: O_12  and  C_13
REMARK    8  A    between atoms: C_14  and  O_15
REMARK    9  A    between atoms: O_15  and  C_16
REMARK                            x       y       z     vdW  Elec       q    Type
REMARK                         _______ _______ _______ _____ _____    ______ ____
ROOT
ATOM      1  C   UNL     1       5.018   5.320  16.809  0.00  0.00    +0.000 C 
ATOM      2  C   UNL     1       4.750   3.812  16.591  0.00  0.00    +0.000 C 
ATOM      3  C   UNL     1       3.635   3.564  17.563  0.00  0.00    +0.000 A 
ATOM      4  C   UNL     1       2.759   2.490  17.546  0.00  0.00    +0.000 A 
ATOM      5  C   UNL     1       1.808   2.396  18.557  0.00  0.00    +0.000 A 
ATOM      6  C   UNL     1       1.752   3.359  19.582  0.00  0.00    +0.000 A 
ATOM      7  C   UNL     1       2.662   4.447  19.603  0.00  0.00    +0.000 A 
ATOM      8  C   UNL     1       3.591   4.545  18.569  0.00  0.00    +0.000 A 
ATOM      9  C   UNL     1       4.692   5.536  18.310  0.00  0.00    +0.000 C 
ENDROOT
BRANCH   6  10
ATOM     10  O   UNL     1       0.847   3.316  20.621  0.00  0.00    +0.000 OA
ATOM     11  C   UNL     1       1.223   2.613  21.797  0.00  0.00    +0.000 C 
ENDBRANCH   6  10
BRANCH   7  12
ATOM     12  O   UNL     1       2.507   5.286  20.675  0.00  0.00    +0.000 OA
ATOM     13  C   UNL     1       1.880   6.543  20.520  0.00  0.00    +0.000 C 
ENDBRANCH   7  12
BRANCH   1  14
ATOM     14  N   UNL     1       6.361   5.796  16.398  0.00  0.00    +0.000 NA
BRANCH  14  16
ATOM     15  C   UNL     1       7.622   7.726  17.458  0.00  0.00    +0.000 C 
ATOM     16  C   UNL     1       7.130   6.283  17.560  0.00  0.00    +0.000 C 
ENDBRANCH  14  16
BRANCH  14  17
ATOM     17  C   UNL     1       7.093   4.807  15.584  0.00  0.00    +0.000 C 
ATOM     18  C   UNL     1       7.007   4.989  14.069  0.00  0.00    +0.000 C 
ENDBRANCH  14  17
ENDBRANCH   1  14
TORSDOF 5
ENDMDL
MODEL 3
REMARK VINA RESULT:      -6.1      0.826      1.073
REMARK  Name = 
REMARK  9 active torsions:
REMARK  status: ('A' for Active; 'I' for Inactive)
REMARK    1  A    between atoms: C_1  and  C_2
REMARK    2  A    between atoms: C_2  and  N_3
REMARK    3  A    between atoms: N_3  and  C_4
REMARK    4  A    between atoms: N_3  and  C_6
REMARK    5  A    between atoms: C_4  and  C_5
REMARK    6  A    between atoms: C_11  and  O_12
REMARK    7  A    between atoms: O_12  and  C_13
REMARK    8  A    between atoms: C_14  and  O_15
REMARK    9  A    between atoms: O_15  and  C_16
REMARK                            x       y       z     vdW  Elec       q    Type
REMARK                         _______ _______ _______ _____ _____    ______ ____
ROOT
ATOM      1  C   UNL     1       4.380   3.887  18.571  0.00  0.00    +0.000 C 
ATOM      2  C   UNL     1       3.787   3.562  17.181  0.00  0.00    +0.000 C 
ATOM      3  C   UNL     1       4.902   3.994  16.273  0.00  0.00    +0.000 A 
ATOM      4  C   UNL     1       5.076   3.609  14.953  0.00  0.00    +0.000 A 
ATOM      5  C   UNL     1       6.146   4.145  14.244  0.00  0.00    +0.000 A 
ATOM      6  C   UNL     1       7.017   5.071  14.850  0.00  0.00    +0.000 A 
ATOM      7  C   UNL     1       6.824   5.472  16.196  0.00  0.00    +0.000 A 
ATOM      8  C   UNL     1       5.765   4.906  16.904  0.00  0.00    +0.000 A 
ATOM      9  C   UNL     1       5.273   5.129  18.307  0.00  0.00    +0.000 C 
ENDROOT
BRANCH   6  10
ATOM     10  O   UNL     1       8.085   5.651  14.200  0.00  0.00    +0.000 OA
ATOM     11  C   UNL     1       8.143   5.531  12.786  0.00  0.00    +0.000 C 
ENDBRANCH   6  10
BRANCH   7  12
ATOM     12  O   UNL     1       7.731   6.398  16.640  0.00  0.00    +0.000 OA
ATOM     13  C   UNL     1       7.306   7.521  17.385  0.00  0.00    +0.000 C 
ENDBRANCH   7  12
BRANCH   1  14
ATOM     14  N   UNL     1       3.392   4.064  19.663  0.00  0.00    +0.000 NA
BRANCH  14  16
ATOM     15  C   UNL     1       0.886   4.062  20.064  0.00  0.00    +0.000 C 
ATOM     16  C   UNL     1       2.052   4.362  19.122  0.00  0.00    +0.000 C 
ENDBRANCH  14  16
BRANCH  14  17
ATOM     17  C   UNL     1       3.400   2.946  20.626  0.00  0.00    +0.000 C 
ATOM     18  C   UNL     1       4.482   1.888  20.418  0.00  0.00    +0.000 C 
ENDBRANCH  14  17
ENDBRANCH   1  14
TORSDOF 5
ENDMDL
MODEL 4
REMARK VINA RESULT:      -6.1      0.935      1.137
REMARK  Name = 
REMARK  9 active torsions:
REMARK  status: ('A' for Active; 'I' for Inactive)
REMARK    1  A    between atoms: C_1  and  C_2
REMARK    2  A    between atoms: C_2  and  N_3
REMARK    3  A    between atoms: N_3  and  C_4
REMARK    4  A    between atoms: N_3  and  C_6
REMARK    5  A    between atoms: C_4  and  C_5
REMARK    6  A    between atoms: C_11  and  O_12
REMARK    7  A    between atoms: O_12  and  C_13
REMARK    8  A    between atoms: C_14  and  O_15
REMARK    9  A    between atoms: O_15  and  C_16
REMARK                            x       y       z     vdW  Elec       q    Type
REMARK                         _______ _______ _______ _____ _____    ______ ____
ROOT
ATOM      1  C   UNL     1       3.854   5.127  19.222  0.00  0.00    +0.000 C 
ATOM      2  C   UNL     1       3.448   4.166  18.080  0.00  0.00    +0.000 C 
ATOM      3  C   UNL     1       4.580   4.357  17.114  0.00  0.00    +0.000 A 
ATOM      4  C   UNL     1       4.931   3.495  16.086  0.00  0.00    +0.000 A 
ATOM      5  C   UNL     1       5.987   3.855  15.254  0.00  0.00    +0.000 A 
ATOM      6  C   UNL     1       6.666   5.074  15.441  0.00  0.00    +0.000 A 
ATOM      7  C   UNL     1       6.291   5.959  16.485  0.00  0.00    +0.000 A 
ATOM      8  C   UNL     1       5.250   5.574  17.328  0.00  0.00    +0.000 A 
ATOM      9  C   UNL     1       4.598   6.275  18.488  0.00  0.00    +0.000 C 
ENDROOT
BRANCH   6  10
ATOM     10  O   UNL     1       7.708   5.497  14.644  0.00  0.00    +0.000 OA
ATOM     11  C   UNL     1       7.698   5.103  13.279  0.00  0.00    +0.000 C 
ENDBRANCH   6  10
BRANCH   7  12
ATOM     12  O   UNL     1       7.021   7.117  16.526  0.00  0.00    +0.000 OA
ATOM     13  C   UNL     1       7.742   7.471  17.687  0.00  0.00    +0.000 C 
ENDBRANCH   7  12
BRANCH   1  14
ATOM     14  N   UNL     1       2.748   5.578  20.102  0.00  0.00    +0.000 NA
BRANCH  14  16
ATOM     15  C   UNL     1       1.502   7.693  20.744  0.00  0.00    +0.000 C 
ATOM     16  C   UNL     1       2.220   6.884  19.664  0.00  0.00    +0.000 C 
ENDBRANCH  14  16
BRANCH  14  17
ATOM     17  C   UNL     1       1.703   4.551  20.276  0.00  0.00    +0.000 C 
ATOM     18  C   UNL     1       1.904   3.579  21.437  0.00  0.00    +0.000 C 
ENDBRANCH  14  17
ENDBRANCH   1  14
TORSDOF 5
ENDMDL
MODEL 5
REMARK VINA RESULT:      -6.0      2.908      6.152
REMARK  Name = 
REMARK  9 active torsions:
REMARK  status: ('A' for Active; 'I' for Inactive)
REMARK    1  A    between atoms: C_1  and  C_2
REMARK    2  A    between atoms: C_2  and  N_3
REMARK    3  A    between atoms: N_3  and  C_4
REMARK    4  A    between atoms: N_3  and  C_6
REMARK    5  A    between atoms: C_4  and  C_5
REMARK    6  A    between atoms: C_11  and  O_12
REMARK    7  A    between atoms: O_12  and  C_13
REMARK    8  A    between atoms: C_14  and  O_15
REMARK    9  A    between atoms: O_15  and  C_16
REMARK                            x       y       z     vdW  Elec       q    Type
REMARK                         _______ _______ _______ _____ _____    ______ ____
ROOT
ATOM      1  C   UNL     1       5.563   5.862  17.518  0.00  0.00    +0.000 C 
ATOM      2  C   UNL     1       4.115   6.339  17.256  0.00  0.00    +0.000 C 
ATOM      3  C   UNL     1       3.329   5.382  18.105  0.00  0.00    +0.000 A 
ATOM      4  C   UNL     1       2.025   5.558  18.540  0.00  0.00    +0.000 A 
ATOM      5  C   UNL     1       1.435   4.542  19.286  0.00  0.00    +0.000 A 
ATOM      6  C   UNL     1       2.141   3.358  19.572  0.00  0.00    +0.000 A 
ATOM      7  C   UNL     1       3.469   3.178  19.109  0.00  0.00    +0.000 A 
ATOM      8  C   UNL     1       4.058   4.215  18.387  0.00  0.00    +0.000 A 
ATOM      9  C   UNL     1       5.411   4.334  17.742  0.00  0.00    +0.000 C 
ENDROOT
BRANCH   6  10
ATOM     10  O   UNL     1       1.610   2.308  20.290  0.00  0.00    +0.000 OA
ATOM     11  C   UNL     1       1.390   2.504  21.680  0.00  0.00    +0.000 C 
ENDBRANCH   6  10
BRANCH   7  12
ATOM     12  O   UNL     1       4.017   1.967  19.439  0.00  0.00    +0.000 OA
ATOM     13  C   UNL     1       4.899   1.851  20.536  0.00  0.00    +0.000 C 
ENDBRANCH   7  12
BRANCH   1  14
ATOM     14  N   UNL     1       6.556   6.235  16.480  0.00  0.00    +0.000 NA
BRANCH  14  16
ATOM     15  C   UNL     1       7.956   6.926  18.480  0.00  0.00    +0.000 C 
ATOM     16  C   UNL     1       7.566   7.164  17.022  0.00  0.00    +0.000 C 
ENDBRANCH  14  16
BRANCH  14  17
ATOM     17  C   UNL     1       7.141   5.062  15.804  0.00  0.00    +0.000 C 
ATOM     18  C   UNL     1       6.607   4.758  14.405  0.00  0.00    +0.000 C 
ENDBRANCH  14  17
ENDBRANCH   1  14
TORSDOF 5
ENDMDL
MODEL 6
REMARK VINA RESULT:      -6.0      3.048      6.453
REMARK  Name = 
REMARK  9 active torsions:
REMARK  status: ('A' for Active; 'I' for Inactive)
REMARK    1  A    between atoms: C_1  and  C_2
REMARK    2  A    between atoms: C_2  and  N_3
REMARK    3  A    between atoms: N_3  and  C_4
REMARK    4  A    between atoms: N_3  and  C_6
REMARK    5  A    between atoms: C_4  and  C_5
REMARK    6  A    between atoms: C_11  and  O_12
REMARK    7  A    between atoms: O_12  and  C_13
REMARK    8  A    between atoms: C_14  and  O_15
REMARK    9  A    between atoms: O_15  and  C_16
REMARK                            x       y       z     vdW  Elec       q    Type
REMARK                         _______ _______ _______ _____ _____    ______ ____
ROOT
ATOM      1  C   UNL     1       5.134   5.916  17.474  0.00  0.00    +0.000 C 
ATOM      2  C   UNL     1       4.089   6.893  18.063  0.00  0.00    +0.000 C 
ATOM      3  C   UNL     1       3.212   5.957  18.841  0.00  0.00    +0.000 A 
ATOM      4  C   UNL     1       2.336   6.311  19.856  0.00  0.00    +0.000 A 
ATOM      5  C   UNL     1       1.563   5.312  20.440  0.00  0.00    +0.000 A 
ATOM      6  C   UNL     1       1.656   3.979  19.996  0.00  0.00    +0.000 A 
ATOM      7  C   UNL     1       2.543   3.627  18.947  0.00  0.00    +0.000 A 
ATOM      8  C   UNL     1       3.331   4.631  18.389  0.00  0.00    +0.000 A 
ATOM      9  C   UNL     1       4.332   4.604  17.266  0.00  0.00    +0.000 C 
ENDROOT
BRANCH   6  10
ATOM     10  O   UNL     1       0.909   2.946  20.520  0.00  0.00    +0.000 OA
ATOM     11  C   UNL     1       1.269   2.456  21.804  0.00  0.00    +0.000 C 
ENDBRANCH   6  10
BRANCH   7  12
ATOM     12  O   UNL     1       2.504   2.301  18.603  0.00  0.00    +0.000 OA
ATOM     13  C   UNL     1       3.634   1.475  18.796  0.00  0.00    +0.000 C 
ENDBRANCH   7  12
BRANCH   1  14
ATOM     14  N   UNL     1       5.848   6.396  16.266  0.00  0.00    +0.000 NA
BRANCH  14  16
ATOM     15  C   UNL     1       7.581   7.769  17.512  0.00  0.00    +0.000 C 
ATOM     16  C   UNL     1       7.279   6.621  16.550  0.00  0.00    +0.000 C 
ENDBRANCH  14  16
BRANCH  14  17
ATOM     17  C   UNL     1       5.612   5.543  15.087  0.00  0.00    +0.000 C 
ATOM     18  C   UNL     1       6.823   4.774  14.560  0.00  0.00    +0.000 C 
ENDBRANCH  14  17
ENDBRANCH   1  14
TORSDOF 5
ENDMDL
MODEL 7
REMARK VINA RESULT:      -6.0      0.504      1.525
REMARK  Name = 
REMARK  9 active torsions:
REMARK  status: ('A' for Active; 'I' for Inactive)
REMARK    1  A    between atoms: C_1  and  C_2
REMARK    2  A    between atoms: C_2  and  N_3
REMARK    3  A    between atoms: N_3  and  C_4
REMARK    4  A    between atoms: N_3  and  C_6
REMARK    5  A    between atoms: C_4  and  C_5
REMARK    6  A    between atoms: C_11  and  O_12
REMARK    7  A    between atoms: O_12  and  C_13
REMARK    8  A    between atoms: C_14  and  O_15
REMARK    9  A    between atoms: O_15  and  C_16
REMARK                            x       y       z     vdW  Elec       q    Type
REMARK                         _______ _______ _______ _____ _____    ______ ____
ROOT
ATOM      1  C   UNL     1       4.094   3.688  18.484  0.00  0.00    +0.000 C 
ATOM      2  C   UNL     1       3.502   3.585  17.059  0.00  0.00    +0.000 C 
ATOM      3  C   UNL     1       4.668   4.024  16.221  0.00  0.00    +0.000 A 
ATOM      4  C   UNL     1       4.835   3.788  14.865  0.00  0.00    +0.000 A 
ATOM      5  C   UNL     1       5.961   4.310  14.237  0.00  0.00    +0.000 A 
ATOM      6  C   UNL     1       6.896   5.075  14.960  0.00  0.00    +0.000 A 
ATOM      7  C   UNL     1       6.711   5.327  16.343  0.00  0.00    +0.000 A 
ATOM      8  C   UNL     1       5.593   4.775  16.966  0.00  0.00    +0.000 A 
ATOM      9  C   UNL     1       5.095   4.869  18.382  0.00  0.00    +0.000 C 
ENDROOT
BRANCH   6  10
ATOM     10  O   UNL     1       8.023   5.634  14.396  0.00  0.00    +0.000 OA
ATOM     11  C   UNL     1       8.175   5.535  12.987  0.00  0.00    +0.000 C 
ENDBRANCH   6  10
BRANCH   7  12
ATOM     12  O   UNL     1       7.685   6.109  16.905  0.00  0.00    +0.000 OA
ATOM     13  C   UNL     1       7.382   7.404  17.382  0.00  0.00    +0.000 C 
ENDBRANCH   7  12
BRANCH   1  14
ATOM     14  N   UNL     1       3.102   3.817  19.580  0.00  0.00    +0.000 NA
BRANCH  14  16
ATOM     15  C   UNL     1       2.222   2.724  21.694  0.00  0.00    +0.000 C 
ATOM     16  C   UNL     1       3.219   2.700  20.536  0.00  0.00    +0.000 C 
ENDBRANCH  14  16
BRANCH  14  17
ATOM     17  C   UNL     1       3.132   5.145  20.223  0.00  0.00    +0.000 C 
ATOM     18  C   UNL     1       1.827   5.939  20.184  0.00  0.00    +0.000 C 
ENDBRANCH  14  17
ENDBRANCH   1  14
TORSDOF 5
ENDMDL
MODEL 8
REMARK VINA RESULT:      -5.9      1.041      1.809
REMARK  Name = 
REMARK  9 active torsions:
REMARK  status: ('A' for Active; 'I' for Inactive)
REMARK    1  A    between atoms: C_1  and  C_2
REMARK    2  A    between atoms: C_2  and  N_3
REMARK    3  A    between atoms: N_3  and  C_4
REMARK    4  A    between atoms: N_3  and  C_6
REMARK    5  A    between atoms: C_4  and  C_5
REMARK    6  A    between atoms: C_11  and  O_12
REMARK    7  A    between atoms: O_12  and  C_13
REMARK    8  A    between atoms: C_14  and  O_15
REMARK    9  A    between atoms: O_15  and  C_16
REMARK                            x       y       z     vdW  Elec       q    Type
REMARK                         _______ _______ _______ _____ _____    ______ ____
ROOT
ATOM      1  C   UNL     1       3.236   4.829  18.745  0.00  0.00    +0.000 C 
ATOM      2  C   UNL     1       3.118   3.821  17.577  0.00  0.00    +0.000 C 
ATOM      3  C   UNL     1       4.352   4.138  16.785  0.00  0.00    +0.000 A 
ATOM      4  C   UNL     1       4.949   3.317  15.840  0.00  0.00    +0.000 A 
ATOM      5  C   UNL     1       6.069   3.793  15.165  0.00  0.00    +0.000 A 
ATOM      6  C   UNL     1       6.569   5.083  15.423  0.00  0.00    +0.000 A 
ATOM      7  C   UNL     1       5.943   5.924  16.379  0.00  0.00    +0.000 A 
ATOM      8  C   UNL     1       4.839   5.425  17.068  0.00  0.00    +0.000 A 
ATOM      9  C   UNL     1       3.946   6.051  18.103  0.00  0.00    +0.000 C 
ENDROOT
BRANCH   6  10
ATOM     10  O   UNL     1       7.663   5.621  14.779  0.00  0.00    +0.000 OA
ATOM     11  C   UNL     1       7.838   5.310  13.404  0.00  0.00    +0.000 C 
ENDBRANCH   6  10
BRANCH   7  12
ATOM     12  O   UNL     1       6.522   7.159  16.501  0.00  0.00    +0.000 OA
ATOM     13  C   UNL     1       7.436   7.426  17.545  0.00  0.00    +0.000 C 
ENDBRANCH   7  12
BRANCH   1  14
ATOM     14  N   UNL     1       1.968   5.153  19.442  0.00  0.00    +0.000 NA
BRANCH  14  16
ATOM     15  C   UNL     1       1.453   3.200  20.978  0.00  0.00    +0.000 C 
ATOM     16  C   UNL     1       1.163   3.937  19.671  0.00  0.00    +0.000 C 
ENDBRANCH  14  16
BRANCH  14  17
ATOM     17  C   UNL     1       2.175   5.957  20.661  0.00  0.00    +0.000 C 
ATOM     18  C   UNL     1       1.516   7.335  20.677  0.00  0.00    +0.000 C 
ENDBRANCH  14  17
ENDBRANCH   1  14
TORSDOF 5
ENDMDL
MODEL 9
REMARK VINA RESULT:      -5.9      3.209      6.448
REMARK  Name = 
REMARK  9 active torsions:
REMARK  status: ('A' for Active; 'I' for Inactive)
REMARK    1  A    between atoms: C_1  and  C_2
REMARK    2  A    between atoms: C_2  and  N_3
REMARK    3  A    between atoms: N_3  and  C_4
REMARK    4  A    between atoms: N_3  and  C_6
REMARK    5  A    between atoms: C_4  and  C_5
REMARK    6  A    between atoms: C_11  and  O_12
REMARK    7  A    between atoms: O_12  and  C_13
REMARK    8  A    between atoms: C_14  and  O_15
REMARK    9  A    between atoms: O_15  and  C_16
REMARK                            x       y       z     vdW  Elec       q    Type
REMARK                         _______ _______ _______ _____ _____    ______ ____
ROOT
ATOM      1  C   UNL     1       5.140   5.500  17.446  0.00  0.00    +0.000 C 
ATOM      2  C   UNL     1       4.373   6.645  16.744  0.00  0.00    +0.000 C 
ATOM      3  C   UNL     1       3.448   7.096  17.837  0.00  0.00    +0.000 A 
ATOM      4  C   UNL     1       2.787   8.313  17.897  0.00  0.00    +0.000 A 
ATOM      5  C   UNL     1       1.928   8.546  18.967  0.00  0.00    +0.000 A 
ATOM      6  C   UNL     1       1.722   7.560  19.951  0.00  0.00    +0.000 A 
ATOM      7  C   UNL     1       2.389   6.310  19.874  0.00  0.00    +0.000 A 
ATOM      8  C   UNL     1       3.268   6.101  18.813  0.00  0.00    +0.000 A 
ATOM      9  C   UNL     1       4.096   4.905  18.427  0.00  0.00    +0.000 C 
ENDROOT
BRANCH   6  10
ATOM     10  O   UNL     1       0.874   7.720  21.025  0.00  0.00    +0.000 OA
ATOM     11  C   UNL     1       0.346   9.017  21.263  0.00  0.00    +0.000 C 
ENDBRANCH   6  10
BRANCH   7  12
ATOM     12  O   UNL     1       2.069   5.442  20.883  0.00  0.00    +0.000 OA
ATOM     13  C   UNL     1       1.296   4.289  20.622  0.00  0.00    +0.000 C 
ENDBRANCH   7  12
BRANCH   1  14
ATOM     14  N   UNL     1       5.770   4.505  16.543  0.00  0.00    +0.000 NA
BRANCH  14  16
ATOM     15  C   UNL     1       6.385   4.293  14.090  0.00  0.00    +0.000 C 
ATOM     16  C   UNL     1       5.366   4.730  15.141  0.00  0.00    +0.000 C 
ENDBRANCH  14  16
BRANCH  14  17
ATOM     17  C   UNL     1       7.231   4.414  16.724  0.00  0.00    +0.000 C 
ATOM     18  C   UNL     1       7.770   4.879  18.076  0.00  0.00    +0.000 C 
ENDBRANCH  14  17
ENDBRANCH   1  14
TORSDOF 5
ENDMDL
