MODEL 1
REMARK VINA RESULT:      -5.5      0.000      0.000
REMARK  Name = 
REMARK  9 active torsions:
REMARK  status: ('A' for Active; 'I' for Inactive)
REMARK    1  A    between atoms: C_1  and  N_2
REMARK    2  A    between atoms: N_2  and  C_3
REMARK    3  A    between atoms: N_2  and  C_4
REMARK    4  A    between atoms: C_4  and  C_5
REMARK    5  A    between atoms: C_5  and  O_6
REMARK    6  A    between atoms: O_6  and  C_7
REMARK    7  A    between atoms: C_7  and  C_8
REMARK    8  A    between atoms: C_8  and  C_9
REMARK    9  A    between atoms: C_9  and  C_10
REMARK                            x       y       z     vdW  Elec       q    Type
REMARK                         _______ _______ _______ _____ _____    ______ ____
ROOT
ATOM      1  C   UNL     1       4.266   3.430  18.208  0.00  0.00    +0.000 C 
ENDROOT
BRANCH   1   2
ATOM      2  C   UNL     1       3.015   3.763  17.415  0.00  0.00    +0.000 C 
BRANCH   2   3
ATOM      3  O   UNL     1       2.202   2.603  17.429  0.00  0.00    +0.000 OA
BRANCH   3   4
ATOM      4  C   UNL     1       2.020   2.068  18.731  0.00  0.00    +0.000 C 
BRANCH   4   5
ATOM      5  C   UNL     1       0.794   2.747  19.371  0.00  0.00    +0.000 C 
BRANCH   5   7
ATOM      6  C   UNL     1       2.183   2.687  21.373  0.00  0.00    +0.000 C 
ATOM      7  N   UNL     1       1.067   3.342  20.695  0.00  0.00    +0.000 NA
ATOM      8  C   UNL     1       1.291   4.780  20.597  0.00  0.00    +0.000 C 
ENDBRANCH   5   7
ENDBRANCH   4   5
ENDBRANCH   3   4
ENDBRANCH   2   3
ENDBRANCH   1   2
BRANCH   1   9
ATOM      9  C   UNL     1       4.575   4.561  19.191  0.00  0.00    +0.000 C 
BRANCH   9  10
ATOM     10  C   UNL     1       5.660   5.462  18.674  0.00  0.00    +0.000 A 
ATOM     11  C   UNL     1       5.421   6.287  17.568  0.00  0.00    +0.000 A 
ATOM     12  C   UNL     1       6.422   7.135  17.102  0.00  0.00    +0.000 A 
ATOM     13  C   UNL     1       7.663   7.161  17.739  0.00  0.00    +0.000 A 
ATOM     14  C   UNL     1       7.911   6.326  18.828  0.00  0.00    +0.000 A 
ATOM     15  C   UNL     1       6.914   5.472  19.291  0.00  0.00    +0.000 A 
ENDBRANCH   9  10
ENDBRANCH   1   9
TORSDOF 7
ENDMDL
MODEL 2
REMARK VINA RESULT:      -5.3      2.655      5.924
REMARK  Name = 
REMARK  9 active torsions:
REMARK  status: ('A' for Active; 'I' for Inactive)
REMARK    1  A    between atoms: C_1  and  N_2
REMARK    2  A    between atoms: N_2  and  C_3
REMARK    3  A    between atoms: N_2  and  C_4
REMARK    4  A    between atoms: C_4  and  C_5
REMARK    5  A    between atoms: C_5  and  O_6
REMARK    6  A    between atoms: O_6  and  C_7
REMARK    7  A    between atoms: C_7  and  C_8
REMARK    8  A    between atoms: C_8  and  C_9
REMARK    9  A    between atoms: C_9  and  C_10
REMARK                            x       y       z     vdW  Elec       q    Type
REMARK                         _______ _______ _______ _____ _____    ______ ____
ROOT
ATOM      1  C   UNL     1       3.419   5.047  17.431  0.00  0.00    +0.000 C 
ENDROOT
BRANCH   1   2
ATOM      2  C   UNL     1       4.196   3.798  17.057  0.00  0.00    +0.000 C 
BRANCH   2   3
ATOM      3  O   UNL     1       4.724   4.018  15.761  0.00  0.00    +0.000 OA
BRANCH   3   4
ATOM      4  C   UNL     1       6.143   4.031  15.733  0.00  0.00    +0.000 C 
BRANCH   4   5
ATOM      5  C   UNL     1       6.620   5.495  15.781  0.00  0.00    +0.000 C 
BRANCH   5   7
ATOM      6  C   UNL     1       7.337   7.048  17.517  0.00  0.00    +0.000 C 
ATOM      7  N   UNL     1       7.592   5.769  16.860  0.00  0.00    +0.000 NA
ATOM      8  C   UNL     1       7.628   4.683  17.833  0.00  0.00    +0.000 C 
ENDBRANCH   5   7
ENDBRANCH   4   5
ENDBRANCH   3   4
ENDBRANCH   2   3
ENDBRANCH   1   2
BRANCH   1   9
ATOM      9  C   UNL     1       1.974   4.679  17.773  0.00  0.00    +0.000 C 
BRANCH   9  10
ATOM     10  C   UNL     1       1.864   4.102  19.155  0.00  0.00    +0.000 A 
ATOM     11  C   UNL     1       1.147   2.918  19.367  0.00  0.00    +0.000 A 
ATOM     12  C   UNL     1       1.062   2.375  20.646  0.00  0.00    +0.000 A 
ATOM     13  C   UNL     1       1.690   3.012  21.715  0.00  0.00    +0.000 A 
ATOM     14  C   UNL     1       2.389   4.202  21.511  0.00  0.00    +0.000 A 
ATOM     15  C   UNL     1       2.469   4.751  20.235  0.00  0.00    +0.000 A 
ENDBRANCH   9  10
ENDBRANCH   1   9
TORSDOF 7
ENDMDL
MODEL 3
REMARK VINA RESULT:      -5.3      1.048      1.203
REMARK  Name = 
REMARK  9 active torsions:
REMARK  status: ('A' for Active; 'I' for Inactive)
REMARK    1  A    between atoms: C_1  and  N_2
REMARK    2  A    between atoms: N_2  and  C_3
REMARK    3  A    between atoms: N_2  and  C_4
REMARK    4  A    between atoms: C_4  and  C_5
REMARK    5  A    between atoms: C_5  and  O_6
REMARK    6  A    between atoms: O_6  and  C_7
REMARK    7  A    between atoms: C_7  and  C_8
REMARK    8  A    between atoms: C_8  and  C_9
REMARK    9  A    between atoms: C_9  and  C_10
REMARK                            x       y       z     vdW  Elec       q    Type
REMARK                         _______ _______ _______ _____ _____    ______ ____
ROOT
ATOM      1  C   UNL     1       4.401   2.925  17.623  0.00  0.00    +0.000 C 
ENDROOT
BRANCH   1   2
ATOM      2  C   UNL     1       2.974   2.413  17.694  0.00  0.00    +0.000 C 
BRANCH   2   3
ATOM      3  O   UNL     1       2.150   3.420  17.135  0.00  0.00    +0.000 OA
BRANCH   3   4
ATOM      4  C   UNL     1       1.333   4.069  18.098  0.00  0.00    +0.000 C 
BRANCH   4   5
ATOM      5  C   UNL     1       0.955   3.046  19.186  0.00  0.00    +0.000 C 
BRANCH   5   7
ATOM      6  C   UNL     1       1.601   2.658  21.504  0.00  0.00    +0.000 C 
ATOM      7  N   UNL     1       1.000   3.594  20.558  0.00  0.00    +0.000 NA
ATOM      8  C   UNL     1       1.685   4.882  20.596  0.00  0.00    +0.000 C 
ENDBRANCH   5   7
ENDBRANCH   4   5
ENDBRANCH   3   4
ENDBRANCH   2   3
ENDBRANCH   1   2
BRANCH   1   9
ATOM      9  C   UNL     1       4.458   4.189  16.765  0.00  0.00    +0.000 C 
BRANCH   9  10
ATOM     10  C   UNL     1       5.573   5.099  17.195  0.00  0.00    +0.000 A 
ATOM     11  C   UNL     1       5.597   6.433  16.769  0.00  0.00    +0.000 A 
ATOM     12  C   UNL     1       6.622   7.279  17.184  0.00  0.00    +0.000 A 
ATOM     13  C   UNL     1       7.623   6.796  18.026  0.00  0.00    +0.000 A 
ATOM     14  C   UNL     1       7.613   5.464  18.437  0.00  0.00    +0.000 A 
ATOM     15  C   UNL     1       6.594   4.614  18.017  0.00  0.00    +0.000 A 
ENDBRANCH   9  10
ENDBRANCH   1   9
TORSDOF 7
ENDMDL
MODEL 4
REMARK VINA RESULT:      -5.3      2.600      5.891
REMARK  Name = 
REMARK  9 active torsions:
REMARK  status: ('A' for Active; 'I' for Inactive)
REMARK    1  A    between atoms: C_1  and  N_2
REMARK    2  A    between atoms: N_2  and  C_3
REMARK    3  A    between atoms: N_2  and  C_4
REMARK    4  A    between atoms: C_4  and  C_5
REMARK    5  A    between atoms: C_5  and  O_6
REMARK    6  A    between atoms: O_6  and  C_7
REMARK    7  A    between atoms: C_7  and  C_8
REMARK    8  A    between atoms: C_8  and  C_9
REMARK    9  A    between atoms: C_9  and  C_10
REMARK                            x       y       z     vdW  Elec       q    Type
REMARK                         _______ _______ _______ _____ _____    ______ ____
ROOT
ATOM      1  C   UNL     1       3.717   5.234  17.390  0.00  0.00    +0.000 C 
ENDROOT
BRANCH   1   2
ATOM      2  C   UNL     1       4.755   4.127  17.434  0.00  0.00    +0.000 C 
BRANCH   2   3
ATOM      3  O   UNL     1       5.318   4.043  16.137  0.00  0.00    +0.000 OA
BRANCH   3   4
ATOM      4  C   UNL     1       6.482   4.841  15.984  0.00  0.00    +0.000 C 
BRANCH   4   5
ATOM      5  C   UNL     1       7.402   4.602  17.197  0.00  0.00    +0.000 C 
BRANCH   5   7
ATOM      6  C   UNL     1       7.097   7.013  17.373  0.00  0.00    +0.000 C 
ATOM      7  N   UNL     1       7.775   5.839  17.914  0.00  0.00    +0.000 NA
ATOM      8  C   UNL     1       7.535   5.716  19.348  0.00  0.00    +0.000 C 
ENDBRANCH   5   7
ENDBRANCH   4   5
ENDBRANCH   3   4
ENDBRANCH   2   3
ENDBRANCH   1   2
BRANCH   1   9
ATOM      9  C   UNL     1       3.395   5.702  18.810  0.00  0.00    +0.000 C 
BRANCH   9  10
ATOM     10  C   UNL     1       2.578   4.685  19.555  0.00  0.00    +0.000 A 
ATOM     11  C   UNL     1       2.843   4.421  20.904  0.00  0.00    +0.000 A 
ATOM     12  C   UNL     1       2.071   3.492  21.598  0.00  0.00    +0.000 A 
ATOM     13  C   UNL     1       1.035   2.825  20.945  0.00  0.00    +0.000 A 
ATOM     14  C   UNL     1       0.781   3.070  19.596  0.00  0.00    +0.000 A 
ATOM     15  C   UNL     1       1.555   3.993  18.899  0.00  0.00    +0.000 A 
ENDBRANCH   9  10
ENDBRANCH   1   9
TORSDOF 7
ENDMDL
MODEL 5
REMARK VINA RESULT:      -5.3      2.998      6.012
REMARK  Name = 
REMARK  9 active torsions:
REMARK  status: ('A' for Active; 'I' for Inactive)
REMARK    1  A    between atoms: C_1  and  N_2
REMARK    2  A    between atoms: N_2  and  C_3
REMARK    3  A    between atoms: N_2  and  C_4
REMARK    4  A    between atoms: C_4  and  C_5
REMARK    5  A    between atoms: C_5  and  O_6
REMARK    6  A    between atoms: O_6  and  C_7
REMARK    7  A    between atoms: C_7  and  C_8
REMARK    8  A    between atoms: C_8  and  C_9
REMARK    9  A    between atoms: C_9  and  C_10
REMARK                            x       y       z     vdW  Elec       q    Type
REMARK                         _______ _______ _______ _____ _____    ______ ____
ROOT
ATOM      1  C   UNL     1       4.845   5.823  18.658  0.00  0.00    +0.000 C 
ENDROOT
BRANCH   1   2
ATOM      2  C   UNL     1       5.380   4.404  18.737  0.00  0.00    +0.000 C 
BRANCH   2   3
ATOM      3  O   UNL     1       6.755   4.467  18.401  0.00  0.00    +0.000 OA
BRANCH   3   4
ATOM      4  C   UNL     1       6.981   4.872  17.060  0.00  0.00    +0.000 C 
BRANCH   4   5
ATOM      5  C   UNL     1       6.411   3.793  16.121  0.00  0.00    +0.000 C 
BRANCH   5   7
ATOM      6  C   UNL     1       5.525   5.792  15.045  0.00  0.00    +0.000 C 
ATOM      7  N   UNL     1       5.663   4.340  14.970  0.00  0.00    +0.000 NA
ATOM      8  C   UNL     1       6.266   3.940  13.703  0.00  0.00    +0.000 C 
ENDBRANCH   5   7
ENDBRANCH   4   5
ENDBRANCH   3   4
ENDBRANCH   2   3
ENDBRANCH   1   2
BRANCH   1   9
ATOM      9  C   UNL     1       3.465   5.822  17.998  0.00  0.00    +0.000 C 
BRANCH   9  10
ATOM     10  C   UNL     1       2.521   4.882  18.691  0.00  0.00    +0.000 A 
ATOM     11  C   UNL     1       2.194   5.079  20.038  0.00  0.00    +0.000 A 
ATOM     12  C   UNL     1       1.304   4.217  20.673  0.00  0.00    +0.000 A 
ATOM     13  C   UNL     1       0.740   3.156  19.965  0.00  0.00    +0.000 A 
ATOM     14  C   UNL     1       1.079   2.944  18.629  0.00  0.00    +0.000 A 
ATOM     15  C   UNL     1       1.974   3.801  17.994  0.00  0.00    +0.000 A 
ENDBRANCH   9  10
ENDBRANCH   1   9
TORSDOF 7
ENDMDL
MODEL 6
REMARK VINA RESULT:      -5.2      2.595      5.719
REMARK  Name = 
REMARK  9 active torsions:
REMARK  status: ('A' for Active; 'I' for Inactive)
REMARK    1  A    between atoms: C_1  and  N_2
REMARK    2  A    between atoms: N_2  and  C_3
REMARK    3  A    between atoms: N_2  and  C_4
REMARK    4  A    between atoms: C_4  and  C_5
REMARK    5  A    between atoms: C_5  and  O_6
REMARK    6  A    between atoms: O_6  and  C_7
REMARK    7  A    between atoms: C_7  and  C_8
REMARK    8  A    between atoms: C_8  and  C_9
REMARK    9  A    between atoms: C_9  and  C_10
REMARK                            x       y       z     vdW  Elec       q    Type
REMARK                         _______ _______ _______ _____ _____    ______ ____
ROOT
ATOM      1  C   UNL     1       3.939   3.917  16.552  0.00  0.00    +0.000 C 
ENDROOT
BRANCH   1   2
ATOM      2  C   UNL     1       4.925   4.517  15.566  0.00  0.00    +0.000 C 
BRANCH   2   3
ATOM      3  O   UNL     1       6.142   3.808  15.723  0.00  0.00    +0.000 OA
BRANCH   3   4
ATOM      4  C   UNL     1       7.246   4.654  16.006  0.00  0.00    +0.000 C 
BRANCH   4   5
ATOM      5  C   UNL     1       7.552   4.572  17.513  0.00  0.00    +0.000 C 
BRANCH   5   7
ATOM      6  C   UNL     1       7.708   5.793  19.616  0.00  0.00    +0.000 C 
ATOM      7  N   UNL     1       7.140   5.771  18.271  0.00  0.00    +0.000 NA
ATOM      8  C   UNL     1       7.468   6.996  17.549  0.00  0.00    +0.000 C 
ENDBRANCH   5   7
ENDBRANCH   4   5
ENDBRANCH   3   4
ENDBRANCH   2   3
ENDBRANCH   1   2
BRANCH   1   9
ATOM      9  C   UNL     1       3.808   4.826  17.775  0.00  0.00    +0.000 C 
BRANCH   9  10
ATOM     10  C   UNL     1       2.758   4.325  18.725  0.00  0.00    +0.000 A 
ATOM     11  C   UNL     1       1.870   3.319  18.326  0.00  0.00    +0.000 A 
ATOM     12  C   UNL     1       0.910   2.844  19.215  0.00  0.00    +0.000 A 
ATOM     13  C   UNL     1       0.832   3.373  20.503  0.00  0.00    +0.000 A 
ATOM     14  C   UNL     1       1.702   4.389  20.898  0.00  0.00    +0.000 A 
ATOM     15  C   UNL     1       2.659   4.871  20.008  0.00  0.00    +0.000 A 
ENDBRANCH   9  10
ENDBRANCH   1   9
TORSDOF 7
ENDMDL
MODEL 7
REMARK VINA RESULT:      -5.2      3.009      6.053
REMARK  Name = 
REMARK  9 active torsions:
REMARK  status: ('A' for Active; 'I' for Inactive)
REMARK    1  A    between atoms: C_1  and  N_2
REMARK    2  A    between atoms: N_2  and  C_3
REMARK    3  A    between atoms: N_2  and  C_4
REMARK    4  A    between atoms: C_4  and  C_5
REMARK    5  A    between atoms: C_5  and  O_6
REMARK    6  A    between atoms: O_6  and  C_7
REMARK    7  A    between atoms: C_7  and  C_8
REMARK    8  A    between atoms: C_8  and  C_9
REMARK    9  A    between atoms: C_9  and  C_10
REMARK                            x       y       z     vdW  Elec       q    Type
REMARK                         _______ _______ _______ _____ _____    ______ ____
ROOT
ATOM      1  C   UNL     1       5.282   4.838  19.462  0.00  0.00    +0.000 C 
ENDROOT
BRANCH   1   2
ATOM      2  C   UNL     1       6.374   5.731  18.902  0.00  0.00    +0.000 C 
BRANCH   2   3
ATOM      3  O   UNL     1       7.570   4.972  18.918  0.00  0.00    +0.000 OA
BRANCH   3   4
ATOM      4  C   UNL     1       7.904   4.435  17.647  0.00  0.00    +0.000 C 
BRANCH   4   5
ATOM      5  C   UNL     1       7.096   5.185  16.571  0.00  0.00    +0.000 C 
BRANCH   5   7
ATOM      6  C   UNL     1       5.055   4.145  15.742  0.00  0.00    +0.000 C 
ATOM      7  N   UNL     1       6.495   4.300  15.553  0.00  0.00    +0.000 NA
ATOM      8  C   UNL     1       6.794   4.762  14.202  0.00  0.00    +0.000 C 
ENDBRANCH   5   7
ENDBRANCH   4   5
ENDBRANCH   3   4
ENDBRANCH   2   3
ENDBRANCH   1   2
BRANCH   1   9
ATOM      9  C   UNL     1       3.944   5.579  19.446  0.00  0.00    +0.000 C 
BRANCH   9  10
ATOM     10  C   UNL     1       2.784   4.626  19.485  0.00  0.00    +0.000 A 
ATOM     11  C   UNL     1       2.304   4.054  18.301  0.00  0.00    +0.000 A 
ATOM     12  C   UNL     1       1.240   3.157  18.342  0.00  0.00    +0.000 A 
ATOM     13  C   UNL     1       0.654   2.829  19.564  0.00  0.00    +0.000 A 
ATOM     14  C   UNL     1       1.116   3.412  20.743  0.00  0.00    +0.000 A 
ATOM     15  C   UNL     1       2.175   4.315  20.704  0.00  0.00    +0.000 A 
ENDBRANCH   9  10
ENDBRANCH   1   9
TORSDOF 7
ENDMDL
MODEL 8
REMARK VINA RESULT:      -5.2      2.574      5.932
REMARK  Name = 
REMARK  9 active torsions:
REMARK  status: ('A' for Active; 'I' for Inactive)
REMARK    1  A    between atoms: C_1  and  N_2
REMARK    2  A    between atoms: N_2  and  C_3
REMARK    3  A    between atoms: N_2  and  C_4
REMARK    4  A    between atoms: C_4  and  C_5
REMARK    5  A    between atoms: C_5  and  O_6
REMARK    6  A    between atoms: O_6  and  C_7
REMARK    7  A    between atoms: C_7  and  C_8
REMARK    8  A    between atoms: C_8  and  C_9
REMARK    9  A    between atoms: C_9  and  C_10
REMARK                            x       y       z     vdW  Elec       q    Type
REMARK                         _______ _______ _______ _____ _____    ______ ____
ROOT
ATOM      1  C   UNL     1       3.933   3.382  16.940  0.00  0.00    +0.000 C 
ENDROOT
BRANCH   1   2
ATOM      2  C   UNL     1       4.754   4.572  16.479  0.00  0.00    +0.000 C 
BRANCH   2   3
ATOM      3  O   UNL     1       4.249   5.706  17.163  0.00  0.00    +0.000 OA
BRANCH   3   4
ATOM      4  C   UNL     1       5.172   6.783  17.211  0.00  0.00    +0.000 C 
BRANCH   4   5
ATOM      5  C   UNL     1       6.524   6.293  16.659  0.00  0.00    +0.000 C 
BRANCH   5   7
ATOM      6  C   UNL     1       7.724   8.182  17.624  0.00  0.00    +0.000 C 
ATOM      7  N   UNL     1       7.687   6.732  17.458  0.00  0.00    +0.000 NA
ATOM      8  C   UNL     1       7.728   6.060  18.753  0.00  0.00    +0.000 C 
ENDBRANCH   5   7
ENDBRANCH   4   5
ENDBRANCH   3   4
ENDBRANCH   2   3
ENDBRANCH   1   2
BRANCH   1   9
ATOM      9  C   UNL     1       2.571   3.855  17.451  0.00  0.00    +0.000 C 
BRANCH   9  10
ATOM     10  C   UNL     1       2.373   3.508  18.899  0.00  0.00    +0.000 A 
ATOM     11  C   UNL     1       1.158   3.797  19.532  0.00  0.00    +0.000 A 
ATOM     12  C   UNL     1       0.971   3.457  20.869  0.00  0.00    +0.000 A 
ATOM     13  C   UNL     1       1.995   2.829  21.576  0.00  0.00    +0.000 A 
ATOM     14  C   UNL     1       3.213   2.557  20.955  0.00  0.00    +0.000 A 
ATOM     15  C   UNL     1       3.406   2.902  19.620  0.00  0.00    +0.000 A 
ENDBRANCH   9  10
ENDBRANCH   1   9
TORSDOF 7
ENDMDL
MODEL 9
REMARK VINA RESULT:      -5.1      3.508      4.345
REMARK  Name = 
REMARK  9 active torsions:
REMARK  status: ('A' for Active; 'I' for Inactive)
REMARK    1  A    between atoms: C_1  and  N_2
REMARK    2  A    between atoms: N_2  and  C_3
REMARK    3  A    between atoms: N_2  and  C_4
REMARK    4  A    between atoms: C_4  and  C_5
REMARK    5  A    between atoms: C_5  and  O_6
REMARK    6  A    between atoms: O_6  and  C_7
REMARK    7  A    between atoms: C_7  and  C_8
REMARK    8  A    between atoms: C_8  and  C_9
REMARK    9  A    between atoms: C_9  and  C_10
REMARK                            x       y       z     vdW  Elec       q    Type
REMARK                         _______ _______ _______ _____ _____    ______ ____
ROOT
ATOM      1  C   UNL     1       5.680   5.895  16.370  0.00  0.00    +0.000 C 
ENDROOT
BRANCH   1   2
ATOM      2  C   UNL     1       5.033   5.986  17.740  0.00  0.00    +0.000 C 
BRANCH   2   3
ATOM      3  O   UNL     1       3.635   5.875  17.540  0.00  0.00    +0.000 OA
BRANCH   3   4
ATOM      4  C   UNL     1       3.012   4.978  18.447  0.00  0.00    +0.000 C 
BRANCH   4   5
ATOM      5  C   UNL     1       1.731   4.429  17.791  0.00  0.00    +0.000 C 
BRANCH   5   7
ATOM      6  C   UNL     1       2.942   2.314  17.783  0.00  0.00    +0.000 C 
ATOM      7  N   UNL     1       1.631   2.956  17.824  0.00  0.00    +0.000 NA
ATOM      8  C   UNL     1       0.865   2.499  18.979  0.00  0.00    +0.000 C 
ENDBRANCH   5   7
ENDBRANCH   4   5
ENDBRANCH   3   4
ENDBRANCH   2   3
ENDBRANCH   1   2
BRANCH   1   9
ATOM      9  C   UNL     1       5.311   4.566  15.708  0.00  0.00    +0.000 C 
BRANCH   9  10
ATOM     10  C   UNL     1       5.982   4.408  14.373  0.00  0.00    +0.000 A 
ATOM     11  C   UNL     1       5.436   3.556  13.407  0.00  0.00    +0.000 A 
ATOM     12  C   UNL     1       6.050   3.426  12.164  0.00  0.00    +0.000 A 
ATOM     13  C   UNL     1       7.210   4.146  11.884  0.00  0.00    +0.000 A 
ATOM     14  C   UNL     1       7.769   4.982  12.851  0.00  0.00    +0.000 A 
ATOM     15  C   UNL     1       7.161   5.108  14.097  0.00  0.00    +0.000 A 
ENDBRANCH   9  10
ENDBRANCH   1   9
TORSDOF 7
ENDMDL
