MODEL 1
REMARK VINA RESULT:      -7.6      0.000      0.000
REMARK  Name = 
REMARK  10 active torsions:
REMARK  status: ('A' for Active; 'I' for Inactive)
REMARK    1  A    between atoms: C_3  and  C_4
REMARK    2  A    between atoms: C_4  and  C_5
REMARK    3  A    between atoms: N_8  and  C_9
REMARK    4  A    between atoms: C_9  and  C_10
REMARK    5  A    between atoms: C_10  and  C_11
REMARK    6  A    between atoms: C_11  and  O_12
REMARK    7  A    between atoms: O_12  and  C_13
REMARK    8  A    between atoms: C_16  and  C_17
REMARK    9  A    between atoms: C_17  and  C_18
REMARK   10  A    between atoms: C_18  and  N_19
REMARK                            x       y       z     vdW  Elec       q    Type
REMARK                         _______ _______ _______ _____ _____    ______ ____
ROOT
ATOM      1  C   UNL     1       7.616   8.978  17.897  0.00  0.00    +0.000 C 
ENDROOT
BRANCH   1   2
ATOM      2  C   UNL     1       8.864   9.836  18.044  0.00  0.00    +0.000 C 
BRANCH   2   3
ATOM      3  C   UNL     1       9.106  10.254  19.494  0.00  0.00    +0.000 C 
BRANCH   3   7
ATOM      4  C   UNL     1      11.123  14.002  18.831  0.00  0.00    +0.000 C 
ATOM      5  C   UNL     1      11.862  12.701  18.499  0.00  0.00    +0.000 C 
ATOM      6  C   UNL     1      10.930  11.489  18.456  0.00  0.00    +0.000 C 
ATOM      7  N   UNL     1      10.121  11.316  19.677  0.00  0.00    +0.000 NA
ATOM      8  C   UNL     1       9.446  12.553  20.098  0.00  0.00    +0.000 C 
ATOM      9  C   UNL     1      10.367  13.776  20.148  0.00  0.00    +0.000 C 
BRANCH   4  10
ATOM     10  C   UNL     1      10.169  14.483  17.717  0.00  0.00    +0.000 C 
BRANCH  10  13
ATOM     11  C   UNL     1       7.893  17.122  18.474  0.00  0.00    +0.000 A 
ATOM     12  N   UNL     1       8.145  15.866  18.178  0.00  0.00    +0.000 NA
ATOM     13  C   UNL     1       9.504  15.791  17.997  0.00  0.00    +0.000 A 
ATOM     14  C   UNL     1      10.076  17.034  18.184  0.00  0.00    +0.000 A 
ATOM     15  N   UNL     1       9.036  17.869  18.488  0.00  0.00    +0.000 N 
ATOM     16  H   UNL     1       9.097  18.854  18.703  0.00  0.00    +0.000 HD
ENDBRANCH  10  13
ENDBRANCH   4  10
ENDBRANCH   3   7
ENDBRANCH   2   3
ENDBRANCH   1   2
BRANCH   1  17
ATOM     17  O   UNL     1       8.032   7.704  17.406  0.00  0.00    +0.000 OA
BRANCH  17  18
ATOM     18  C   UNL     1       7.063   6.742  17.382  0.00  0.00    +0.000 A 
ATOM     19  C   UNL     1       5.930   7.070  16.640  0.00  0.00    +0.000 A 
ATOM     20  C   UNL     1       4.872   6.171  16.536  0.00  0.00    +0.000 A 
ATOM     21  C   UNL     1       4.951   4.912  17.147  0.00  0.00    +0.000 A 
ATOM     22  C   UNL     1       6.094   4.583  17.882  0.00  0.00    +0.000 A 
ATOM     23  C   UNL     1       7.145   5.493  17.997  0.00  0.00    +0.000 A 
BRANCH  21  24
ATOM     24  C   UNL     1       3.801   3.945  17.057  0.00  0.00    +0.000 C 
BRANCH  24  25
ATOM     25  C   UNL     1       4.040   2.660  17.869  0.00  0.00    +0.000 C 
BRANCH  25  26
ATOM     26  N   UNL     1       3.058   2.459  18.955  0.00  0.00    +0.000 NA
ATOM     27  C   UNL     1       3.579   2.921  20.252  0.00  0.00    +0.000 C 
ATOM     28  C   UNL     1       2.570   2.690  21.373  0.00  0.00    +0.000 C 
ATOM     29  C   UNL     1       1.245   3.371  21.069  0.00  0.00    +0.000 C 
ATOM     30  C   UNL     1       0.739   2.950  19.695  0.00  0.00    +0.000 C 
ATOM     31  C   UNL     1       1.805   3.160  18.619  0.00  0.00    +0.000 C 
ENDBRANCH  25  26
ENDBRANCH  24  25
ENDBRANCH  21  24
ENDBRANCH  17  18
ENDBRANCH   1  17
TORSDOF 10
ENDMDL
MODEL 2
REMARK VINA RESULT:      -7.6      6.832     10.509
REMARK  Name = 
REMARK  10 active torsions:
REMARK  status: ('A' for Active; 'I' for Inactive)
REMARK    1  A    between atoms: C_3  and  C_4
REMARK    2  A    between atoms: C_4  and  C_5
REMARK    3  A    between atoms: N_8  and  C_9
REMARK    4  A    between atoms: C_9  and  C_10
REMARK    5  A    between atoms: C_10  and  C_11
REMARK    6  A    between atoms: C_11  and  O_12
REMARK    7  A    between atoms: O_12  and  C_13
REMARK    8  A    between atoms: C_16  and  C_17
REMARK    9  A    between atoms: C_17  and  C_18
REMARK   10  A    between atoms: C_18  and  N_19
REMARK                            x       y       z     vdW  Elec       q    Type
REMARK                         _______ _______ _______ _____ _____    ______ ____
ROOT
ATOM      1  C   UNL     1       1.838   5.845  20.998  0.00  0.00    +0.000 C 
ENDROOT
BRANCH   1   2
ATOM      2  C   UNL     1       0.825   4.907  20.358  0.00  0.00    +0.000 C 
BRANCH   2   3
ATOM      3  C   UNL     1       1.111   3.443  20.688  0.00  0.00    +0.000 C 
BRANCH   3   7
ATOM      4  C   UNL     1       4.134   2.717  17.707  0.00  0.00    +0.000 C 
ATOM      5  C   UNL     1       2.668   2.786  17.266  0.00  0.00    +0.000 C 
ATOM      6  C   UNL     1       1.756   3.378  18.342  0.00  0.00    +0.000 C 
ATOM      7  N   UNL     1       1.862   2.703  19.649  0.00  0.00    +0.000 NA
ATOM      8  C   UNL     1       3.253   2.533  20.096  0.00  0.00    +0.000 C 
ATOM      9  C   UNL     1       4.178   1.939  19.030  0.00  0.00    +0.000 C 
BRANCH   4  10
ATOM     10  C   UNL     1       4.810   4.097  17.850  0.00  0.00    +0.000 C 
BRANCH  10  13
ATOM     11  C   UNL     1       6.490   4.526  14.733  0.00  0.00    +0.000 A 
ATOM     12  N   UNL     1       6.160   3.794  15.774  0.00  0.00    +0.000 NA
ATOM     13  C   UNL     1       5.424   4.617  16.590  0.00  0.00    +0.000 A 
ATOM     14  C   UNL     1       5.317   5.872  16.025  0.00  0.00    +0.000 A 
ATOM     15  N   UNL     1       5.999   5.796  14.843  0.00  0.00    +0.000 N 
ATOM     16  H   UNL     1       6.109   6.534  14.162  0.00  0.00    +0.000 HD
ENDBRANCH  10  13
ENDBRANCH   4  10
ENDBRANCH   3   7
ENDBRANCH   2   3
ENDBRANCH   1   2
BRANCH   1  17
ATOM     17  O   UNL     1       2.520   6.519  19.941  0.00  0.00    +0.000 OA
BRANCH  17  18
ATOM     18  C   UNL     1       1.955   7.694  19.536  0.00  0.00    +0.000 A 
ATOM     19  C   UNL     1       1.318   8.417  20.543  0.00  0.00    +0.000 A 
ATOM     20  C   UNL     1       0.706   9.634  20.256  0.00  0.00    +0.000 A 
ATOM     21  C   UNL     1       0.754  10.162  18.959  0.00  0.00    +0.000 A 
ATOM     22  C   UNL     1       1.402   9.438  17.953  0.00  0.00    +0.000 A 
ATOM     23  C   UNL     1       2.001   8.211  18.241  0.00  0.00    +0.000 A 
BRANCH  21  24
ATOM     24  C   UNL     1       0.073  11.466  18.638  0.00  0.00    +0.000 C 
BRANCH  24  25
ATOM     25  C   UNL     1      -1.246  11.653  19.409  0.00  0.00    +0.000 C 
BRANCH  25  26
ATOM     26  N   UNL     1      -2.439  11.239  18.642  0.00  0.00    +0.000 NA
ATOM     27  C   UNL     1      -3.645  11.959  19.082  0.00  0.00    +0.000 C 
ATOM     28  C   UNL     1      -4.878  11.511  18.303  0.00  0.00    +0.000 C 
ATOM     29  C   UNL     1      -4.678  11.691  16.806  0.00  0.00    +0.000 C 
ATOM     30  C   UNL     1      -3.392  11.008  16.360  0.00  0.00    +0.000 C 
ATOM     31  C   UNL     1      -2.199  11.459  17.204  0.00  0.00    +0.000 C 
ENDBRANCH  25  26
ENDBRANCH  24  25
ENDBRANCH  21  24
ENDBRANCH  17  18
ENDBRANCH   1  17
TORSDOF 10
ENDMDL
MODEL 3
REMARK VINA RESULT:      -7.5      2.120      3.438
REMARK  Name = 
REMARK  10 active torsions:
REMARK  status: ('A' for Active; 'I' for Inactive)
REMARK    1  A    between atoms: C_3  and  C_4
REMARK    2  A    between atoms: C_4  and  C_5
REMARK    3  A    between atoms: N_8  and  C_9
REMARK    4  A    between atoms: C_9  and  C_10
REMARK    5  A    between atoms: C_10  and  C_11
REMARK    6  A    between atoms: C_11  and  O_12
REMARK    7  A    between atoms: O_12  and  C_13
REMARK    8  A    between atoms: C_16  and  C_17
REMARK    9  A    between atoms: C_17  and  C_18
REMARK   10  A    between atoms: C_18  and  N_19
REMARK                            x       y       z     vdW  Elec       q    Type
REMARK                         _______ _______ _______ _____ _____    ______ ____
ROOT
ATOM      1  C   UNL     1       7.735   8.687  17.788  0.00  0.00    +0.000 C 
ENDROOT
BRANCH   1   2
ATOM      2  C   UNL     1       8.765   9.451  18.606  0.00  0.00    +0.000 C 
BRANCH   2   3
ATOM      3  C   UNL     1       9.196  10.746  17.920  0.00  0.00    +0.000 C 
BRANCH   3   7
ATOM      4  C   UNL     1       9.610  13.580  21.138  0.00  0.00    +0.000 C 
ATOM      5  C   UNL     1       9.744  14.080  19.696  0.00  0.00    +0.000 C 
ATOM      6  C   UNL     1       9.244  13.062  18.669  0.00  0.00    +0.000 C 
ATOM      7  N   UNL     1       9.862  11.730  18.803  0.00  0.00    +0.000 NA
ATOM      8  C   UNL     1       9.838  11.222  20.185  0.00  0.00    +0.000 C 
ATOM      9  C   UNL     1      10.338  12.230  21.224  0.00  0.00    +0.000 C 
BRANCH   4  10
ATOM     10  C   UNL     1       8.151  13.457  21.625  0.00  0.00    +0.000 C 
BRANCH  10  13
ATOM     11  C   UNL     1       8.132  12.819  25.134  0.00  0.00    +0.000 A 
ATOM     12  N   UNL     1       8.479  13.548  24.097  0.00  0.00    +0.000 NA
ATOM     13  C   UNL     1       8.005  12.879  22.996  0.00  0.00    +0.000 A 
ATOM     14  C   UNL     1       7.365  11.719  23.386  0.00  0.00    +0.000 A 
ATOM     15  N   UNL     1       7.454  11.697  24.750  0.00  0.00    +0.000 N 
ATOM     16  H   UNL     1       7.074  10.994  25.368  0.00  0.00    +0.000 HD
ENDBRANCH  10  13
ENDBRANCH   4  10
ENDBRANCH   3   7
ENDBRANCH   2   3
ENDBRANCH   1   2
BRANCH   1  17
ATOM     17  O   UNL     1       7.994   7.295  17.971  0.00  0.00    +0.000 OA
BRANCH  17  18
ATOM     18  C   UNL     1       6.958   6.461  17.662  0.00  0.00    +0.000 A 
ATOM     19  C   UNL     1       6.454   5.730  18.736  0.00  0.00    +0.000 A 
ATOM     20  C   UNL     1       5.395   4.847  18.551  0.00  0.00    +0.000 A 
ATOM     21  C   UNL     1       4.801   4.709  17.289  0.00  0.00    +0.000 A 
ATOM     22  C   UNL     1       5.303   5.452  16.215  0.00  0.00    +0.000 A 
ATOM     23  C   UNL     1       6.375   6.325  16.402  0.00  0.00    +0.000 A 
BRANCH  21  24
ATOM     24  C   UNL     1       3.670   3.738  17.077  0.00  0.00    +0.000 C 
BRANCH  24  25
ATOM     25  C   UNL     1       3.836   2.446  17.896  0.00  0.00    +0.000 C 
BRANCH  25  26
ATOM     26  N   UNL     1       2.889   2.337  19.024  0.00  0.00    +0.000 NA
ATOM     27  C   UNL     1       3.545   2.610  20.314  0.00  0.00    +0.000 C 
ATOM     28  C   UNL     1       2.566   2.475  21.477  0.00  0.00    +0.000 C 
ATOM     29  C   UNL     1       1.366   3.391  21.297  0.00  0.00    +0.000 C 
ATOM     30  C   UNL     1       0.729   3.162  19.932  0.00  0.00    +0.000 C 
ATOM     31  C   UNL     1       1.762   3.263  18.809  0.00  0.00    +0.000 C 
ENDBRANCH  25  26
ENDBRANCH  24  25
ENDBRANCH  21  24
ENDBRANCH  17  18
ENDBRANCH   1  17
TORSDOF 10
ENDMDL
MODEL 4
REMARK VINA RESULT:      -7.5      0.993      1.613
REMARK  Name = 
REMARK  10 active torsions:
REMARK  status: ('A' for Active; 'I' for Inactive)
REMARK    1  A    between atoms: C_3  and  C_4
REMARK    2  A    between atoms: C_4  and  C_5
REMARK    3  A    between atoms: N_8  and  C_9
REMARK    4  A    between atoms: C_9  and  C_10
REMARK    5  A    between atoms: C_10  and  C_11
REMARK    6  A    between atoms: C_11  and  O_12
REMARK    7  A    between atoms: O_12  and  C_13
REMARK    8  A    between atoms: C_16  and  C_17
REMARK    9  A    between atoms: C_17  and  C_18
REMARK   10  A    between atoms: C_18  and  N_19
REMARK                            x       y       z     vdW  Elec       q    Type
REMARK                         _______ _______ _______ _____ _____    ______ ____
ROOT
ATOM      1  C   UNL     1       7.851   8.948  17.760  0.00  0.00    +0.000 C 
ENDROOT
BRANCH   1   2
ATOM      2  C   UNL     1       8.985   9.071  18.768  0.00  0.00    +0.000 C 
BRANCH   2   3
ATOM      3  C   UNL     1       8.999  10.438  19.451  0.00  0.00    +0.000 C 
BRANCH   3   7
ATOM      4  C   UNL     1      11.418  13.787  18.233  0.00  0.00    +0.000 C 
ATOM      5  C   UNL     1      11.586  12.453  17.498  0.00  0.00    +0.000 C 
ATOM      6  C   UNL     1      10.451  11.470  17.793  0.00  0.00    +0.000 C 
ATOM      7  N   UNL     1      10.228  11.233  19.231  0.00  0.00    +0.000 NA
ATOM      8  C   UNL     1      10.136  12.478  20.011  0.00  0.00    +0.000 C 
ATOM      9  C   UNL     1      11.267  13.471  19.728  0.00  0.00    +0.000 C 
BRANCH   4  10
ATOM     10  C   UNL     1      10.236  14.639  17.722  0.00  0.00    +0.000 C 
BRANCH  10  13
ATOM     11  C   UNL     1      11.101  18.085  17.417  0.00  0.00    +0.000 A 
ATOM     12  N   UNL     1      11.214  16.831  17.041  0.00  0.00    +0.000 NA
ATOM     13  C   UNL     1      10.416  16.112  17.897  0.00  0.00    +0.000 A 
ATOM     14  C   UNL     1       9.816  16.958  18.809  0.00  0.00    +0.000 A 
ATOM     15  N   UNL     1      10.263  18.210  18.488  0.00  0.00    +0.000 N 
ATOM     16  H   UNL     1      10.008  19.075  18.943  0.00  0.00    +0.000 HD
ENDBRANCH  10  13
ENDBRANCH   4  10
ENDBRANCH   3   7
ENDBRANCH   2   3
ENDBRANCH   1   2
BRANCH   1  17
ATOM     17  O   UNL     1       8.054   7.733  17.039  0.00  0.00    +0.000 OA
BRANCH  17  18
ATOM     18  C   UNL     1       6.987   6.881  17.016  0.00  0.00    +0.000 A 
ATOM     19  C   UNL     1       7.302   5.555  16.727  0.00  0.00    +0.000 A 
ATOM     20  C   UNL     1       6.302   4.589  16.677  0.00  0.00    +0.000 A 
ATOM     21  C   UNL     1       4.971   4.934  16.952  0.00  0.00    +0.000 A 
ATOM     22  C   UNL     1       4.660   6.264  17.251  0.00  0.00    +0.000 A 
ATOM     23  C   UNL     1       5.664   7.232  17.285  0.00  0.00    +0.000 A 
BRANCH  21  24
ATOM     24  C   UNL     1       3.881   3.898  16.876  0.00  0.00    +0.000 C 
BRANCH  24  25
ATOM     25  C   UNL     1       3.937   2.891  18.038  0.00  0.00    +0.000 C 
BRANCH  25  26
ATOM     26  N   UNL     1       3.143   3.305  19.214  0.00  0.00    +0.000 NA
ATOM     27  C   UNL     1       1.705   3.372  18.904  0.00  0.00    +0.000 C 
ATOM     28  C   UNL     1       0.894   3.822  20.115  0.00  0.00    +0.000 C 
ATOM     29  C   UNL     1       1.130   2.908  21.307  0.00  0.00    +0.000 C 
ATOM     30  C   UNL     1       2.623   2.779  21.585  0.00  0.00    +0.000 C 
ATOM     31  C   UNL     1       3.392   2.372  20.327  0.00  0.00    +0.000 C 
ENDBRANCH  25  26
ENDBRANCH  24  25
ENDBRANCH  21  24
ENDBRANCH  17  18
ENDBRANCH   1  17
TORSDOF 10
ENDMDL
MODEL 5
REMARK VINA RESULT:      -7.4      1.320      1.635
REMARK  Name = 
REMARK  10 active torsions:
REMARK  status: ('A' for Active; 'I' for Inactive)
REMARK    1  A    between atoms: C_3  and  C_4
REMARK    2  A    between atoms: C_4  and  C_5
REMARK    3  A    between atoms: N_8  and  C_9
REMARK    4  A    between atoms: C_9  and  C_10
REMARK    5  A    between atoms: C_10  and  C_11
REMARK    6  A    between atoms: C_11  and  O_12
REMARK    7  A    between atoms: O_12  and  C_13
REMARK    8  A    between atoms: C_16  and  C_17
REMARK    9  A    between atoms: C_17  and  C_18
REMARK   10  A    between atoms: C_18  and  N_19
REMARK                            x       y       z     vdW  Elec       q    Type
REMARK                         _______ _______ _______ _____ _____    ______ ____
ROOT
ATOM      1  C   UNL     1       7.651   8.051  17.371  0.00  0.00    +0.000 C 
ENDROOT
BRANCH   1   2
ATOM      2  C   UNL     1       8.487   8.723  18.449  0.00  0.00    +0.000 C 
BRANCH   2   3
ATOM      3  C   UNL     1       8.714  10.206  18.159  0.00  0.00    +0.000 C 
BRANCH   3   7
ATOM      4  C   UNL     1      11.620  13.097  19.481  0.00  0.00    +0.000 C 
ATOM      5  C   UNL     1      11.784  12.472  18.092  0.00  0.00    +0.000 C 
ATOM      6  C   UNL     1      10.525  11.741  17.622  0.00  0.00    +0.000 C 
ATOM      7  N   UNL     1      10.033  10.731  18.577  0.00  0.00    +0.000 NA
ATOM      8  C   UNL     1       9.927  11.245  19.952  0.00  0.00    +0.000 C 
ATOM      9  C   UNL     1      11.181  11.978  20.437  0.00  0.00    +0.000 C 
BRANCH   4  10
ATOM     10  C   UNL     1      10.634  14.283  19.522  0.00  0.00    +0.000 C 
BRANCH  10  13
ATOM     11  C   UNL     1      11.966  16.774  17.345  0.00  0.00    +0.000 A 
ATOM     12  N   UNL     1      12.051  16.010  18.412  0.00  0.00    +0.000 NA
ATOM     13  C   UNL     1      10.867  15.317  18.468  0.00  0.00    +0.000 A 
ATOM     14  C   UNL     1      10.054  15.680  17.412  0.00  0.00    +0.000 A 
ATOM     15  N   UNL     1      10.770  16.608  16.707  0.00  0.00    +0.000 N 
ATOM     16  H   UNL     1      10.481  17.074  15.859  0.00  0.00    +0.000 HD
ENDBRANCH  10  13
ENDBRANCH   4  10
ENDBRANCH   3   7
ENDBRANCH   2   3
ENDBRANCH   1   2
BRANCH   1  17
ATOM     17  O   UNL     1       6.317   7.952  17.868  0.00  0.00    +0.000 OA
BRANCH  17  18
ATOM     18  C   UNL     1       5.690   6.762  17.630  0.00  0.00    +0.000 A 
ATOM     19  C   UNL     1       4.298   6.826  17.612  0.00  0.00    +0.000 A 
ATOM     20  C   UNL     1       3.545   5.679  17.377  0.00  0.00    +0.000 A 
ATOM     21  C   UNL     1       4.179   4.456  17.121  0.00  0.00    +0.000 A 
ATOM     22  C   UNL     1       5.576   4.398  17.130  0.00  0.00    +0.000 A 
ATOM     23  C   UNL     1       6.328   5.546  17.381  0.00  0.00    +0.000 A 
BRANCH  21  24
ATOM     24  C   UNL     1       3.368   3.209  16.889  0.00  0.00    +0.000 C 
BRANCH  24  25
ATOM     25  C   UNL     1       3.699   2.090  17.892  0.00  0.00    +0.000 C 
BRANCH  25  26
ATOM     26  N   UNL     1       2.825   2.090  19.083  0.00  0.00    +0.000 NA
ATOM     27  C   UNL     1       3.508   2.650  20.260  0.00  0.00    +0.000 C 
ATOM     28  C   UNL     1       2.608   2.627  21.492  0.00  0.00    +0.000 C 
ATOM     29  C   UNL     1       1.307   3.371  21.238  0.00  0.00    +0.000 C 
ATOM     30  C   UNL     1       0.633   2.842  19.978  0.00  0.00    +0.000 C 
ATOM     31  C   UNL     1       1.594   2.845  18.788  0.00  0.00    +0.000 C 
ENDBRANCH  25  26
ENDBRANCH  24  25
ENDBRANCH  21  24
ENDBRANCH  17  18
ENDBRANCH   1  17
TORSDOF 10
ENDMDL
MODEL 6
REMARK VINA RESULT:      -7.4      1.323      1.709
REMARK  Name = 
REMARK  10 active torsions:
REMARK  status: ('A' for Active; 'I' for Inactive)
REMARK    1  A    between atoms: C_3  and  C_4
REMARK    2  A    between atoms: C_4  and  C_5
REMARK    3  A    between atoms: N_8  and  C_9
REMARK    4  A    between atoms: C_9  and  C_10
REMARK    5  A    between atoms: C_10  and  C_11
REMARK    6  A    between atoms: C_11  and  O_12
REMARK    7  A    between atoms: O_12  and  C_13
REMARK    8  A    between atoms: C_16  and  C_17
REMARK    9  A    between atoms: C_17  and  C_18
REMARK   10  A    between atoms: C_18  and  N_19
REMARK                            x       y       z     vdW  Elec       q    Type
REMARK                         _______ _______ _______ _____ _____    ______ ____
ROOT
ATOM      1  C   UNL     1       7.530   8.293  17.463  0.00  0.00    +0.000 C 
ENDROOT
BRANCH   1   2
ATOM      2  C   UNL     1       8.801   8.739  18.170  0.00  0.00    +0.000 C 
BRANCH   2   3
ATOM      3  C   UNL     1       8.724  10.196  18.624  0.00  0.00    +0.000 C 
BRANCH   3   7
ATOM      4  C   UNL     1      11.497  13.438  19.221  0.00  0.00    +0.000 C 
ATOM      5  C   UNL     1      11.532  12.676  17.892  0.00  0.00    +0.000 C 
ATOM      6  C   UNL     1      10.296  11.799  17.683  0.00  0.00    +0.000 C 
ATOM      7  N   UNL     1      10.032  10.867  18.795  0.00  0.00    +0.000 NA
ATOM      8  C   UNL     1      10.063  11.522  20.112  0.00  0.00    +0.000 C 
ATOM      9  C   UNL     1      11.296  12.403  20.337  0.00  0.00    +0.000 C 
BRANCH   4  10
ATOM     10  C   UNL     1      10.418  14.539  19.283  0.00  0.00    +0.000 C 
BRANCH  10  13
ATOM     11  C   UNL     1      11.790  17.376  17.613  0.00  0.00    +0.000 A 
ATOM     12  N   UNL     1      11.814  16.483  18.576  0.00  0.00    +0.000 NA
ATOM     13  C   UNL     1      10.687  15.717  18.403  0.00  0.00    +0.000 A 
ATOM     14  C   UNL     1       9.970  16.169  17.313  0.00  0.00    +0.000 A 
ATOM     15  N   UNL     1      10.687  17.225  16.821  0.00  0.00    +0.000 N 
ATOM     16  H   UNL     1      10.459  17.782  16.010  0.00  0.00    +0.000 HD
ENDBRANCH  10  13
ENDBRANCH   4  10
ENDBRANCH   3   7
ENDBRANCH   2   3
ENDBRANCH   1   2
BRANCH   1  17
ATOM     17  O   UNL     1       7.840   7.099  16.745  0.00  0.00    +0.000 OA
BRANCH  17  18
ATOM     18  C   UNL     1       6.824   6.190  16.655  0.00  0.00    +0.000 A 
ATOM     19  C   UNL     1       5.653   6.553  17.317  0.00  0.00    +0.000 A 
ATOM     20  C   UNL     1       4.544   5.711  17.296  0.00  0.00    +0.000 A 
ATOM     21  C   UNL     1       4.583   4.507  16.580  0.00  0.00    +0.000 A 
ATOM     22  C   UNL     1       5.757   4.151  15.909  0.00  0.00    +0.000 A 
ATOM     23  C   UNL     1       6.871   4.990  15.945  0.00  0.00    +0.000 A 
BRANCH  21  24
ATOM     24  C   UNL     1       3.395   3.582  16.574  0.00  0.00    +0.000 C 
BRANCH  24  25
ATOM     25  C   UNL     1       3.368   2.642  17.792  0.00  0.00    +0.000 C 
BRANCH  25  26
ATOM     26  N   UNL     1       2.533   3.142  18.903  0.00  0.00    +0.000 NA
ATOM     27  C   UNL     1       1.632   2.097  19.419  0.00  0.00    +0.000 C 
ATOM     28  C   UNL     1       0.757   2.626  20.552  0.00  0.00    +0.000 C 
ATOM     29  C   UNL     1       1.600   3.194  21.681  0.00  0.00    +0.000 C 
ATOM     30  C   UNL     1       2.584   4.223  21.138  0.00  0.00    +0.000 C 
ATOM     31  C   UNL     1       3.402   3.656  19.977  0.00  0.00    +0.000 C 
ENDBRANCH  25  26
ENDBRANCH  24  25
ENDBRANCH  21  24
ENDBRANCH  17  18
ENDBRANCH   1  17
TORSDOF 10
ENDMDL
MODEL 7
REMARK VINA RESULT:      -7.4      2.328      3.561
REMARK  Name = 
REMARK  10 active torsions:
REMARK  status: ('A' for Active; 'I' for Inactive)
REMARK    1  A    between atoms: C_3  and  C_4
REMARK    2  A    between atoms: C_4  and  C_5
REMARK    3  A    between atoms: N_8  and  C_9
REMARK    4  A    between atoms: C_9  and  C_10
REMARK    5  A    between atoms: C_10  and  C_11
REMARK    6  A    between atoms: C_11  and  O_12
REMARK    7  A    between atoms: O_12  and  C_13
REMARK    8  A    between atoms: C_16  and  C_17
REMARK    9  A    between atoms: C_17  and  C_18
REMARK   10  A    between atoms: C_18  and  N_19
REMARK                            x       y       z     vdW  Elec       q    Type
REMARK                         _______ _______ _______ _____ _____    ______ ____
ROOT
ATOM      1  C   UNL     1       8.187   8.778  17.777  0.00  0.00    +0.000 C 
ENDROOT
BRANCH   1   2
ATOM      2  C   UNL     1       8.693   9.863  18.715  0.00  0.00    +0.000 C 
BRANCH   2   3
ATOM      3  C   UNL     1       9.511  10.923  17.979  0.00  0.00    +0.000 C 
BRANCH   3   7
ATOM      4  C   UNL     1       9.403  13.740  21.236  0.00  0.00    +0.000 C 
ATOM      5  C   UNL     1       9.140  14.249  19.815  0.00  0.00    +0.000 C 
ATOM      6  C   UNL     1       8.873  13.115  18.823  0.00  0.00    +0.000 C 
ATOM      7  N   UNL     1       9.923  12.081  18.804  0.00  0.00    +0.000 NA
ATOM      8  C   UNL     1      10.282  11.603  20.149  0.00  0.00    +0.000 C 
ATOM      9  C   UNL     1      10.554  12.726  21.154  0.00  0.00    +0.000 C 
BRANCH   4  10
ATOM     10  C   UNL     1       8.165  13.121  21.919  0.00  0.00    +0.000 C 
BRANCH  10  13
ATOM     11  C   UNL     1       8.440  13.504  25.454  0.00  0.00    +0.000 A 
ATOM     12  N   UNL     1       8.403  14.006  24.240  0.00  0.00    +0.000 NA
ATOM     13  C   UNL     1       8.306  12.928  23.395  0.00  0.00    +0.000 A 
ATOM     14  C   UNL     1       8.291  11.755  24.123  0.00  0.00    +0.000 A 
ATOM     15  N   UNL     1       8.376  12.140  25.432  0.00  0.00    +0.000 N 
ATOM     16  H   UNL     1       8.372  11.534  26.240  0.00  0.00    +0.000 HD
ENDBRANCH  10  13
ENDBRANCH   4  10
ENDBRANCH   3   7
ENDBRANCH   2   3
ENDBRANCH   1   2
BRANCH   1  17
ATOM     17  O   UNL     1       8.291   7.535  18.470  0.00  0.00    +0.000 OA
BRANCH  17  18
ATOM     18  C   UNL     1       7.390   6.580  18.096  0.00  0.00    +0.000 A 
ATOM     19  C   UNL     1       6.295   7.056  17.377  0.00  0.00    +0.000 A 
ATOM     20  C   UNL     1       5.308   6.179  16.937  0.00  0.00    +0.000 A 
ATOM     21  C   UNL     1       5.422   4.803  17.181  0.00  0.00    +0.000 A 
ATOM     22  C   UNL     1       6.527   4.328  17.895  0.00  0.00    +0.000 A 
ATOM     23  C   UNL     1       7.507   5.212  18.348  0.00  0.00    +0.000 A 
BRANCH  21  24
ATOM     24  C   UNL     1       4.345   3.854  16.727  0.00  0.00    +0.000 C 
BRANCH  24  25
ATOM     25  C   UNL     1       2.976   4.164  17.357  0.00  0.00    +0.000 C 
BRANCH  25  26
ATOM     26  N   UNL     1       2.968   4.055  18.830  0.00  0.00    +0.000 NA
ATOM     27  C   UNL     1       1.747   4.638  19.412  0.00  0.00    +0.000 C 
ATOM     28  C   UNL     1       1.755   4.543  20.935  0.00  0.00    +0.000 C 
ATOM     29  C   UNL     1       1.917   3.104  21.396  0.00  0.00    +0.000 C 
ATOM     30  C   UNL     1       3.139   2.474  20.739  0.00  0.00    +0.000 C 
ATOM     31  C   UNL     1       3.102   2.639  19.218  0.00  0.00    +0.000 C 
ENDBRANCH  25  26
ENDBRANCH  24  25
ENDBRANCH  21  24
ENDBRANCH  17  18
ENDBRANCH   1  17
TORSDOF 10
ENDMDL
MODEL 8
REMARK VINA RESULT:      -7.4      1.003      1.521
REMARK  Name = 
REMARK  10 active torsions:
REMARK  status: ('A' for Active; 'I' for Inactive)
REMARK    1  A    between atoms: C_3  and  C_4
REMARK    2  A    between atoms: C_4  and  C_5
REMARK    3  A    between atoms: N_8  and  C_9
REMARK    4  A    between atoms: C_9  and  C_10
REMARK    5  A    between atoms: C_10  and  C_11
REMARK    6  A    between atoms: C_11  and  O_12
REMARK    7  A    between atoms: O_12  and  C_13
REMARK    8  A    between atoms: C_16  and  C_17
REMARK    9  A    between atoms: C_17  and  C_18
REMARK   10  A    between atoms: C_18  and  N_19
REMARK                            x       y       z     vdW  Elec       q    Type
REMARK                         _______ _______ _______ _____ _____    ______ ____
ROOT
ATOM      1  C   UNL     1       7.854   9.234  18.114  0.00  0.00    +0.000 C 
ENDROOT
BRANCH   1   2
ATOM      2  C   UNL     1       9.070  10.145  18.174  0.00  0.00    +0.000 C 
BRANCH   2   3
ATOM      3  C   UNL     1       9.302  10.702  19.578  0.00  0.00    +0.000 C 
BRANCH   3   7
ATOM      4  C   UNL     1      11.419  14.378  18.829  0.00  0.00    +0.000 C 
ATOM      5  C   UNL     1      12.046  13.060  18.361  0.00  0.00    +0.000 C 
ATOM      6  C   UNL     1      11.054  11.896  18.381  0.00  0.00    +0.000 C 
ATOM      7  N   UNL     1      10.385  11.706  19.681  0.00  0.00    +0.000 NA
ATOM      8  C   UNL     1       9.828  12.954  20.228  0.00  0.00    +0.000 C 
ATOM      9  C   UNL     1      10.810  14.128  20.217  0.00  0.00    +0.000 C 
BRANCH   4  10
ATOM     10  C   UNL     1      10.368  14.952  17.855  0.00  0.00    +0.000 C 
BRANCH  10  13
ATOM     11  C   UNL     1       9.681  18.452  17.872  0.00  0.00    +0.000 A 
ATOM     12  N   UNL     1       9.304  17.202  18.027  0.00  0.00    +0.000 NA
ATOM     13  C   UNL     1      10.403  16.441  17.718  0.00  0.00    +0.000 A 
ATOM     14  C   UNL     1      11.461  17.255  17.364  0.00  0.00    +0.000 A 
ATOM     15  N   UNL     1      10.983  18.533  17.469  0.00  0.00    +0.000 N 
ATOM     16  H   UNL     1      11.500  19.384  17.300  0.00  0.00    +0.000 HD
ENDBRANCH  10  13
ENDBRANCH   4  10
ENDBRANCH   3   7
ENDBRANCH   2   3
ENDBRANCH   1   2
BRANCH   1  17
ATOM     17  O   UNL     1       8.327   7.889  18.174  0.00  0.00    +0.000 OA
BRANCH  17  18
ATOM     18  C   UNL     1       7.428   6.935  17.792  0.00  0.00    +0.000 A 
ATOM     19  C   UNL     1       7.641   5.674  18.345  0.00  0.00    +0.000 A 
ATOM     20  C   UNL     1       6.790   4.617  18.036  0.00  0.00    +0.000 A 
ATOM     21  C   UNL     1       5.689   4.818  17.192  0.00  0.00    +0.000 A 
ATOM     22  C   UNL     1       5.472   6.087  16.647  0.00  0.00    +0.000 A 
ATOM     23  C   UNL     1       6.337   7.141  16.947  0.00  0.00    +0.000 A 
BRANCH  21  24
ATOM     24  C   UNL     1       4.779   3.673  16.836  0.00  0.00    +0.000 C 
BRANCH  24  25
ATOM     25  C   UNL     1       3.294   3.996  17.078  0.00  0.00    +0.000 C 
BRANCH  25  26
ATOM     26  N   UNL     1       2.886   3.863  18.492  0.00  0.00    +0.000 NA
ATOM     27  C   UNL     1       2.143   5.045  18.958  0.00  0.00    +0.000 C 
ATOM     28  C   UNL     1       1.744   4.912  20.424  0.00  0.00    +0.000 C 
ATOM     29  C   UNL     1       0.925   3.653  20.659  0.00  0.00    +0.000 C 
ATOM     30  C   UNL     1       1.659   2.435  20.113  0.00  0.00    +0.000 C 
ATOM     31  C   UNL     1       2.075   2.643  18.655  0.00  0.00    +0.000 C 
ENDBRANCH  25  26
ENDBRANCH  24  25
ENDBRANCH  21  24
ENDBRANCH  17  18
ENDBRANCH   1  17
TORSDOF 10
ENDMDL
MODEL 9
REMARK VINA RESULT:      -7.3      2.045     10.835
REMARK  Name = 
REMARK  10 active torsions:
REMARK  status: ('A' for Active; 'I' for Inactive)
REMARK    1  A    between atoms: C_3  and  C_4
REMARK    2  A    between atoms: C_4  and  C_5
REMARK    3  A    between atoms: N_8  and  C_9
REMARK    4  A    between atoms: C_9  and  C_10
REMARK    5  A    between atoms: C_10  and  C_11
REMARK    6  A    between atoms: C_11  and  O_12
REMARK    7  A    between atoms: O_12  and  C_13
REMARK    8  A    between atoms: C_16  and  C_17
REMARK    9  A    between atoms: C_17  and  C_18
REMARK   10  A    between atoms: C_18  and  N_19
REMARK                            x       y       z     vdW  Elec       q    Type
REMARK                         _______ _______ _______ _____ _____    ______ ____
ROOT
ATOM      1  C   UNL     1       7.837   9.290  17.837  0.00  0.00    +0.000 C 
ENDROOT
BRANCH   1   2
ATOM      2  C   UNL     1       7.628   7.876  17.316  0.00  0.00    +0.000 C 
BRANCH   2   3
ATOM      3  C   UNL     1       7.832   6.826  18.407  0.00  0.00    +0.000 C 
BRANCH   3   7
ATOM      4  C   UNL     1       4.538   4.154  17.654  0.00  0.00    +0.000 C 
ATOM      5  C   UNL     1       5.276   4.052  18.993  0.00  0.00    +0.000 C 
ATOM      6  C   UNL     1       6.177   5.258  19.263  0.00  0.00    +0.000 C 
ATOM      7  N   UNL     1       7.134   5.541  18.177  0.00  0.00    +0.000 NA
ATOM      8  C   UNL     1       6.501   5.573  16.849  0.00  0.00    +0.000 C 
ATOM      9  C   UNL     1       5.597   4.371  16.563  0.00  0.00    +0.000 C 
BRANCH   4  10
ATOM     10  C   UNL     1       3.463   5.260  17.613  0.00  0.00    +0.000 C 
BRANCH  10  13
ATOM     11  C   UNL     1       1.348   4.743  20.438  0.00  0.00    +0.000 A 
ATOM     12  N   UNL     1       1.853   4.352  19.289  0.00  0.00    +0.000 NA
ATOM     13  C   UNL     1       2.656   5.382  18.865  0.00  0.00    +0.000 A 
ATOM     14  C   UNL     1       2.624   6.415  19.781  0.00  0.00    +0.000 A 
ATOM     15  N   UNL     1       1.788   5.991  20.776  0.00  0.00    +0.000 N 
ATOM     16  H   UNL     1       1.550   6.494  21.619  0.00  0.00    +0.000 HD
ENDBRANCH  10  13
ENDBRANCH   4  10
ENDBRANCH   3   7
ENDBRANCH   2   3
ENDBRANCH   1   2
BRANCH   1  17
ATOM     17  O   UNL     1       8.891   9.237  18.797  0.00  0.00    +0.000 OA
BRANCH  17  18
ATOM     18  C   UNL     1       9.536  10.419  19.024  0.00  0.00    +0.000 A 
ATOM     19  C   UNL     1       9.595  10.808  20.361  0.00  0.00    +0.000 A 
ATOM     20  C   UNL     1      10.229  11.993  20.721  0.00  0.00    +0.000 A 
ATOM     21  C   UNL     1      10.845  12.791  19.747  0.00  0.00    +0.000 A 
ATOM     22  C   UNL     1      10.792  12.393  18.408  0.00  0.00    +0.000 A 
ATOM     23  C   UNL     1      10.142  11.211  18.049  0.00  0.00    +0.000 A 
BRANCH  21  24
ATOM     24  C   UNL     1      11.511  14.086  20.129  0.00  0.00    +0.000 C 
BRANCH  24  25
ATOM     25  C   UNL     1      10.502  15.205  20.439  0.00  0.00    +0.000 C 
BRANCH  25  26
ATOM     26  N   UNL     1       9.183  14.999  19.807  0.00  0.00    +0.000 NA
ATOM     27  C   UNL     1       8.081  15.308  20.733  0.00  0.00    +0.000 C 
ATOM     28  C   UNL     1       6.722  15.073  20.081  0.00  0.00    +0.000 C 
ATOM     29  C   UNL     1       6.575  15.885  18.804  0.00  0.00    +0.000 C 
ATOM     30  C   UNL     1       7.753  15.623  17.874  0.00  0.00    +0.000 C 
ATOM     31  C   UNL     1       9.088  15.828  18.591  0.00  0.00    +0.000 C 
ENDBRANCH  25  26
ENDBRANCH  24  25
ENDBRANCH  21  24
ENDBRANCH  17  18
ENDBRANCH   1  17
TORSDOF 10
ENDMDL
