MODEL 1
REMARK VINA RESULT:      -9.5      0.000      0.000
REMARK  Name = 
REMARK  8 active torsions:
REMARK  status: ('A' for Active; 'I' for Inactive)
REMARK    1  A    between atoms: C_2  and  C_11
REMARK    2  A    between atoms: N_3  and  C_4
REMARK    3  A    between atoms: C_4  and  C_5
REMARK    4  A    between atoms: C_5  and  C_6
REMARK    5  A    between atoms: C_16  and  N_17
REMARK    6  A    between atoms: N_17  and  C_18
REMARK    7  A    between atoms: C_22  and  C_23
REMARK    8  A    between atoms: C_24  and  C_25
REMARK                            x       y       z     vdW  Elec       q    Type
REMARK                         _______ _______ _______ _____ _____    ______ ____
ROOT
ATOM      1  N   UNL     1       2.601   6.593  20.098  0.00  0.00    +0.000 N 
ATOM      2  H   UNL     1       3.511   6.840  19.701  0.00  0.00    +0.000 HD
ENDROOT
BRANCH   1   3
ATOM      3  C   UNL     1       1.792   7.770  20.102  0.00  0.00    +0.000 A 
ATOM      4  C   UNL     1       1.239   8.183  21.319  0.00  0.00    +0.000 A 
ATOM      5  C   UNL     1       0.537   9.394  21.435  0.00  0.00    +0.000 A 
ATOM      6  C   UNL     1       0.456  10.246  20.319  0.00  0.00    +0.000 A 
ATOM      7  C   UNL     1      -0.002  11.576  20.062  0.00  0.00    +0.000 A 
ATOM      8  N   UNL     1       0.148  11.897  18.767  0.00  0.00    +0.000 NA
ATOM      9  N   UNL     1       0.726  10.817  18.224  0.00  0.00    +0.000 N 
ATOM     10  C   UNL     1       0.983   9.810  19.110  0.00  0.00    +0.000 A 
ATOM     11  C   UNL     1       1.649   8.584  18.963  0.00  0.00    +0.000 A 
ATOM     12  H   UNL     1       0.955  10.847  17.235  0.00  0.00    +0.000 HD
BRANCH   7  13
ATOM     13  C   UNL     1      -0.457  12.495  21.067  0.00  0.00    +0.000 C 
ATOM     14  C   UNL     1      -1.495  12.255  21.887  0.00  0.00    +0.000 C 
BRANCH  14  15
ATOM     15  C   UNL     1      -2.070  13.215  22.839  0.00  0.00    +0.000 A 
ATOM     16  C   UNL     1      -1.227  13.995  23.630  0.00  0.00    +0.000 A 
ATOM     17  C   UNL     1      -1.785  14.893  24.537  0.00  0.00    +0.000 A 
ATOM     18  C   UNL     1      -3.167  14.987  24.632  0.00  0.00    +0.000 A 
ATOM     19  C   UNL     1      -3.934  14.170  23.816  0.00  0.00    +0.000 A 
ATOM     20  N   UNL     1      -3.419  13.288  22.928  0.00  0.00    +0.000 NA
ENDBRANCH  14  15
ENDBRANCH   7  13
ENDBRANCH   1   3
BRANCH   1  26
ATOM     21  C   UNL     1       2.662   4.681  18.482  0.00  0.00    +0.000 A 
ATOM     22  C   UNL     1       2.140   3.433  18.090  0.00  0.00    +0.000 A 
ATOM     23  C   UNL     1       1.206   2.768  18.878  0.00  0.00    +0.000 A 
ATOM     24  C   UNL     1       0.808   3.324  20.084  0.00  0.00    +0.000 A 
ATOM     25  C   UNL     1       1.309   4.562  20.473  0.00  0.00    +0.000 A 
ATOM     26  C   UNL     1       2.186   5.305  19.656  0.00  0.00    +0.000 A 
BRANCH  21  28
ATOM     27  O   UNL     1       3.830   6.477  17.498  0.00  0.00    +0.000 OA
ATOM     28  C   UNL     1       3.672   5.265  17.550  0.00  0.00    +0.000 C 
ATOM     29  N   UNL     1       4.371   4.378  16.757  0.00  0.00    +0.000 N 
ATOM     30  H   UNL     1       3.968   3.456  16.617  0.00  0.00    +0.000 HD
BRANCH  29  31
ATOM     31  C   UNL     1       5.366   4.837  15.798  0.00  0.00    +0.000 C 
BRANCH  31  32
ATOM     32  C   UNL     1       6.720   4.142  15.947  0.00  0.00    +0.000 C 
BRANCH  32  33
ATOM     33  C   UNL     1       7.533   4.751  17.077  0.00  0.00    +0.000 C 
ATOM     34  O   UNL     1       7.520   6.181  16.992  0.00  0.00    +0.000 OA
ATOM     35  C   UNL     1       7.701   6.580  18.347  0.00  0.00    +0.000 C 
ATOM     36  C   UNL     1       6.894   5.557  19.106  0.00  0.00    +0.000 C 
ATOM     37  O   UNL     1       7.033   4.348  18.356  0.00  0.00    +0.000 OA
ENDBRANCH  32  33
ENDBRANCH  31  32
ENDBRANCH  29  31
ENDBRANCH  21  28
ENDBRANCH   1  26
TORSDOF 8
ENDMDL
MODEL 2
REMARK VINA RESULT:      -9.1      1.390      2.130
REMARK  Name = 
REMARK  8 active torsions:
REMARK  status: ('A' for Active; 'I' for Inactive)
REMARK    1  A    between atoms: C_2  and  C_11
REMARK    2  A    between atoms: N_3  and  C_4
REMARK    3  A    between atoms: C_4  and  C_5
REMARK    4  A    between atoms: C_5  and  C_6
REMARK    5  A    between atoms: C_16  and  N_17
REMARK    6  A    between atoms: N_17  and  C_18
REMARK    7  A    between atoms: C_22  and  C_23
REMARK    8  A    between atoms: C_24  and  C_25
REMARK                            x       y       z     vdW  Elec       q    Type
REMARK                         _______ _______ _______ _____ _____    ______ ____
ROOT
ATOM      1  N   UNL     1       2.600   5.414  20.510  0.00  0.00    +0.000 N 
ATOM      2  H   UNL     1       3.532   5.591  20.896  0.00  0.00    +0.000 HD
ENDROOT
BRANCH   1   3
ATOM      3  C   UNL     1       1.969   6.678  20.299  0.00  0.00    +0.000 A 
ATOM      4  C   UNL     1       1.168   7.192  21.324  0.00  0.00    +0.000 A 
ATOM      5  C   UNL     1       0.613   8.480  21.249  0.00  0.00    +0.000 A 
ATOM      6  C   UNL     1       0.935   9.300  20.151  0.00  0.00    +0.000 A 
ATOM      7  C   UNL     1       0.728  10.665  19.782  0.00  0.00    +0.000 A 
ATOM      8  N   UNL     1       1.253  10.924  18.574  0.00  0.00    +0.000 NA
ATOM      9  N   UNL     1       1.819   9.767  18.204  0.00  0.00    +0.000 N 
ATOM     10  C   UNL     1       1.707   8.765  19.127  0.00  0.00    +0.000 A 
ATOM     11  C   UNL     1       2.233   7.466  19.162  0.00  0.00    +0.000 A 
ATOM     12  H   UNL     1       2.303   9.737  17.313  0.00  0.00    +0.000 HD
BRANCH   7  13
ATOM     13  C   UNL     1       0.138  11.664  20.628  0.00  0.00    +0.000 C 
ATOM     14  C   UNL     1      -0.554  11.384  21.747  0.00  0.00    +0.000 C 
BRANCH  14  15
ATOM     15  C   UNL     1      -1.277  12.364  22.569  0.00  0.00    +0.000 A 
ATOM     16  C   UNL     1      -2.552  12.060  23.046  0.00  0.00    +0.000 A 
ATOM     17  C   UNL     1      -3.231  13.003  23.815  0.00  0.00    +0.000 A 
ATOM     18  C   UNL     1      -2.622  14.222  24.084  0.00  0.00    +0.000 A 
ATOM     19  C   UNL     1      -1.357  14.447  23.565  0.00  0.00    +0.000 A 
ATOM     20  N   UNL     1      -0.676  13.552  22.814  0.00  0.00    +0.000 NA
ENDBRANCH  14  15
ENDBRANCH   7  13
ENDBRANCH   1   3
BRANCH   1  26
ATOM     21  C   UNL     1       3.781   3.947  18.860  0.00  0.00    +0.000 A 
ATOM     22  C   UNL     1       3.695   2.912  17.909  0.00  0.00    +0.000 A 
ATOM     23  C   UNL     1       2.506   2.218  17.711  0.00  0.00    +0.000 A 
ATOM     24  C   UNL     1       1.397   2.525  18.485  0.00  0.00    +0.000 A 
ATOM     25  C   UNL     1       1.469   3.554  19.418  0.00  0.00    +0.000 A 
ATOM     26  C   UNL     1       2.630   4.337  19.580  0.00  0.00    +0.000 A 
BRANCH  21  28
ATOM     27  O   UNL     1       5.292   5.524  19.747  0.00  0.00    +0.000 OA
ATOM     28  C   UNL     1       5.125   4.587  18.980  0.00  0.00    +0.000 C 
ATOM     29  N   UNL     1       6.125   4.083  18.173  0.00  0.00    +0.000 N 
ATOM     30  H   UNL     1       5.844   3.552  17.355  0.00  0.00    +0.000 HD
BRANCH  29  31
ATOM     31  C   UNL     1       7.469   4.642  18.192  0.00  0.00    +0.000 C 
BRANCH  31  32
ATOM     32  C   UNL     1       7.553   6.047  17.593  0.00  0.00    +0.000 C 
BRANCH  32  33
ATOM     33  C   UNL     1       7.226   6.035  16.109  0.00  0.00    +0.000 C 
ATOM     34  O   UNL     1       7.590   4.779  15.524  0.00  0.00    +0.000 OA
ATOM     35  C   UNL     1       6.687   4.667  14.429  0.00  0.00    +0.000 C 
ATOM     36  C   UNL     1       5.412   5.244  14.989  0.00  0.00    +0.000 C 
ATOM     37  O   UNL     1       5.835   6.280  15.878  0.00  0.00    +0.000 OA
ENDBRANCH  32  33
ENDBRANCH  31  32
ENDBRANCH  29  31
ENDBRANCH  21  28
ENDBRANCH   1  26
TORSDOF 8
ENDMDL
MODEL 3
REMARK VINA RESULT:      -9.0      0.912      1.112
REMARK  Name = 
REMARK  8 active torsions:
REMARK  status: ('A' for Active; 'I' for Inactive)
REMARK    1  A    between atoms: C_2  and  C_11
REMARK    2  A    between atoms: N_3  and  C_4
REMARK    3  A    between atoms: C_4  and  C_5
REMARK    4  A    between atoms: C_5  and  C_6
REMARK    5  A    between atoms: C_16  and  N_17
REMARK    6  A    between atoms: N_17  and  C_18
REMARK    7  A    between atoms: C_22  and  C_23
REMARK    8  A    between atoms: C_24  and  C_25
REMARK                            x       y       z     vdW  Elec       q    Type
REMARK                         _______ _______ _______ _____ _____    ______ ____
ROOT
ATOM      1  N   UNL     1       2.532   6.819  20.089  0.00  0.00    +0.000 N 
ATOM      2  H   UNL     1       3.434   7.062  19.671  0.00  0.00    +0.000 HD
ENDROOT
BRANCH   1   3
ATOM      3  C   UNL     1       1.696   7.976  20.023  0.00  0.00    +0.000 A 
ATOM      4  C   UNL     1       0.992   8.345  21.175  0.00  0.00    +0.000 A 
ATOM      5  C   UNL     1       0.248   9.535  21.233  0.00  0.00    +0.000 A 
ATOM      6  C   UNL     1       0.276  10.412  20.133  0.00  0.00    +0.000 A 
ATOM      7  C   UNL     1      -0.184  11.736  19.853  0.00  0.00    +0.000 A 
ATOM      8  N   UNL     1       0.108  12.093  18.592  0.00  0.00    +0.000 NA
ATOM      9  N   UNL     1       0.775  11.041  18.098  0.00  0.00    +0.000 N 
ATOM     10  C   UNL     1       0.954  10.019  18.986  0.00  0.00    +0.000 A 
ATOM     11  C   UNL     1       1.665   8.814  18.892  0.00  0.00    +0.000 A 
ATOM     12  H   UNL     1       1.119  11.101  17.144  0.00  0.00    +0.000 HD
BRANCH   7  13
ATOM     13  C   UNL     1      -0.780  12.619  20.816  0.00  0.00    +0.000 C 
ATOM     14  C   UNL     1      -0.139  13.659  21.377  0.00  0.00    +0.000 C 
BRANCH  14  15
ATOM     15  C   UNL     1      -0.669  14.507  22.453  0.00  0.00    +0.000 A 
ATOM     16  C   UNL     1      -1.202  13.918  23.600  0.00  0.00    +0.000 A 
ATOM     17  C   UNL     1      -1.711  14.734  24.608  0.00  0.00    +0.000 A 
ATOM     18  C   UNL     1      -1.678  16.113  24.444  0.00  0.00    +0.000 A 
ATOM     19  C   UNL     1      -1.139  16.616  23.271  0.00  0.00    +0.000 A 
ATOM     20  N   UNL     1      -0.639  15.849  22.275  0.00  0.00    +0.000 NA
ENDBRANCH  14  15
ENDBRANCH   7  13
ENDBRANCH   1   3
BRANCH   1  26
ATOM     21  C   UNL     1       2.639   4.805  18.606  0.00  0.00    +0.000 A 
ATOM     22  C   UNL     1       2.144   3.524  18.296  0.00  0.00    +0.000 A 
ATOM     23  C   UNL     1       1.218   2.894  19.123  0.00  0.00    +0.000 A 
ATOM     24  C   UNL     1       0.802   3.522  20.287  0.00  0.00    +0.000 A 
ATOM     25  C   UNL     1       1.277   4.793  20.594  0.00  0.00    +0.000 A 
ATOM     26  C   UNL     1       2.144   5.496  19.733  0.00  0.00    +0.000 A 
BRANCH  21  28
ATOM     27  O   UNL     1       3.896   6.542  17.625  0.00  0.00    +0.000 OA
ATOM     28  C   UNL     1       3.642   5.345  17.641  0.00  0.00    +0.000 C 
ATOM     29  N   UNL     1       4.225   4.438  16.778  0.00  0.00    +0.000 N 
ATOM     30  H   UNL     1       3.741   3.558  16.628  0.00  0.00    +0.000 HD
BRANCH  29  31
ATOM     31  C   UNL     1       5.202   4.856  15.783  0.00  0.00    +0.000 C 
BRANCH  31  32
ATOM     32  C   UNL     1       6.534   4.112  15.888  0.00  0.00    +0.000 C 
BRANCH  32  33
ATOM     33  C   UNL     1       7.462   4.778  16.890  0.00  0.00    +0.000 C 
ATOM     34  O   UNL     1       7.444   6.201  16.723  0.00  0.00    +0.000 OA
ATOM     35  C   UNL     1       7.767   6.676  18.026  0.00  0.00    +0.000 C 
ATOM     36  C   UNL     1       7.040   5.706  18.923  0.00  0.00    +0.000 C 
ATOM     37  O   UNL     1       7.097   4.454  18.236  0.00  0.00    +0.000 OA
ENDBRANCH  32  33
ENDBRANCH  31  32
ENDBRANCH  29  31
ENDBRANCH  21  28
ENDBRANCH   1  26
TORSDOF 8
ENDMDL
MODEL 4
REMARK VINA RESULT:      -8.9      1.436      2.053
REMARK  Name = 
REMARK  8 active torsions:
REMARK  status: ('A' for Active; 'I' for Inactive)
REMARK    1  A    between atoms: C_2  and  C_11
REMARK    2  A    between atoms: N_3  and  C_4
REMARK    3  A    between atoms: C_4  and  C_5
REMARK    4  A    between atoms: C_5  and  C_6
REMARK    5  A    between atoms: C_16  and  N_17
REMARK    6  A    between atoms: N_17  and  C_18
REMARK    7  A    between atoms: C_22  and  C_23
REMARK    8  A    between atoms: C_24  and  C_25
REMARK                            x       y       z     vdW  Elec       q    Type
REMARK                         _______ _______ _______ _____ _____    ______ ____
ROOT
ATOM      1  N   UNL     1       3.059   6.261  19.847  0.00  0.00    +0.000 N 
ATOM      2  H   UNL     1       3.820   6.502  19.205  0.00  0.00    +0.000 HD
ENDROOT
BRANCH   1   3
ATOM      3  C   UNL     1       2.170   7.377  19.908  0.00  0.00    +0.000 A 
ATOM      4  C   UNL     1       1.591   7.689  21.143  0.00  0.00    +0.000 A 
ATOM      5  C   UNL     1       0.806   8.841  21.318  0.00  0.00    +0.000 A 
ATOM      6  C   UNL     1       0.664   9.740  20.245  0.00  0.00    +0.000 A 
ATOM      7  C   UNL     1       0.115  11.046  20.054  0.00  0.00    +0.000 A 
ATOM      8  N   UNL     1       0.240  11.441  18.777  0.00  0.00    +0.000 NA
ATOM      9  N   UNL     1       0.892  10.433  18.182  0.00  0.00    +0.000 N 
ATOM     10  C   UNL     1       1.220   9.403  19.017  0.00  0.00    +0.000 A 
ATOM     11  C   UNL     1       1.969   8.236  18.810  0.00  0.00    +0.000 A 
ATOM     12  H   UNL     1       1.118  10.528  17.196  0.00  0.00    +0.000 HD
BRANCH   7  13
ATOM     13  C   UNL     1      -0.403  11.880  21.102  0.00  0.00    +0.000 C 
ATOM     14  C   UNL     1      -1.479  11.568  21.845  0.00  0.00    +0.000 C 
BRANCH  14  15
ATOM     15  C   UNL     1      -2.113  12.446  22.838  0.00  0.00    +0.000 A 
ATOM     16  C   UNL     1      -1.487  13.634  23.212  0.00  0.00    +0.000 A 
ATOM     17  C   UNL     1      -2.094  14.451  24.163  0.00  0.00    +0.000 A 
ATOM     18  C   UNL     1      -3.305  14.060  24.717  0.00  0.00    +0.000 A 
ATOM     19  C   UNL     1      -3.856  12.859  24.297  0.00  0.00    +0.000 A 
ATOM     20  N   UNL     1      -3.288  12.045  23.378  0.00  0.00    +0.000 NA
ENDBRANCH  14  15
ENDBRANCH   7  13
ENDBRANCH   1   3
BRANCH   1  26
ATOM     21  C   UNL     1       3.515   3.892  19.176  0.00  0.00    +0.000 A 
ATOM     22  C   UNL     1       3.018   2.588  18.992  0.00  0.00    +0.000 A 
ATOM     23  C   UNL     1       1.721   2.255  19.371  0.00  0.00    +0.000 A 
ATOM     24  C   UNL     1       0.917   3.212  19.970  0.00  0.00    +0.000 A 
ATOM     25  C   UNL     1       1.395   4.507  20.144  0.00  0.00    +0.000 A 
ATOM     26  C   UNL     1       2.670   4.901  19.689  0.00  0.00    +0.000 A 
BRANCH  21  28
ATOM     27  O   UNL     1       5.772   4.462  19.551  0.00  0.00    +0.000 OA
ATOM     28  C   UNL     1       4.930   4.097  18.743  0.00  0.00    +0.000 C 
ATOM     29  N   UNL     1       5.208   3.880  17.408  0.00  0.00    +0.000 N 
ATOM     30  H   UNL     1       4.429   3.904  16.758  0.00  0.00    +0.000 HD
BRANCH  29  31
ATOM     31  C   UNL     1       6.548   4.067  16.872  0.00  0.00    +0.000 C 
BRANCH  31  32
ATOM     32  C   UNL     1       6.775   5.456  16.272  0.00  0.00    +0.000 C 
BRANCH  32  33
ATOM     33  C   UNL     1       6.504   5.462  14.776  0.00  0.00    +0.000 C 
ATOM     34  O   UNL     1       7.731   5.361  14.043  0.00  0.00    +0.000 OA
ATOM     35  C   UNL     1       7.322   4.739  12.829  0.00  0.00    +0.000 C 
ATOM     36  C   UNL     1       6.283   3.751  13.295  0.00  0.00    +0.000 C 
ATOM     37  O   UNL     1       5.636   4.389  14.398  0.00  0.00    +0.000 OA
ENDBRANCH  32  33
ENDBRANCH  31  32
ENDBRANCH  29  31
ENDBRANCH  21  28
ENDBRANCH   1  26
TORSDOF 8
ENDMDL
MODEL 5
REMARK VINA RESULT:      -8.9      3.484      8.373
REMARK  Name = 
REMARK  8 active torsions:
REMARK  status: ('A' for Active; 'I' for Inactive)
REMARK    1  A    between atoms: C_2  and  C_11
REMARK    2  A    between atoms: N_3  and  C_4
REMARK    3  A    between atoms: C_4  and  C_5
REMARK    4  A    between atoms: C_5  and  C_6
REMARK    5  A    between atoms: C_16  and  N_17
REMARK    6  A    between atoms: N_17  and  C_18
REMARK    7  A    between atoms: C_22  and  C_23
REMARK    8  A    between atoms: C_24  and  C_25
REMARK                            x       y       z     vdW  Elec       q    Type
REMARK                         _______ _______ _______ _____ _____    ______ ____
ROOT
ATOM      1  N   UNL     1       3.419   4.177  16.907  0.00  0.00    +0.000 N 
ATOM      2  H   UNL     1       2.939   4.573  16.094  0.00  0.00    +0.000 HD
ENDROOT
BRANCH   1   3
ATOM      3  C   UNL     1       4.625   4.917  17.104  0.00  0.00    +0.000 A 
ATOM      4  C   UNL     1       4.800   6.097  16.372  0.00  0.00    +0.000 A 
ATOM      5  C   UNL     1       5.896   6.946  16.597  0.00  0.00    +0.000 A 
ATOM      6  C   UNL     1       6.795   6.641  17.634  0.00  0.00    +0.000 A 
ATOM      7  C   UNL     1       7.897   7.290  18.274  0.00  0.00    +0.000 A 
ATOM      8  N   UNL     1       8.425   6.513  19.232  0.00  0.00    +0.000 NA
ATOM      9  N   UNL     1       7.653   5.418  19.233  0.00  0.00    +0.000 N 
ATOM     10  C   UNL     1       6.626   5.452  18.332  0.00  0.00    +0.000 A 
ATOM     11  C   UNL     1       5.565   4.568  18.093  0.00  0.00    +0.000 A 
ATOM     12  H   UNL     1       7.861   4.689  19.909  0.00  0.00    +0.000 HD
BRANCH   7  13
ATOM     13  C   UNL     1       8.320   8.637  18.013  0.00  0.00    +0.000 C 
ATOM     14  C   UNL     1       9.012   9.389  18.887  0.00  0.00    +0.000 C 
BRANCH  14  15
ATOM     15  C   UNL     1       9.354  10.806  18.709  0.00  0.00    +0.000 A 
ATOM     16  C   UNL     1      10.338  11.386  19.509  0.00  0.00    +0.000 A 
ATOM     17  C   UNL     1      10.645  12.734  19.337  0.00  0.00    +0.000 A 
ATOM     18  C   UNL     1       9.961  13.467  18.376  0.00  0.00    +0.000 A 
ATOM     19  C   UNL     1       8.992  12.816  17.629  0.00  0.00    +0.000 A 
ATOM     20  N   UNL     1       8.672  11.510  17.776  0.00  0.00    +0.000 NA
ENDBRANCH  14  15
ENDBRANCH   7  13
ENDBRANCH   1   3
BRANCH   1  26
ATOM     21  C   UNL     1       2.038   4.713  18.926  0.00  0.00    +0.000 A 
ATOM     22  C   UNL     1       1.169   4.252  19.933  0.00  0.00    +0.000 A 
ATOM     23  C   UNL     1       0.690   2.945  19.923  0.00  0.00    +0.000 A 
ATOM     24  C   UNL     1       1.046   2.094  18.888  0.00  0.00    +0.000 A 
ATOM     25  C   UNL     1       1.913   2.537  17.896  0.00  0.00    +0.000 A 
ATOM     26  C   UNL     1       2.489   3.824  17.926  0.00  0.00    +0.000 A 
BRANCH  21  28
ATOM     27  O   UNL     1       3.191   6.488  19.964  0.00  0.00    +0.000 OA
ATOM     28  C   UNL     1       2.452   6.142  19.053  0.00  0.00    +0.000 C 
ATOM     29  N   UNL     1       1.940   7.022  18.121  0.00  0.00    +0.000 N 
ATOM     30  H   UNL     1       1.104   6.738  17.619  0.00  0.00    +0.000 HD
BRANCH  29  31
ATOM     31  C   UNL     1       2.261   8.441  18.159  0.00  0.00    +0.000 C 
BRANCH  31  32
ATOM     32  C   UNL     1       1.053   9.345  17.911  0.00  0.00    +0.000 C 
BRANCH  32  33
ATOM     33  C   UNL     1       0.403   9.771  19.217  0.00  0.00    +0.000 C 
ATOM     34  O   UNL     1       0.996   9.078  20.322  0.00  0.00    +0.000 OA
ATOM     35  C   UNL     1       0.804   9.986  21.403  0.00  0.00    +0.000 C 
ATOM     36  C   UNL     1       1.026  11.328  20.753  0.00  0.00    +0.000 C 
ATOM     37  O   UNL     1       0.521  11.182  19.424  0.00  0.00    +0.000 OA
ENDBRANCH  32  33
ENDBRANCH  31  32
ENDBRANCH  29  31
ENDBRANCH  21  28
ENDBRANCH   1  26
TORSDOF 8
ENDMDL
MODEL 6
REMARK VINA RESULT:      -8.9      1.116      1.236
REMARK  Name = 
REMARK  8 active torsions:
REMARK  status: ('A' for Active; 'I' for Inactive)
REMARK    1  A    between atoms: C_2  and  C_11
REMARK    2  A    between atoms: N_3  and  C_4
REMARK    3  A    between atoms: C_4  and  C_5
REMARK    4  A    between atoms: C_5  and  C_6
REMARK    5  A    between atoms: C_16  and  N_17
REMARK    6  A    between atoms: N_17  and  C_18
REMARK    7  A    between atoms: C_22  and  C_23
REMARK    8  A    between atoms: C_24  and  C_25
REMARK                            x       y       z     vdW  Elec       q    Type
REMARK                         _______ _______ _______ _____ _____    ______ ____
ROOT
ATOM      1  N   UNL     1       2.976   6.209  19.456  0.00  0.00    +0.000 N 
ATOM      2  H   UNL     1       3.373   6.239  18.513  0.00  0.00    +0.000 HD
ENDROOT
BRANCH   1   3
ATOM      3  C   UNL     1       2.142   7.358  19.615  0.00  0.00    +0.000 A 
ATOM      4  C   UNL     1       1.514   7.549  20.851  0.00  0.00    +0.000 A 
ATOM      5  C   UNL     1       0.780   8.713  21.131  0.00  0.00    +0.000 A 
ATOM      6  C   UNL     1       0.741   9.743  20.174  0.00  0.00    +0.000 A 
ATOM      7  C   UNL     1       0.268  11.091  20.122  0.00  0.00    +0.000 A 
ATOM      8  N   UNL     1       0.480  11.631  18.911  0.00  0.00    +0.000 NA
ATOM      9  N   UNL     1       1.111  10.668  18.225  0.00  0.00    +0.000 N 
ATOM     10  C   UNL     1       1.343   9.527  18.940  0.00  0.00    +0.000 A 
ATOM     11  C   UNL     1       2.042   8.354  18.624  0.00  0.00    +0.000 A 
ATOM     12  H   UNL     1       1.393  10.870  17.271  0.00  0.00    +0.000 HD
BRANCH   7  13
ATOM     13  C   UNL     1      -0.262  11.818  21.240  0.00  0.00    +0.000 C 
ATOM     14  C   UNL     1      -1.544  11.751  21.639  0.00  0.00    +0.000 C 
BRANCH  14  15
ATOM     15  C   UNL     1      -2.154  12.570  22.695  0.00  0.00    +0.000 A 
ATOM     16  C   UNL     1      -1.560  13.777  23.064  0.00  0.00    +0.000 A 
ATOM     17  C   UNL     1      -2.142  14.538  24.076  0.00  0.00    +0.000 A 
ATOM     18  C   UNL     1      -3.297  14.074  24.693  0.00  0.00    +0.000 A 
ATOM     19  C   UNL     1      -3.817  12.860  24.272  0.00  0.00    +0.000 A 
ATOM     20  N   UNL     1      -3.272  12.099  23.295  0.00  0.00    +0.000 NA
ENDBRANCH  14  15
ENDBRANCH   7  13
ENDBRANCH   1   3
BRANCH   1  26
ATOM     21  C   UNL     1       2.683   3.777  18.940  0.00  0.00    +0.000 A 
ATOM     22  C   UNL     1       2.255   2.508  19.374  0.00  0.00    +0.000 A 
ATOM     23  C   UNL     1       1.839   2.303  20.687  0.00  0.00    +0.000 A 
ATOM     24  C   UNL     1       1.879   3.355  21.589  0.00  0.00    +0.000 A 
ATOM     25  C   UNL     1       2.290   4.615  21.165  0.00  0.00    +0.000 A 
ATOM     26  C   UNL     1       2.630   4.878  19.822  0.00  0.00    +0.000 A 
BRANCH  21  28
ATOM     27  O   UNL     1       2.323   3.614  16.615  0.00  0.00    +0.000 OA
ATOM     28  C   UNL     1       3.121   3.842  17.513  0.00  0.00    +0.000 C 
ATOM     29  N   UNL     1       4.450   4.140  17.285  0.00  0.00    +0.000 N 
ATOM     30  H   UNL     1       5.101   3.992  18.051  0.00  0.00    +0.000 HD
BRANCH  29  31
ATOM     31  C   UNL     1       4.991   4.211  15.936  0.00  0.00    +0.000 C 
BRANCH  31  32
ATOM     32  C   UNL     1       5.596   5.574  15.595  0.00  0.00    +0.000 C 
BRANCH  32  33
ATOM     33  C   UNL     1       6.835   5.853  16.429  0.00  0.00    +0.000 C 
ATOM     34  O   UNL     1       6.472   6.403  17.701  0.00  0.00    +0.000 OA
ATOM     35  C   UNL     1       7.549   5.998  18.539  0.00  0.00    +0.000 C 
ATOM     36  C   UNL     1       7.860   4.612  18.035  0.00  0.00    +0.000 C 
ATOM     37  O   UNL     1       7.608   4.666  16.630  0.00  0.00    +0.000 OA
ENDBRANCH  32  33
ENDBRANCH  31  32
ENDBRANCH  29  31
ENDBRANCH  21  28
ENDBRANCH   1  26
TORSDOF 8
ENDMDL
MODEL 7
REMARK VINA RESULT:      -8.8      1.597      2.298
REMARK  Name = 
REMARK  8 active torsions:
REMARK  status: ('A' for Active; 'I' for Inactive)
REMARK    1  A    between atoms: C_2  and  C_11
REMARK    2  A    between atoms: N_3  and  C_4
REMARK    3  A    between atoms: C_4  and  C_5
REMARK    4  A    between atoms: C_5  and  C_6
REMARK    5  A    between atoms: C_16  and  N_17
REMARK    6  A    between atoms: N_17  and  C_18
REMARK    7  A    between atoms: C_22  and  C_23
REMARK    8  A    between atoms: C_24  and  C_25
REMARK                            x       y       z     vdW  Elec       q    Type
REMARK                         _______ _______ _______ _____ _____    ______ ____
ROOT
ATOM      1  N   UNL     1       2.676   6.307  20.268  0.00  0.00    +0.000 N 
ATOM      2  H   UNL     1       3.613   6.555  19.941  0.00  0.00    +0.000 HD
ENDROOT
BRANCH   1   3
ATOM      3  C   UNL     1       1.841   7.456  20.110  0.00  0.00    +0.000 A 
ATOM      4  C   UNL     1       0.943   7.761  21.139  0.00  0.00    +0.000 A 
ATOM      5  C   UNL     1       0.177   8.939  21.122  0.00  0.00    +0.000 A 
ATOM      6  C   UNL     1       0.375   9.867  20.083  0.00  0.00    +0.000 A 
ATOM      7  C   UNL     1      -0.056  11.198  19.787  0.00  0.00    +0.000 A 
ATOM      8  N   UNL     1       0.441  11.617  18.612  0.00  0.00    +0.000 NA
ATOM      9  N   UNL     1       1.204  10.597  18.194  0.00  0.00    +0.000 N 
ATOM     10  C   UNL     1       1.248   9.536  19.054  0.00  0.00    +0.000 A 
ATOM     11  C   UNL     1       1.988   8.346  19.030  0.00  0.00    +0.000 A 
ATOM     12  H   UNL     1       1.704  10.707  17.317  0.00  0.00    +0.000 HD
BRANCH   7  13
ATOM     13  C   UNL     1      -0.825  12.027  20.672  0.00  0.00    +0.000 C 
ATOM     14  C   UNL     1      -0.462  12.317  21.933  0.00  0.00    +0.000 C 
BRANCH  14  15
ATOM     15  C   UNL     1      -1.277  13.054  22.908  0.00  0.00    +0.000 A 
ATOM     16  C   UNL     1      -2.563  12.609  23.213  0.00  0.00    +0.000 A 
ATOM     17  C   UNL     1      -3.329  13.325  24.130  0.00  0.00    +0.000 A 
ATOM     18  C   UNL     1      -2.794  14.465  24.715  0.00  0.00    +0.000 A 
ATOM     19  C   UNL     1      -1.512  14.844  24.350  0.00  0.00    +0.000 A 
ATOM     20  N   UNL     1      -0.746  14.170  23.461  0.00  0.00    +0.000 NA
ENDBRANCH  14  15
ENDBRANCH   7  13
ENDBRANCH   1   3
BRANCH   1  26
ATOM     21  C   UNL     1       2.928   4.295  18.800  0.00  0.00    +0.000 A 
ATOM     22  C   UNL     1       2.479   3.007  18.453  0.00  0.00    +0.000 A 
ATOM     23  C   UNL     1       1.500   2.363  19.206  0.00  0.00    +0.000 A 
ATOM     24  C   UNL     1       0.985   2.985  20.333  0.00  0.00    +0.000 A 
ATOM     25  C   UNL     1       1.416   4.263  20.676  0.00  0.00    +0.000 A 
ATOM     26  C   UNL     1       2.337   4.979  19.884  0.00  0.00    +0.000 A 
BRANCH  21  28
ATOM     27  O   UNL     1       3.974   6.030  17.594  0.00  0.00    +0.000 OA
ATOM     28  C   UNL     1       3.996   4.851  17.915  0.00  0.00    +0.000 C 
ATOM     29  N   UNL     1       4.962   3.966  17.477  0.00  0.00    +0.000 N 
ATOM     30  H   UNL     1       4.738   2.976  17.509  0.00  0.00    +0.000 HD
BRANCH  29  31
ATOM     31  C   UNL     1       6.039   4.393  16.597  0.00  0.00    +0.000 C 
BRANCH  31  32
ATOM     32  C   UNL     1       5.600   4.576  15.143  0.00  0.00    +0.000 C 
BRANCH  32  33
ATOM     33  C   UNL     1       6.696   4.156  14.178  0.00  0.00    +0.000 C 
ATOM     34  O   UNL     1       6.137   3.790  12.911  0.00  0.00    +0.000 OA
ATOM     35  C   UNL     1       7.200   4.069  12.005  0.00  0.00    +0.000 C 
ATOM     36  C   UNL     1       7.799   5.330  12.573  0.00  0.00    +0.000 C 
ATOM     37  O   UNL     1       7.655   5.202  13.989  0.00  0.00    +0.000 OA
ENDBRANCH  32  33
ENDBRANCH  31  32
ENDBRANCH  29  31
ENDBRANCH  21  28
ENDBRANCH   1  26
TORSDOF 8
ENDMDL
MODEL 8
REMARK VINA RESULT:      -8.7      1.264      1.672
REMARK  Name = 
REMARK  8 active torsions:
REMARK  status: ('A' for Active; 'I' for Inactive)
REMARK    1  A    between atoms: C_2  and  C_11
REMARK    2  A    between atoms: N_3  and  C_4
REMARK    3  A    between atoms: C_4  and  C_5
REMARK    4  A    between atoms: C_5  and  C_6
REMARK    5  A    between atoms: C_16  and  N_17
REMARK    6  A    between atoms: N_17  and  C_18
REMARK    7  A    between atoms: C_22  and  C_23
REMARK    8  A    between atoms: C_24  and  C_25
REMARK                            x       y       z     vdW  Elec       q    Type
REMARK                         _______ _______ _______ _____ _____    ______ ____
ROOT
ATOM      1  N   UNL     1       2.939   5.938  19.951  0.00  0.00    +0.000 N 
ATOM      2  H   UNL     1       3.844   6.100  19.501  0.00  0.00    +0.000 HD
ENDROOT
BRANCH   1   3
ATOM      3  C   UNL     1       2.175   7.140  19.840  0.00  0.00    +0.000 A 
ATOM      4  C   UNL     1       1.441   7.557  20.956  0.00  0.00    +0.000 A 
ATOM      5  C   UNL     1       0.765   8.788  20.973  0.00  0.00    +0.000 A 
ATOM      6  C   UNL     1       0.893   9.654  19.871  0.00  0.00    +0.000 A 
ATOM      7  C   UNL     1       0.523  11.000  19.563  0.00  0.00    +0.000 A 
ATOM      8  N   UNL     1       0.892  11.328  18.314  0.00  0.00    +0.000 NA
ATOM      9  N   UNL     1       1.520  10.237  17.857  0.00  0.00    +0.000 N 
ATOM     10  C   UNL     1       1.599   9.213  18.759  0.00  0.00    +0.000 A 
ATOM     11  C   UNL     1       2.244   7.969  18.704  0.00  0.00    +0.000 A 
ATOM     12  H   UNL     1       1.910  10.269  16.920  0.00  0.00    +0.000 HD
BRANCH   7  13
ATOM     13  C   UNL     1      -0.065  11.922  20.492  0.00  0.00    +0.000 C 
ATOM     14  C   UNL     1      -0.548  11.568  21.696  0.00  0.00    +0.000 C 
BRANCH  14  15
ATOM     15  C   UNL     1      -1.267  12.455  22.621  0.00  0.00    +0.000 A 
ATOM     16  C   UNL     1      -2.568  12.140  23.011  0.00  0.00    +0.000 A 
ATOM     17  C   UNL     1      -3.243  12.995  23.879  0.00  0.00    +0.000 A 
ATOM     18  C   UNL     1      -2.603  14.142  24.332  0.00  0.00    +0.000 A 
ATOM     19  C   UNL     1      -1.313  14.385  23.889  0.00  0.00    +0.000 A 
ATOM     20  N   UNL     1      -0.635  13.574  23.045  0.00  0.00    +0.000 NA
ENDBRANCH  14  15
ENDBRANCH   7  13
ENDBRANCH   1   3
BRANCH   1  26
ATOM     21  C   UNL     1       3.200   3.647  18.974  0.00  0.00    +0.000 A 
ATOM     22  C   UNL     1       2.616   2.398  18.690  0.00  0.00    +0.000 A 
ATOM     23  C   UNL     1       1.341   2.082  19.151  0.00  0.00    +0.000 A 
ATOM     24  C   UNL     1       0.648   2.997  19.929  0.00  0.00    +0.000 A 
ATOM     25  C   UNL     1       1.212   4.238  20.203  0.00  0.00    +0.000 A 
ATOM     26  C   UNL     1       2.462   4.625  19.676  0.00  0.00    +0.000 A 
BRANCH  21  28
ATOM     27  O   UNL     1       5.536   3.877  19.196  0.00  0.00    +0.000 OA
ATOM     28  C   UNL     1       4.579   3.838  18.435  0.00  0.00    +0.000 C 
ATOM     29  N   UNL     1       4.696   3.989  17.067  0.00  0.00    +0.000 N 
ATOM     30  H   UNL     1       3.866   4.270  16.555  0.00  0.00    +0.000 HD
BRANCH  29  31
ATOM     31  C   UNL     1       5.990   4.200  16.435  0.00  0.00    +0.000 C 
BRANCH  31  32
ATOM     32  C   UNL     1       6.251   5.657  16.053  0.00  0.00    +0.000 C 
BRANCH  32  33
ATOM     33  C   UNL     1       6.522   6.511  17.281  0.00  0.00    +0.000 C 
ATOM     34  O   UNL     1       7.652   6.008  18.003  0.00  0.00    +0.000 OA
ATOM     35  C   UNL     1       8.158   7.172  18.647  0.00  0.00    +0.000 C 
ATOM     36  C   UNL     1       7.959   8.243  17.604  0.00  0.00    +0.000 C 
ATOM     37  O   UNL     1       6.756   7.877  16.926  0.00  0.00    +0.000 OA
ENDBRANCH  32  33
ENDBRANCH  31  32
ENDBRANCH  29  31
ENDBRANCH  21  28
ENDBRANCH   1  26
TORSDOF 8
ENDMDL
MODEL 9
REMARK VINA RESULT:      -8.7      1.531      2.127
REMARK  Name = 
REMARK  8 active torsions:
REMARK  status: ('A' for Active; 'I' for Inactive)
REMARK    1  A    between atoms: C_2  and  C_11
REMARK    2  A    between atoms: N_3  and  C_4
REMARK    3  A    between atoms: C_4  and  C_5
REMARK    4  A    between atoms: C_5  and  C_6
REMARK    5  A    between atoms: C_16  and  N_17
REMARK    6  A    between atoms: N_17  and  C_18
REMARK    7  A    between atoms: C_22  and  C_23
REMARK    8  A    between atoms: C_24  and  C_25
REMARK                            x       y       z     vdW  Elec       q    Type
REMARK                         _______ _______ _______ _____ _____    ______ ____
ROOT
ATOM      1  N   UNL     1       2.227   7.487  19.103  0.00  0.00    +0.000 N 
ATOM      2  H   UNL     1       1.971   7.683  18.131  0.00  0.00    +0.000 HD
ENDROOT
BRANCH   1   3
ATOM      3  C   UNL     1       1.585   8.461  19.928  0.00  0.00    +0.000 A 
ATOM      4  C   UNL     1       0.863   9.482  19.299  0.00  0.00    +0.000 A 
ATOM      5  C   UNL     1       0.101  10.404  20.034  0.00  0.00    +0.000 A 
ATOM      6  C   UNL     1      -0.000  10.249  21.429  0.00  0.00    +0.000 A 
ATOM      7  C   UNL     1      -0.764  10.838  22.484  0.00  0.00    +0.000 A 
ATOM      8  N   UNL     1      -0.440  10.303  23.672  0.00  0.00    +0.000 NA
ATOM      9  N   UNL     1       0.472   9.368  23.375  0.00  0.00    +0.000 N 
ATOM     10  C   UNL     1       0.745   9.249  22.042  0.00  0.00    +0.000 A 
ATOM     11  C   UNL     1       1.548   8.346  21.330  0.00  0.00    +0.000 A 
ATOM     12  H   UNL     1       0.848   8.812  24.137  0.00  0.00    +0.000 HD
BRANCH   7  13
ATOM     13  C   UNL     1      -1.818  11.795  22.298  0.00  0.00    +0.000 C 
ATOM     14  C   UNL     1      -2.760  12.062  23.220  0.00  0.00    +0.000 C 
BRANCH  14  15
ATOM     15  C   UNL     1      -3.923  12.937  23.023  0.00  0.00    +0.000 A 
ATOM     16  C   UNL     1      -3.963  14.185  23.644  0.00  0.00    +0.000 A 
ATOM     17  C   UNL     1      -5.078  15.000  23.457  0.00  0.00    +0.000 A 
ATOM     18  C   UNL     1      -6.121  14.547  22.661  0.00  0.00    +0.000 A 
ATOM     19  C   UNL     1      -6.006  13.291  22.087  0.00  0.00    +0.000 A 
ATOM     20  N   UNL     1      -4.937  12.478  22.252  0.00  0.00    +0.000 NA
ENDBRANCH  14  15
ENDBRANCH   7  13
ENDBRANCH   1   3
BRANCH   1  26
ATOM     21  C   UNL     1       3.023   5.168  18.594  0.00  0.00    +0.000 A 
ATOM     22  C   UNL     1       2.937   3.790  18.869  0.00  0.00    +0.000 A 
ATOM     23  C   UNL     1       2.158   3.317  19.921  0.00  0.00    +0.000 A 
ATOM     24  C   UNL     1       1.484   4.217  20.732  0.00  0.00    +0.000 A 
ATOM     25  C   UNL     1       1.554   5.580  20.460  0.00  0.00    +0.000 A 
ATOM     26  C   UNL     1       2.259   6.085  19.349  0.00  0.00    +0.000 A 
BRANCH  21  28
ATOM     27  O   UNL     1       4.112   6.705  17.176  0.00  0.00    +0.000 OA
ATOM     28  C   UNL     1       3.913   5.530  17.451  0.00  0.00    +0.000 C 
ATOM     29  N   UNL     1       4.456   4.484  16.732  0.00  0.00    +0.000 N 
ATOM     30  H   UNL     1       4.000   3.580  16.804  0.00  0.00    +0.000 HD
BRANCH  29  31
ATOM     31  C   UNL     1       5.323   4.720  15.586  0.00  0.00    +0.000 C 
BRANCH  31  32
ATOM     32  C   UNL     1       6.699   4.066  15.720  0.00  0.00    +0.000 C 
BRANCH  32  33
ATOM     33  C   UNL     1       7.572   4.813  16.714  0.00  0.00    +0.000 C 
ATOM     34  O   UNL     1       7.333   6.223  16.632  0.00  0.00    +0.000 OA
ATOM     35  C   UNL     1       7.653   6.674  17.945  0.00  0.00    +0.000 C 
ATOM     36  C   UNL     1       7.131   5.561  18.816  0.00  0.00    +0.000 C 
ATOM     37  O   UNL     1       7.335   4.369  18.054  0.00  0.00    +0.000 OA
ENDBRANCH  32  33
ENDBRANCH  31  32
ENDBRANCH  29  31
ENDBRANCH  21  28
ENDBRANCH   1  26
TORSDOF 8
ENDMDL
