MODEL 1
REMARK VINA RESULT:      -7.8      0.000      0.000
REMARK  Name = 
REMARK  5 active torsions:
REMARK  status: ('A' for Active; 'I' for Inactive)
REMARK    1  A    between atoms: C_2  and  O_3
REMARK    2  A    between atoms: C_2  and  C_4
REMARK    3  A    between atoms: C_8  and  N_9
REMARK    4  A    between atoms: N_9  and  C_10
REMARK    5  A    between atoms: C_15  and  N_16
REMARK                            x       y       z     vdW  Elec       q    Type
REMARK                         _______ _______ _______ _____ _____    ______ ____
ROOT
ATOM      1  N   UNL     1       3.204   3.086  17.597  0.00  0.00    +0.000 N 
ATOM      2  H   UNL     1       3.564   2.172  17.316  0.00  0.00    +0.000 HD
ENDROOT
BRANCH   1   7
ATOM      3  C   UNL     1       5.681   5.020  15.575  0.00  0.00    +0.000 A 
ATOM      4  C   UNL     1       5.413   6.325  15.997  0.00  0.00    +0.000 A 
ATOM      5  C   UNL     1       4.428   6.547  16.958  0.00  0.00    +0.000 A 
ATOM      6  C   UNL     1       3.704   5.472  17.486  0.00  0.00    +0.000 A 
ATOM      7  C   UNL     1       3.936   4.162  17.047  0.00  0.00    +0.000 A 
ATOM      8  C   UNL     1       4.938   3.951  16.090  0.00  0.00    +0.000 A 
BRANCH   3  10
ATOM      9  O   UNL     1       7.685   5.431  14.368  0.00  0.00    +0.000 OA
ATOM     10  C   UNL     1       6.723   4.714  14.566  0.00  0.00    +0.000 C 
BRANCH  10  11
ATOM     11  O   UNL     1       6.471   3.590  13.860  0.00  0.00    +0.000 OA
ATOM     12  H   UNL     1       7.123   3.388  13.165  0.00  0.00    +0.000 HD
ENDBRANCH  10  11
ENDBRANCH   3  10
ENDBRANCH   1   7
BRANCH   1  13
ATOM     13  C   UNL     1       2.590   3.019  18.872  0.00  0.00    +0.000 A 
ATOM     14  C   UNL     1       1.211   3.231  19.010  0.00  0.00    +0.000 A 
ATOM     15  C   UNL     1       0.634   3.198  20.271  0.00  0.00    +0.000 A 
ATOM     16  N   UNL     1       1.328   2.978  21.409  0.00  0.00    +0.000 NA
ATOM     17  C   UNL     1       2.657   2.766  21.278  0.00  0.00    +0.000 A 
ATOM     18  C   UNL     1       3.307   2.782  20.052  0.00  0.00    +0.000 A 
BRANCH  18  19
ATOM     19  N   UNL     1       4.725   2.539  20.049  0.00  0.00    +0.000 N 
ATOM     20  O   UNL     1       5.106   1.418  20.418  0.00  0.00    +0.000 OA
ATOM     21  O   UNL     1       5.463   3.443  19.633  0.00  0.00    +0.000 OA
ENDBRANCH  18  19
ENDBRANCH   1  13
TORSDOF 5
ENDMDL
MODEL 2
REMARK VINA RESULT:      -7.8      0.129      1.023
REMARK  Name = 
REMARK  5 active torsions:
REMARK  status: ('A' for Active; 'I' for Inactive)
REMARK    1  A    between atoms: C_2  and  O_3
REMARK    2  A    between atoms: C_2  and  C_4
REMARK    3  A    between atoms: C_8  and  N_9
REMARK    4  A    between atoms: N_9  and  C_10
REMARK    5  A    between atoms: C_15  and  N_16
REMARK                            x       y       z     vdW  Elec       q    Type
REMARK                         _______ _______ _______ _____ _____    ______ ____
ROOT
ATOM      1  N   UNL     1       3.215   3.107  17.598  0.00  0.00    +0.000 N 
ATOM      2  H   UNL     1       3.590   2.198  17.322  0.00  0.00    +0.000 HD
ENDROOT
BRANCH   1   7
ATOM      3  C   UNL     1       5.625   5.072  15.525  0.00  0.00    +0.000 A 
ATOM      4  C   UNL     1       5.370   6.371  15.973  0.00  0.00    +0.000 A 
ATOM      5  C   UNL     1       4.415   6.579  16.969  0.00  0.00    +0.000 A 
ATOM      6  C   UNL     1       3.709   5.495  17.505  0.00  0.00    +0.000 A 
ATOM      7  C   UNL     1       3.929   4.192  17.039  0.00  0.00    +0.000 A 
ATOM      8  C   UNL     1       4.899   3.995  16.048  0.00  0.00    +0.000 A 
BRANCH   3  10
ATOM      9  O   UNL     1       6.465   3.949  13.608  0.00  0.00    +0.000 OA
ATOM     10  C   UNL     1       6.634   4.782  14.479  0.00  0.00    +0.000 C 
BRANCH  10  11
ATOM     11  O   UNL     1       7.771   5.497  14.618  0.00  0.00    +0.000 OA
ATOM     12  H   UNL     1       8.592   4.972  14.588  0.00  0.00    +0.000 HD
ENDBRANCH  10  11
ENDBRANCH   3  10
ENDBRANCH   1   7
BRANCH   1  13
ATOM     13  C   UNL     1       2.603   3.038  18.874  0.00  0.00    +0.000 A 
ATOM     14  C   UNL     1       1.227   3.263  19.016  0.00  0.00    +0.000 A 
ATOM     15  C   UNL     1       0.653   3.228  20.278  0.00  0.00    +0.000 A 
ATOM     16  N   UNL     1       1.347   2.994  21.413  0.00  0.00    +0.000 NA
ATOM     17  C   UNL     1       2.674   2.769  21.277  0.00  0.00    +0.000 A 
ATOM     18  C   UNL     1       3.320   2.787  20.050  0.00  0.00    +0.000 A 
BRANCH  18  19
ATOM     19  N   UNL     1       4.736   2.529  20.043  0.00  0.00    +0.000 N 
ATOM     20  O   UNL     1       5.474   3.443  19.643  0.00  0.00    +0.000 OA
ATOM     21  O   UNL     1       5.125   1.437  20.481  0.00  0.00    +0.000 OA
ENDBRANCH  18  19
ENDBRANCH   1  13
TORSDOF 5
ENDMDL
MODEL 3
REMARK VINA RESULT:      -7.7      2.170      2.897
REMARK  Name = 
REMARK  5 active torsions:
REMARK  status: ('A' for Active; 'I' for Inactive)
REMARK    1  A    between atoms: C_2  and  O_3
REMARK    2  A    between atoms: C_2  and  C_4
REMARK    3  A    between atoms: C_8  and  N_9
REMARK    4  A    between atoms: N_9  and  C_10
REMARK    5  A    between atoms: C_15  and  N_16
REMARK                            x       y       z     vdW  Elec       q    Type
REMARK                         _______ _______ _______ _____ _____    ______ ____
ROOT
ATOM      1  N   UNL     1       3.474   3.934  17.663  0.00  0.00    +0.000 N 
ATOM      2  H   UNL     1       3.087   3.281  16.979  0.00  0.00    +0.000 HD
ENDROOT
BRANCH   1   7
ATOM      3  C   UNL     1       6.963   5.182  18.149  0.00  0.00    +0.000 A 
ATOM      4  C   UNL     1       7.528   4.895  16.902  0.00  0.00    +0.000 A 
ATOM      5  C   UNL     1       6.742   4.308  15.911  0.00  0.00    +0.000 A 
ATOM      6  C   UNL     1       5.402   3.997  16.167  0.00  0.00    +0.000 A 
ATOM      7  C   UNL     1       4.832   4.245  17.423  0.00  0.00    +0.000 A 
ATOM      8  C   UNL     1       5.628   4.847  18.406  0.00  0.00    +0.000 A 
BRANCH   3  10
ATOM      9  O   UNL     1       7.796   5.357  20.366  0.00  0.00    +0.000 OA
ATOM     10  C   UNL     1       7.739   5.815  19.241  0.00  0.00    +0.000 C 
BRANCH  10  11
ATOM     11  O   UNL     1       8.334   6.971  18.875  0.00  0.00    +0.000 OA
ATOM     12  H   UNL     1       9.104   6.867  18.285  0.00  0.00    +0.000 HD
ENDBRANCH  10  11
ENDBRANCH   3  10
ENDBRANCH   1   7
BRANCH   1  13
ATOM     13  C   UNL     1       2.823   3.803  18.915  0.00  0.00    +0.000 A 
ATOM     14  C   UNL     1       1.867   4.744  19.321  0.00  0.00    +0.000 A 
ATOM     15  C   UNL     1       1.268   4.620  20.566  0.00  0.00    +0.000 A 
ATOM     16  N   UNL     1       1.555   3.633  21.443  0.00  0.00    +0.000 NA
ATOM     17  C   UNL     1       2.473   2.721  21.050  0.00  0.00    +0.000 A 
ATOM     18  C   UNL     1       3.114   2.776  19.821  0.00  0.00    +0.000 A 
BRANCH  18  19
ATOM     19  N   UNL     1       4.069   1.741  19.523  0.00  0.00    +0.000 N 
ATOM     20  O   UNL     1       3.842   1.033  18.530  0.00  0.00    +0.000 OA
ATOM     21  O   UNL     1       5.072   1.659  20.245  0.00  0.00    +0.000 OA
ENDBRANCH  18  19
ENDBRANCH   1  13
TORSDOF 5
ENDMDL
MODEL 4
REMARK VINA RESULT:      -7.6      2.674      6.005
REMARK  Name = 
REMARK  5 active torsions:
REMARK  status: ('A' for Active; 'I' for Inactive)
REMARK    1  A    between atoms: C_2  and  O_3
REMARK    2  A    between atoms: C_2  and  C_4
REMARK    3  A    between atoms: C_8  and  N_9
REMARK    4  A    between atoms: N_9  and  C_10
REMARK    5  A    between atoms: C_15  and  N_16
REMARK                            x       y       z     vdW  Elec       q    Type
REMARK                         _______ _______ _______ _____ _____    ______ ____
ROOT
ATOM      1  N   UNL     1       4.857   3.024  17.414  0.00  0.00    +0.000 N 
ATOM      2  H   UNL     1       4.885   2.143  16.897  0.00  0.00    +0.000 HD
ENDROOT
BRANCH   1   7
ATOM      3  C   UNL     1       2.224   3.025  20.066  0.00  0.00    +0.000 A 
ATOM      4  C   UNL     1       1.157   3.621  19.387  0.00  0.00    +0.000 A 
ATOM      5  C   UNL     1       1.318   4.000  18.054  0.00  0.00    +0.000 A 
ATOM      6  C   UNL     1       2.542   3.796  17.407  0.00  0.00    +0.000 A 
ATOM      7  C   UNL     1       3.631   3.233  18.085  0.00  0.00    +0.000 A 
ATOM      8  C   UNL     1       3.453   2.845  19.420  0.00  0.00    +0.000 A 
BRANCH   3  10
ATOM      9  O   UNL     1       1.083   2.660  22.117  0.00  0.00    +0.000 OA
ATOM     10  C   UNL     1       2.116   2.589  21.479  0.00  0.00    +0.000 C 
BRANCH  10  11
ATOM     11  O   UNL     1       3.285   2.153  21.995  0.00  0.00    +0.000 OA
ATOM     12  H   UNL     1       3.763   1.508  21.441  0.00  0.00    +0.000 HD
ENDBRANCH  10  11
ENDBRANCH   3  10
ENDBRANCH   1   7
BRANCH   1  13
ATOM     13  C   UNL     1       5.688   3.997  16.805  0.00  0.00    +0.000 A 
ATOM     14  C   UNL     1       6.055   3.875  15.458  0.00  0.00    +0.000 A 
ATOM     15  C   UNL     1       6.900   4.818  14.889  0.00  0.00    +0.000 A 
ATOM     16  N   UNL     1       7.414   5.870  15.563  0.00  0.00    +0.000 NA
ATOM     17  C   UNL     1       7.055   5.992  16.861  0.00  0.00    +0.000 A 
ATOM     18  C   UNL     1       6.214   5.092  17.500  0.00  0.00    +0.000 A 
BRANCH  18  19
ATOM     19  N   UNL     1       5.908   5.340  18.884  0.00  0.00    +0.000 N 
ATOM     20  O   UNL     1       4.880   5.991  19.127  0.00  0.00    +0.000 OA
ATOM     21  O   UNL     1       6.658   4.845  19.737  0.00  0.00    +0.000 OA
ENDBRANCH  18  19
ENDBRANCH   1  13
TORSDOF 5
ENDMDL
MODEL 5
REMARK VINA RESULT:      -7.6      2.889      5.553
REMARK  Name = 
REMARK  5 active torsions:
REMARK  status: ('A' for Active; 'I' for Inactive)
REMARK    1  A    between atoms: C_2  and  O_3
REMARK    2  A    between atoms: C_2  and  C_4
REMARK    3  A    between atoms: C_8  and  N_9
REMARK    4  A    between atoms: N_9  and  C_10
REMARK    5  A    between atoms: C_15  and  N_16
REMARK                            x       y       z     vdW  Elec       q    Type
REMARK                         _______ _______ _______ _____ _____    ______ ____
ROOT
ATOM      1  N   UNL     1       4.298   6.354  17.870  0.00  0.00    +0.000 N 
ATOM      2  H   UNL     1       4.618   7.212  18.325  0.00  0.00    +0.000 HD
ENDROOT
BRANCH   1   7
ATOM      3  C   UNL     1       1.826   3.760  18.932  0.00  0.00    +0.000 A 
ATOM      4  C   UNL     1       1.310   4.340  20.094  0.00  0.00    +0.000 A 
ATOM      5  C   UNL     1       1.775   5.589  20.503  0.00  0.00    +0.000 A 
ATOM      6  C   UNL     1       2.759   6.252  19.761  0.00  0.00    +0.000 A 
ATOM      7  C   UNL     1       3.312   5.668  18.614  0.00  0.00    +0.000 A 
ATOM      8  C   UNL     1       2.827   4.418  18.206  0.00  0.00    +0.000 A 
BRANCH   3  10
ATOM      9  O   UNL     1       0.217   2.060  18.532  0.00  0.00    +0.000 OA
ATOM     10  C   UNL     1       1.368   2.441  18.436  0.00  0.00    +0.000 C 
BRANCH  10  11
ATOM     11  O   UNL     1       2.362   1.691  17.913  0.00  0.00    +0.000 OA
ATOM     12  H   UNL     1       3.207   1.735  18.397  0.00  0.00    +0.000 HD
ENDBRANCH  10  11
ENDBRANCH   3  10
ENDBRANCH   1   7
BRANCH   1  13
ATOM     13  C   UNL     1       5.321   5.796  17.064  0.00  0.00    +0.000 A 
ATOM     14  C   UNL     1       5.143   5.661  15.680  0.00  0.00    +0.000 A 
ATOM     15  C   UNL     1       6.142   5.077  14.914  0.00  0.00    +0.000 A 
ATOM     16  N   UNL     1       7.302   4.608  15.422  0.00  0.00    +0.000 NA
ATOM     17  C   UNL     1       7.478   4.743  16.757  0.00  0.00    +0.000 A 
ATOM     18  C   UNL     1       6.528   5.317  17.589  0.00  0.00    +0.000 A 
BRANCH  18  19
ATOM     19  N   UNL     1       6.840   5.404  18.991  0.00  0.00    +0.000 N 
ATOM     20  O   UNL     1       6.148   4.727  19.767  0.00  0.00    +0.000 OA
ATOM     21  O   UNL     1       7.806   6.105  19.323  0.00  0.00    +0.000 OA
ENDBRANCH  18  19
ENDBRANCH   1  13
TORSDOF 5
ENDMDL
MODEL 6
REMARK VINA RESULT:      -7.6      2.648      5.983
REMARK  Name = 
REMARK  5 active torsions:
REMARK  status: ('A' for Active; 'I' for Inactive)
REMARK    1  A    between atoms: C_2  and  O_3
REMARK    2  A    between atoms: C_2  and  C_4
REMARK    3  A    between atoms: C_8  and  N_9
REMARK    4  A    between atoms: N_9  and  C_10
REMARK    5  A    between atoms: C_15  and  N_16
REMARK                            x       y       z     vdW  Elec       q    Type
REMARK                         _______ _______ _______ _____ _____    ______ ____
ROOT
ATOM      1  N   UNL     1       4.853   2.969  17.274  0.00  0.00    +0.000 N 
ATOM      2  H   UNL     1       4.878   2.064  16.800  0.00  0.00    +0.000 HD
ENDROOT
BRANCH   1   7
ATOM      3  C   UNL     1       2.217   3.063  19.921  0.00  0.00    +0.000 A 
ATOM      4  C   UNL     1       1.160   3.662  19.229  0.00  0.00    +0.000 A 
ATOM      5  C   UNL     1       1.328   4.012  17.890  0.00  0.00    +0.000 A 
ATOM      6  C   UNL     1       2.550   3.776  17.248  0.00  0.00    +0.000 A 
ATOM      7  C   UNL     1       3.629   3.210  17.939  0.00  0.00    +0.000 A 
ATOM      8  C   UNL     1       3.443   2.851  19.281  0.00  0.00    +0.000 A 
BRANCH   3  10
ATOM      9  O   UNL     1       3.051   2.291  22.007  0.00  0.00    +0.000 OA
ATOM     10  C   UNL     1       2.101   2.656  21.342  0.00  0.00    +0.000 C 
BRANCH  10  11
ATOM     11  O   UNL     1       0.833   2.687  21.806  0.00  0.00    +0.000 OA
ATOM     12  H   UNL     1       0.282   3.406  21.445  0.00  0.00    +0.000 HD
ENDBRANCH  10  11
ENDBRANCH   3  10
ENDBRANCH   1   7
BRANCH   1  13
ATOM     13  C   UNL     1       5.681   3.911  16.615  0.00  0.00    +0.000 A 
ATOM     14  C   UNL     1       6.004   3.750  15.261  0.00  0.00    +0.000 A 
ATOM     15  C   UNL     1       6.848   4.663  14.644  0.00  0.00    +0.000 A 
ATOM     16  N   UNL     1       7.401   5.721  15.275  0.00  0.00    +0.000 NA
ATOM     17  C   UNL     1       7.084   5.882  16.580  0.00  0.00    +0.000 A 
ATOM     18  C   UNL     1       6.248   5.013  17.267  0.00  0.00    +0.000 A 
BRANCH  18  19
ATOM     19  N   UNL     1       5.989   5.299  18.654  0.00  0.00    +0.000 N 
ATOM     20  O   UNL     1       6.694   4.717  19.492  0.00  0.00    +0.000 OA
ATOM     21  O   UNL     1       5.119   6.142  18.914  0.00  0.00    +0.000 OA
ENDBRANCH  18  19
ENDBRANCH   1  13
TORSDOF 5
ENDMDL
MODEL 7
REMARK VINA RESULT:      -7.5      2.537      3.371
REMARK  Name = 
REMARK  5 active torsions:
REMARK  status: ('A' for Active; 'I' for Inactive)
REMARK    1  A    between atoms: C_2  and  O_3
REMARK    2  A    between atoms: C_2  and  C_4
REMARK    3  A    between atoms: C_8  and  N_9
REMARK    4  A    between atoms: N_9  and  C_10
REMARK    5  A    between atoms: C_15  and  N_16
REMARK                            x       y       z     vdW  Elec       q    Type
REMARK                         _______ _______ _______ _____ _____    ______ ____
ROOT
ATOM      1  N   UNL     1       4.188   2.978  18.230  0.00  0.00    +0.000 N 
ATOM      2  H   UNL     1       4.564   2.028  18.200  0.00  0.00    +0.000 HD
ENDROOT
BRANCH   1   7
ATOM      3  C   UNL     1       6.863   5.572  17.952  0.00  0.00    +0.000 A 
ATOM      4  C   UNL     1       6.790   5.890  16.593  0.00  0.00    +0.000 A 
ATOM      5  C   UNL     1       5.844   5.254  15.789  0.00  0.00    +0.000 A 
ATOM      6  C   UNL     1       4.984   4.296  16.337  0.00  0.00    +0.000 A 
ATOM      7  C   UNL     1       5.070   3.940  17.690  0.00  0.00    +0.000 A 
ATOM      8  C   UNL     1       6.016   4.596  18.490  0.00  0.00    +0.000 A 
BRANCH   3  10
ATOM      9  O   UNL     1       8.307   7.321  18.657  0.00  0.00    +0.000 OA
ATOM     10  C   UNL     1       7.836   6.219  18.864  0.00  0.00    +0.000 C 
BRANCH  10  11
ATOM     11  O   UNL     1       8.181   5.445  19.915  0.00  0.00    +0.000 OA
ATOM     12  H   UNL     1       8.496   4.552  19.681  0.00  0.00    +0.000 HD
ENDBRANCH  10  11
ENDBRANCH   3  10
ENDBRANCH   1   7
BRANCH   1  13
ATOM     13  C   UNL     1       3.296   3.135  19.320  0.00  0.00    +0.000 A 
ATOM     14  C   UNL     1       3.534   2.479  20.535  0.00  0.00    +0.000 A 
ATOM     15  C   UNL     1       2.629   2.616  21.578  0.00  0.00    +0.000 A 
ATOM     16  N   UNL     1       1.499   3.351  21.500  0.00  0.00    +0.000 NA
ATOM     17  C   UNL     1       1.270   3.990  20.330  0.00  0.00    +0.000 A 
ATOM     18  C   UNL     1       2.127   3.904  19.243  0.00  0.00    +0.000 A 
BRANCH  18  19
ATOM     19  N   UNL     1       1.770   4.636  18.057  0.00  0.00    +0.000 N 
ATOM     20  O   UNL     1       2.083   5.836  18.018  0.00  0.00    +0.000 OA
ATOM     21  O   UNL     1       1.223   4.011  17.138  0.00  0.00    +0.000 OA
ENDBRANCH  18  19
ENDBRANCH   1  13
TORSDOF 5
ENDMDL
MODEL 8
REMARK VINA RESULT:      -7.5      2.162      2.769
REMARK  Name = 
REMARK  5 active torsions:
REMARK  status: ('A' for Active; 'I' for Inactive)
REMARK    1  A    between atoms: C_2  and  O_3
REMARK    2  A    between atoms: C_2  and  C_4
REMARK    3  A    between atoms: C_8  and  N_9
REMARK    4  A    between atoms: N_9  and  C_10
REMARK    5  A    between atoms: C_15  and  N_16
REMARK                            x       y       z     vdW  Elec       q    Type
REMARK                         _______ _______ _______ _____ _____    ______ ____
ROOT
ATOM      1  N   UNL     1       3.479   4.000  17.648  0.00  0.00    +0.000 N 
ATOM      2  H   UNL     1       3.057   3.322  17.011  0.00  0.00    +0.000 HD
ENDROOT
BRANCH   1   7
ATOM      3  C   UNL     1       6.957   5.350  17.854  0.00  0.00    +0.000 A 
ATOM      4  C   UNL     1       7.473   4.957  16.615  0.00  0.00    +0.000 A 
ATOM      5  C   UNL     1       6.657   4.265  15.721  0.00  0.00    +0.000 A 
ATOM      6  C   UNL     1       5.336   3.956  16.066  0.00  0.00    +0.000 A 
ATOM      7  C   UNL     1       4.817   4.311  17.318  0.00  0.00    +0.000 A 
ATOM      8  C   UNL     1       5.643   5.017  18.203  0.00  0.00    +0.000 A 
BRANCH   3  10
ATOM      9  O   UNL     1       8.234   7.199  18.625  0.00  0.00    +0.000 OA
ATOM     10  C   UNL     1       7.767   6.098  18.845  0.00  0.00    +0.000 C 
BRANCH  10  11
ATOM     11  O   UNL     1       7.972   5.415  19.993  0.00  0.00    +0.000 OA
ATOM     12  H   UNL     1       7.282   4.761  20.209  0.00  0.00    +0.000 HD
ENDBRANCH  10  11
ENDBRANCH   3  10
ENDBRANCH   1   7
BRANCH   1  13
ATOM     13  C   UNL     1       2.904   3.909  18.940  0.00  0.00    +0.000 A 
ATOM     14  C   UNL     1       2.010   4.889  19.393  0.00  0.00    +0.000 A 
ATOM     15  C   UNL     1       1.487   4.802  20.675  0.00  0.00    +0.000 A 
ATOM     16  N   UNL     1       1.792   3.815  21.545  0.00  0.00    +0.000 NA
ATOM     17  C   UNL     1       2.649   2.865  21.108  0.00  0.00    +0.000 A 
ATOM     18  C   UNL     1       3.213   2.882  19.841  0.00  0.00    +0.000 A 
BRANCH  18  19
ATOM     19  N   UNL     1       4.108   1.808  19.498  0.00  0.00    +0.000 N 
ATOM     20  O   UNL     1       5.084   1.627  20.242  0.00  0.00    +0.000 OA
ATOM     21  O   UNL     1       3.818   1.108  18.518  0.00  0.00    +0.000 OA
ENDBRANCH  18  19
ENDBRANCH   1  13
TORSDOF 5
ENDMDL
MODEL 9
REMARK VINA RESULT:      -7.5      2.048      2.509
REMARK  Name = 
REMARK  5 active torsions:
REMARK  status: ('A' for Active; 'I' for Inactive)
REMARK    1  A    between atoms: C_2  and  O_3
REMARK    2  A    between atoms: C_2  and  C_4
REMARK    3  A    between atoms: C_8  and  N_9
REMARK    4  A    between atoms: N_9  and  C_10
REMARK    5  A    between atoms: C_15  and  N_16
REMARK                            x       y       z     vdW  Elec       q    Type
REMARK                         _______ _______ _______ _____ _____    ______ ____
ROOT
ATOM      1  N   UNL     1       4.194   3.036  18.204  0.00  0.00    +0.000 N 
ATOM      2  H   UNL     1       4.525   2.072  18.130  0.00  0.00    +0.000 HD
ENDROOT
BRANCH   1   7
ATOM      3  C   UNL     1       6.553   4.842  15.937  0.00  0.00    +0.000 A 
ATOM      4  C   UNL     1       7.022   5.850  16.784  0.00  0.00    +0.000 A 
ATOM      5  C   UNL     1       6.564   5.910  18.100  0.00  0.00    +0.000 A 
ATOM      6  C   UNL     1       5.633   4.974  18.564  0.00  0.00    +0.000 A 
ATOM      7  C   UNL     1       5.127   3.980  17.717  0.00  0.00    +0.000 A 
ATOM      8  C   UNL     1       5.604   3.923  16.401  0.00  0.00    +0.000 A 
BRANCH   3  10
ATOM      9  O   UNL     1       7.773   5.503  14.009  0.00  0.00    +0.000 OA
ATOM     10  C   UNL     1       7.008   4.715  14.532  0.00  0.00    +0.000 C 
BRANCH  10  11
ATOM     11  O   UNL     1       6.452   3.670  13.882  0.00  0.00    +0.000 OA
ATOM     12  H   UNL     1       6.181   2.928  14.454  0.00  0.00    +0.000 HD
ENDBRANCH  10  11
ENDBRANCH   3  10
ENDBRANCH   1   7
BRANCH   1  13
ATOM     13  C   UNL     1       3.302   3.183  19.295  0.00  0.00    +0.000 A 
ATOM     14  C   UNL     1       3.538   2.514  20.503  0.00  0.00    +0.000 A 
ATOM     15  C   UNL     1       2.632   2.641  21.546  0.00  0.00    +0.000 A 
ATOM     16  N   UNL     1       1.503   3.379  21.476  0.00  0.00    +0.000 NA
ATOM     17  C   UNL     1       1.277   4.031  20.313  0.00  0.00    +0.000 A 
ATOM     18  C   UNL     1       2.135   3.955  19.225  0.00  0.00    +0.000 A 
BRANCH  18  19
ATOM     19  N   UNL     1       1.780   4.701  18.047  0.00  0.00    +0.000 N 
ATOM     20  O   UNL     1       2.148   5.884  17.995  0.00  0.00    +0.000 OA
ATOM     21  O   UNL     1       1.178   4.101  17.145  0.00  0.00    +0.000 OA
ENDBRANCH  18  19
ENDBRANCH   1  13
TORSDOF 5
ENDMDL
