MODEL 1
REMARK VINA RESULT:      -6.9      0.000      0.000
REMARK  Name = 
REMARK  13 active torsions:
REMARK  status: ('A' for Active; 'I' for Inactive)
REMARK    1  A    between atoms: C_1  and  C_2
REMARK    2  A    between atoms: C_2  and  C_3
REMARK    3  A    between atoms: C_3  and  C_4
REMARK    4  A    between atoms: C_4  and  C_5
REMARK    5  A    between atoms: C_5  and  C_6
REMARK    6  A    between atoms: C_6  and  N_7
REMARK    7  A    between atoms: N_7  and  C_8
REMARK    8  A    between atoms: N_7  and  C_14
REMARK    9  A    between atoms: C_8  and  C_9
REMARK   10  A    between atoms: C_14  and  C_15
REMARK   11  A    between atoms: C_14  and  C_19
REMARK   12  A    between atoms: C_15  and  C_16
REMARK   13  A    between atoms: C_16  and  O_18
REMARK                            x       y       z     vdW  Elec       q    Type
REMARK                         _______ _______ _______ _____ _____    ______ ____
ROOT
ATOM      1  N   UNL     1       4.007   5.883  17.439  0.00  0.00    +0.000 NA
ENDROOT
BRANCH   1   2
ATOM      2  C   UNL     1       3.663   6.768  18.589  0.00  0.00    +0.000 C 
BRANCH   2   3
ATOM      3  C   UNL     1       2.158   6.912  18.846  0.00  0.00    +0.000 C 
BRANCH   3   4
ATOM      4  C   UNL     1       1.779   6.576  20.293  0.00  0.00    +0.000 C 
BRANCH   4   5
ATOM      5  C   UNL     1       2.214   5.146  20.618  0.00  0.00    +0.000 C 
BRANCH   5   7
ATOM      6  C   UNL     1       1.334   2.919  21.348  0.00  0.00    +0.000 C 
ATOM      7  C   UNL     1       1.071   4.144  20.488  0.00  0.00    +0.000 C 
ENDBRANCH   5   7
ENDBRANCH   4   5
ENDBRANCH   3   4
ENDBRANCH   2   3
ENDBRANCH   1   2
BRANCH   1   8
ATOM      8  C   UNL     1       4.802   6.644  16.402  0.00  0.00    +0.000 C 
BRANCH   8   9
ATOM      9  C   UNL     1       5.845   5.832  15.688  0.00  0.00    +0.000 A 
ATOM     10  N   UNL     1       5.540   4.898  14.727  0.00  0.00    +0.000 NA
ATOM     11  C   UNL     1       6.717   4.569  14.246  0.00  0.00    +0.000 A 
ATOM     12  N   UNL     1       7.685   5.245  14.920  0.00  0.00    +0.000 N 
ATOM     13  N   UNL     1       7.161   6.027  15.869  0.00  0.00    +0.000 NA
ATOM     14  H   UNL     1       8.690   5.238  14.780  0.00  0.00    +0.000 HD
ENDBRANCH   8   9
ENDBRANCH   1   8
BRANCH   1  15
ATOM     15  C   UNL     1       4.780   4.665  17.901  0.00  0.00    +0.000 C 
BRANCH  15  16
ATOM     16  C   UNL     1       3.887   3.438  17.971  0.00  0.00    +0.000 A 
ATOM     17  C   UNL     1       2.712   3.147  17.304  0.00  0.00    +0.000 A 
ATOM     18  N   UNL     1       2.359   1.893  17.714  0.00  0.00    +0.000 N 
ATOM     19  C   UNL     1       3.283   1.487  18.632  0.00  0.00    +0.000 A 
ATOM     20  N   UNL     1       4.210   2.400  18.819  0.00  0.00    +0.000 NA
ATOM     21  H   UNL     1       1.563   1.359  17.395  0.00  0.00    +0.000 HD
ENDBRANCH  15  16
BRANCH  15  22
ATOM     22  C   UNL     1       5.477   4.840  19.264  0.00  0.00    +0.000 C 
BRANCH  22  23
ATOM     23  C   UNL     1       6.981   4.953  19.209  0.00  0.00    +0.000 C 
ATOM     24  O   UNL     1       7.640   5.495  20.086  0.00  0.00    +0.000 OA
BRANCH  23  25
ATOM     25  O   UNL     1       7.573   4.316  18.173  0.00  0.00    +0.000 OA
ATOM     26  H   UNL     1       8.172   3.590  18.471  0.00  0.00    +0.000 HD
ENDBRANCH  23  25
ENDBRANCH  22  23
ENDBRANCH  15  22
ENDBRANCH   1  15
TORSDOF 12
ENDMDL
MODEL 2
REMARK VINA RESULT:      -6.6      1.693      2.653
REMARK  Name = 
REMARK  13 active torsions:
REMARK  status: ('A' for Active; 'I' for Inactive)
REMARK    1  A    between atoms: C_1  and  C_2
REMARK    2  A    between atoms: C_2  and  C_3
REMARK    3  A    between atoms: C_3  and  C_4
REMARK    4  A    between atoms: C_4  and  C_5
REMARK    5  A    between atoms: C_5  and  C_6
REMARK    6  A    between atoms: C_6  and  N_7
REMARK    7  A    between atoms: N_7  and  C_8
REMARK    8  A    between atoms: N_7  and  C_14
REMARK    9  A    between atoms: C_8  and  C_9
REMARK   10  A    between atoms: C_14  and  C_15
REMARK   11  A    between atoms: C_14  and  C_19
REMARK   12  A    between atoms: C_15  and  C_16
REMARK   13  A    between atoms: C_16  and  O_18
REMARK                            x       y       z     vdW  Elec       q    Type
REMARK                         _______ _______ _______ _____ _____    ______ ____
ROOT
ATOM      1  N   UNL     1       3.821   5.628  17.272  0.00  0.00    +0.000 NA
ENDROOT
BRANCH   1   2
ATOM      2  C   UNL     1       2.926   6.454  18.134  0.00  0.00    +0.000 C 
BRANCH   2   3
ATOM      3  C   UNL     1       2.866   7.936  17.744  0.00  0.00    +0.000 C 
BRANCH   3   4
ATOM      4  C   UNL     1       1.951   8.746  18.669  0.00  0.00    +0.000 C 
BRANCH   4   5
ATOM      5  C   UNL     1       0.868   9.438  17.841  0.00  0.00    +0.000 C 
BRANCH   5   7
ATOM      6  C   UNL     1      -1.482  10.298  17.932  0.00  0.00    +0.000 C 
ATOM      7  C   UNL     1      -0.188  10.115  18.709  0.00  0.00    +0.000 C 
ENDBRANCH   5   7
ENDBRANCH   4   5
ENDBRANCH   3   4
ENDBRANCH   2   3
ENDBRANCH   1   2
BRANCH   1   8
ATOM      8  C   UNL     1       4.827   6.503  16.558  0.00  0.00    +0.000 C 
BRANCH   8   9
ATOM      9  C   UNL     1       5.836   5.755  15.733  0.00  0.00    +0.000 A 
ATOM     10  N   UNL     1       5.486   4.893  14.721  0.00  0.00    +0.000 NA
ATOM     11  C   UNL     1       6.637   4.611  14.157  0.00  0.00    +0.000 A 
ATOM     12  N   UNL     1       7.636   5.243  14.830  0.00  0.00    +0.000 N 
ATOM     13  N   UNL     1       7.158   5.947  15.861  0.00  0.00    +0.000 NA
ATOM     14  H   UNL     1       8.632   5.255  14.639  0.00  0.00    +0.000 HD
ENDBRANCH   8   9
ENDBRANCH   1   8
BRANCH   1  15
ATOM     15  C   UNL     1       4.531   4.566  18.085  0.00  0.00    +0.000 C 
BRANCH  15  16
ATOM     16  C   UNL     1       3.578   3.462  18.507  0.00  0.00    +0.000 A 
ATOM     17  C   UNL     1       2.939   2.495  17.754  0.00  0.00    +0.000 A 
ATOM     18  N   UNL     1       2.235   1.740  18.648  0.00  0.00    +0.000 N 
ATOM     19  C   UNL     1       2.425   2.287  19.884  0.00  0.00    +0.000 A 
ATOM     20  N   UNL     1       3.218   3.333  19.832  0.00  0.00    +0.000 NA
ATOM     21  H   UNL     1       1.678   0.923  18.438  0.00  0.00    +0.000 HD
ENDBRANCH  15  16
BRANCH  15  22
ATOM     22  C   UNL     1       5.243   5.104  19.341  0.00  0.00    +0.000 C 
BRANCH  22  23
ATOM     23  C   UNL     1       6.748   4.994  19.327  0.00  0.00    +0.000 C 
ATOM     24  O   UNL     1       7.460   5.491  20.190  0.00  0.00    +0.000 OA
BRANCH  23  25
ATOM     25  O   UNL     1       7.263   4.212  18.351  0.00  0.00    +0.000 OA
ATOM     26  H   UNL     1       6.564   3.730  17.848  0.00  0.00    +0.000 HD
ENDBRANCH  23  25
ENDBRANCH  22  23
ENDBRANCH  15  22
ENDBRANCH   1  15
TORSDOF 12
ENDMDL
MODEL 3
REMARK VINA RESULT:      -6.6      2.050      4.765
REMARK  Name = 
REMARK  13 active torsions:
REMARK  status: ('A' for Active; 'I' for Inactive)
REMARK    1  A    between atoms: C_1  and  C_2
REMARK    2  A    between atoms: C_2  and  C_3
REMARK    3  A    between atoms: C_3  and  C_4
REMARK    4  A    between atoms: C_4  and  C_5
REMARK    5  A    between atoms: C_5  and  C_6
REMARK    6  A    between atoms: C_6  and  N_7
REMARK    7  A    between atoms: N_7  and  C_8
REMARK    8  A    between atoms: N_7  and  C_14
REMARK    9  A    between atoms: C_8  and  C_9
REMARK   10  A    between atoms: C_14  and  C_15
REMARK   11  A    between atoms: C_14  and  C_19
REMARK   12  A    between atoms: C_15  and  C_16
REMARK   13  A    between atoms: C_16  and  O_18
REMARK                            x       y       z     vdW  Elec       q    Type
REMARK                         _______ _______ _______ _____ _____    ______ ____
ROOT
ATOM      1  N   UNL     1       4.721   5.134  17.579  0.00  0.00    +0.000 NA
ENDROOT
BRANCH   1   2
ATOM      2  C   UNL     1       4.084   6.467  17.784  0.00  0.00    +0.000 C 
BRANCH   2   3
ATOM      3  C   UNL     1       2.617   6.404  18.224  0.00  0.00    +0.000 C 
BRANCH   3   4
ATOM      4  C   UNL     1       2.457   6.537  19.742  0.00  0.00    +0.000 C 
BRANCH   4   5
ATOM      5  C   UNL     1       2.573   5.157  20.393  0.00  0.00    +0.000 C 
BRANCH   5   7
ATOM      6  C   UNL     1       1.312   3.228  21.370  0.00  0.00    +0.000 C 
ATOM      7  C   UNL     1       1.245   4.408  20.413  0.00  0.00    +0.000 C 
ENDBRANCH   5   7
ENDBRANCH   4   5
ENDBRANCH   3   4
ENDBRANCH   2   3
ENDBRANCH   1   2
BRANCH   1   8
ATOM      8  C   UNL     1       3.790   4.208  16.829  0.00  0.00    +0.000 C 
BRANCH   8   9
ATOM      9  C   UNL     1       3.387   2.974  17.585  0.00  0.00    +0.000 A 
ATOM     10  N   UNL     1       4.184   2.386  18.540  0.00  0.00    +0.000 NA
ATOM     11  C   UNL     1       3.398   1.476  19.065  0.00  0.00    +0.000 A 
ATOM     12  N   UNL     1       2.199   1.489  18.424  0.00  0.00    +0.000 N 
ATOM     13  N   UNL     1       2.178   2.407  17.452  0.00  0.00    +0.000 NA
ATOM     14  H   UNL     1       1.369   0.933  18.601  0.00  0.00    +0.000 HD
ENDBRANCH   8   9
ENDBRANCH   1   8
BRANCH   1  15
ATOM     15  C   UNL     1       6.037   5.266  16.839  0.00  0.00    +0.000 C 
BRANCH  15  16
ATOM     16  C   UNL     1       6.945   6.286  17.504  0.00  0.00    +0.000 A 
ATOM     17  C   UNL     1       7.707   6.190  18.653  0.00  0.00    +0.000 A 
ATOM     18  N   UNL     1       8.357   7.386  18.762  0.00  0.00    +0.000 N 
ATOM     19  C   UNL     1       7.944   8.172  17.726  0.00  0.00    +0.000 A 
ATOM     20  N   UNL     1       7.084   7.544  16.957  0.00  0.00    +0.000 NA
ATOM     21  H   UNL     1       9.025   7.645  19.475  0.00  0.00    +0.000 HD
ENDBRANCH  15  16
BRANCH  15  22
ATOM     22  C   UNL     1       5.889   5.640  15.352  0.00  0.00    +0.000 C 
BRANCH  22  23
ATOM     23  C   UNL     1       6.768   4.864  14.401  0.00  0.00    +0.000 C 
ATOM     24  O   UNL     1       6.427   3.802  13.896  0.00  0.00    +0.000 OA
BRANCH  23  25
ATOM     25  O   UNL     1       7.923   5.473  14.053  0.00  0.00    +0.000 OA
ATOM     26  H   UNL     1       8.221   5.224  13.145  0.00  0.00    +0.000 HD
ENDBRANCH  23  25
ENDBRANCH  22  23
ENDBRANCH  15  22
ENDBRANCH   1  15
TORSDOF 12
ENDMDL
MODEL 4
REMARK VINA RESULT:      -6.6      1.076      1.459
REMARK  Name = 
REMARK  13 active torsions:
REMARK  status: ('A' for Active; 'I' for Inactive)
REMARK    1  A    between atoms: C_1  and  C_2
REMARK    2  A    between atoms: C_2  and  C_3
REMARK    3  A    between atoms: C_3  and  C_4
REMARK    4  A    between atoms: C_4  and  C_5
REMARK    5  A    between atoms: C_5  and  C_6
REMARK    6  A    between atoms: C_6  and  N_7
REMARK    7  A    between atoms: N_7  and  C_8
REMARK    8  A    between atoms: N_7  and  C_14
REMARK    9  A    between atoms: C_8  and  C_9
REMARK   10  A    between atoms: C_14  and  C_15
REMARK   11  A    between atoms: C_14  and  C_19
REMARK   12  A    between atoms: C_15  and  C_16
REMARK   13  A    between atoms: C_16  and  O_18
REMARK                            x       y       z     vdW  Elec       q    Type
REMARK                         _______ _______ _______ _____ _____    ______ ____
ROOT
ATOM      1  N   UNL     1       4.406   5.565  17.322  0.00  0.00    +0.000 NA
ENDROOT
BRANCH   1   2
ATOM      2  C   UNL     1       3.711   6.531  18.223  0.00  0.00    +0.000 C 
BRANCH   2   3
ATOM      3  C   UNL     1       2.181   6.459  18.164  0.00  0.00    +0.000 C 
BRANCH   3   4
ATOM      4  C   UNL     1       1.656   5.031  18.350  0.00  0.00    +0.000 C 
BRANCH   4   5
ATOM      5  C   UNL     1       1.726   4.647  19.829  0.00  0.00    +0.000 C 
BRANCH   5   7
ATOM      6  C   UNL     1       1.382   2.819  21.504  0.00  0.00    +0.000 C 
ATOM      7  C   UNL     1       0.999   3.340  20.128  0.00  0.00    +0.000 C 
ENDBRANCH   5   7
ENDBRANCH   4   5
ENDBRANCH   3   4
ENDBRANCH   2   3
ENDBRANCH   1   2
BRANCH   1   8
ATOM      8  C   UNL     1       5.109   6.296  16.201  0.00  0.00    +0.000 C 
BRANCH   8   9
ATOM      9  C   UNL     1       5.811   5.406  15.213  0.00  0.00    +0.000 A 
ATOM     10  N   UNL     1       7.121   5.589  14.840  0.00  0.00    +0.000 NA
ATOM     11  C   UNL     1       7.381   4.516  14.129  0.00  0.00    +0.000 A 
ATOM     12  N   UNL     1       6.262   3.748  14.046  0.00  0.00    +0.000 N 
ATOM     13  N   UNL     1       5.237   4.310  14.694  0.00  0.00    +0.000 NA
ATOM     14  H   UNL     1       6.133   2.849  13.594  0.00  0.00    +0.000 HD
ENDBRANCH   8   9
ENDBRANCH   1   8
BRANCH   1  15
ATOM     15  C   UNL     1       5.392   4.714  18.094  0.00  0.00    +0.000 C 
BRANCH  15  16
ATOM     16  C   UNL     1       4.789   3.371  18.469  0.00  0.00    +0.000 A 
ATOM     17  C   UNL     1       4.030   2.490  17.721  0.00  0.00    +0.000 A 
ATOM     18  N   UNL     1       3.792   1.425  18.541  0.00  0.00    +0.000 N 
ATOM     19  C   UNL     1       4.360   1.703  19.750  0.00  0.00    +0.000 A 
ATOM     20  N   UNL     1       4.957   2.874  19.744  0.00  0.00    +0.000 NA
ATOM     21  H   UNL     1       3.292   0.580  18.299  0.00  0.00    +0.000 HD
ENDBRANCH  15  16
BRANCH  15  22
ATOM     22  C   UNL     1       5.936   5.380  19.372  0.00  0.00    +0.000 C 
BRANCH  22  23
ATOM     23  C   UNL     1       7.399   5.745  19.337  0.00  0.00    +0.000 C 
ATOM     24  O   UNL     1       7.906   6.375  18.418  0.00  0.00    +0.000 OA
BRANCH  23  25
ATOM     25  O   UNL     1       8.104   5.425  20.446  0.00  0.00    +0.000 OA
ATOM     26  H   UNL     1       7.894   4.518  20.776  0.00  0.00    +0.000 HD
ENDBRANCH  23  25
ENDBRANCH  22  23
ENDBRANCH  15  22
ENDBRANCH   1  15
TORSDOF 12
ENDMDL
MODEL 5
REMARK VINA RESULT:      -6.5      2.233      5.329
REMARK  Name = 
REMARK  13 active torsions:
REMARK  status: ('A' for Active; 'I' for Inactive)
REMARK    1  A    between atoms: C_1  and  C_2
REMARK    2  A    between atoms: C_2  and  C_3
REMARK    3  A    between atoms: C_3  and  C_4
REMARK    4  A    between atoms: C_4  and  C_5
REMARK    5  A    between atoms: C_5  and  C_6
REMARK    6  A    between atoms: C_6  and  N_7
REMARK    7  A    between atoms: N_7  and  C_8
REMARK    8  A    between atoms: N_7  and  C_14
REMARK    9  A    between atoms: C_8  and  C_9
REMARK   10  A    between atoms: C_14  and  C_15
REMARK   11  A    between atoms: C_14  and  C_19
REMARK   12  A    between atoms: C_15  and  C_16
REMARK   13  A    between atoms: C_16  and  O_18
REMARK                            x       y       z     vdW  Elec       q    Type
REMARK                         _______ _______ _______ _____ _____    ______ ____
ROOT
ATOM      1  N   UNL     1       4.625   4.741  17.679  0.00  0.00    +0.000 NA
ENDROOT
BRANCH   1   2
ATOM      2  C   UNL     1       3.860   6.018  17.775  0.00  0.00    +0.000 C 
BRANCH   2   3
ATOM      3  C   UNL     1       3.171   6.241  19.126  0.00  0.00    +0.000 C 
BRANCH   3   4
ATOM      4  C   UNL     1       2.350   7.535  19.156  0.00  0.00    +0.000 C 
BRANCH   4   5
ATOM      5  C   UNL     1       2.474   8.252  17.811  0.00  0.00    +0.000 C 
BRANCH   5   7
ATOM      6  C   UNL     1       0.807   9.767  18.904  0.00  0.00    +0.000 C 
ATOM      7  C   UNL     1       1.892   9.661  17.844  0.00  0.00    +0.000 C 
ENDBRANCH   5   7
ENDBRANCH   4   5
ENDBRANCH   3   4
ENDBRANCH   2   3
ENDBRANCH   1   2
BRANCH   1   8
ATOM      8  C   UNL     1       3.776   3.659  17.052  0.00  0.00    +0.000 C 
BRANCH   8   9
ATOM      9  C   UNL     1       2.743   3.061  17.965  0.00  0.00    +0.000 A 
ATOM     10  N   UNL     1       3.062   2.420  19.139  0.00  0.00    +0.000 NA
ATOM     11  C   UNL     1       1.891   2.226  19.700  0.00  0.00    +0.000 A 
ATOM     12  N   UNL     1       0.914   2.690  18.878  0.00  0.00    +0.000 N 
ATOM     13  N   UNL     1       1.426   3.193  17.749  0.00  0.00    +0.000 NA
ATOM     14  H   UNL     1      -0.090   2.715  19.023  0.00  0.00    +0.000 HD
ENDBRANCH   8   9
ENDBRANCH   1   8
BRANCH   1  15
ATOM     15  C   UNL     1       5.904   4.930  16.889  0.00  0.00    +0.000 C 
BRANCH  15  16
ATOM     16  C   UNL     1       6.811   5.958  17.542  0.00  0.00    +0.000 A 
ATOM     17  C   UNL     1       7.603   5.864  18.671  0.00  0.00    +0.000 A 
ATOM     18  N   UNL     1       8.236   7.069  18.776  0.00  0.00    +0.000 N 
ATOM     19  C   UNL     1       7.784   7.859  17.759  0.00  0.00    +0.000 A 
ATOM     20  N   UNL     1       6.915   7.224  17.005  0.00  0.00    +0.000 NA
ATOM     21  H   UNL     1       8.917   7.332  19.474  0.00  0.00    +0.000 HD
ENDBRANCH  15  16
BRANCH  15  22
ATOM     22  C   UNL     1       5.682   5.337  15.419  0.00  0.00    +0.000 C 
BRANCH  22  23
ATOM     23  C   UNL     1       6.675   4.767  14.436  0.00  0.00    +0.000 C 
ATOM     24  O   UNL     1       7.704   5.348  14.117  0.00  0.00    +0.000 OA
BRANCH  23  25
ATOM     25  O   UNL     1       6.409   3.514  14.004  0.00  0.00    +0.000 OA
ATOM     26  H   UNL     1       7.220   2.952  13.959  0.00  0.00    +0.000 HD
ENDBRANCH  23  25
ENDBRANCH  22  23
ENDBRANCH  15  22
ENDBRANCH   1  15
TORSDOF 12
ENDMDL
MODEL 6
REMARK VINA RESULT:      -6.4      2.196      5.368
REMARK  Name = 
REMARK  13 active torsions:
REMARK  status: ('A' for Active; 'I' for Inactive)
REMARK    1  A    between atoms: C_1  and  C_2
REMARK    2  A    between atoms: C_2  and  C_3
REMARK    3  A    between atoms: C_3  and  C_4
REMARK    4  A    between atoms: C_4  and  C_5
REMARK    5  A    between atoms: C_5  and  C_6
REMARK    6  A    between atoms: C_6  and  N_7
REMARK    7  A    between atoms: N_7  and  C_8
REMARK    8  A    between atoms: N_7  and  C_14
REMARK    9  A    between atoms: C_8  and  C_9
REMARK   10  A    between atoms: C_14  and  C_15
REMARK   11  A    between atoms: C_14  and  C_19
REMARK   12  A    between atoms: C_15  and  C_16
REMARK   13  A    between atoms: C_16  and  O_18
REMARK                            x       y       z     vdW  Elec       q    Type
REMARK                         _______ _______ _______ _____ _____    ______ ____
ROOT
ATOM      1  N   UNL     1       4.704   4.884  18.195  0.00  0.00    +0.000 NA
ENDROOT
BRANCH   1   2
ATOM      2  C   UNL     1       3.433   4.814  17.417  0.00  0.00    +0.000 C 
BRANCH   2   3
ATOM      3  C   UNL     1       2.359   5.809  17.873  0.00  0.00    +0.000 C 
BRANCH   3   4
ATOM      4  C   UNL     1       2.947   6.974  18.678  0.00  0.00    +0.000 C 
BRANCH   4   5
ATOM      5  C   UNL     1       2.912   8.249  17.836  0.00  0.00    +0.000 C 
BRANCH   5   7
ATOM      6  C   UNL     1       1.178   9.652  18.972  0.00  0.00    +0.000 C 
ATOM      7  C   UNL     1       1.511   8.842  17.730  0.00  0.00    +0.000 C 
ENDBRANCH   5   7
ENDBRANCH   4   5
ENDBRANCH   3   4
ENDBRANCH   2   3
ENDBRANCH   1   2
BRANCH   1   8
ATOM      8  C   UNL     1       4.854   3.667  19.079  0.00  0.00    +0.000 C 
BRANCH   8   9
ATOM      9  C   UNL     1       3.611   2.835  19.219  0.00  0.00    +0.000 A 
ATOM     10  N   UNL     1       2.642   3.087  20.162  0.00  0.00    +0.000 NA
ATOM     11  C   UNL     1       1.676   2.266  19.824  0.00  0.00    +0.000 A 
ATOM     12  N   UNL     1       2.067   1.524  18.753  0.00  0.00    +0.000 N 
ATOM     13  N   UNL     1       3.310   1.839  18.372  0.00  0.00    +0.000 NA
ATOM     14  H   UNL     1       1.551   0.822  18.234  0.00  0.00    +0.000 HD
ENDBRANCH   8   9
ENDBRANCH   1   8
BRANCH   1  15
ATOM     15  C   UNL     1       5.900   5.014  17.274  0.00  0.00    +0.000 C 
BRANCH  15  16
ATOM     16  C   UNL     1       6.842   6.110  17.741  0.00  0.00    +0.000 A 
ATOM     17  C   UNL     1       7.732   6.134  18.798  0.00  0.00    +0.000 A 
ATOM     18  N   UNL     1       8.349   7.350  18.730  0.00  0.00    +0.000 N 
ATOM     19  C   UNL     1       7.794   8.032  17.687  0.00  0.00    +0.000 A 
ATOM     20  N   UNL     1       6.874   7.319  17.078  0.00  0.00    +0.000 NA
ATOM     21  H   UNL     1       9.085   7.686  19.336  0.00  0.00    +0.000 HD
ENDBRANCH  15  16
BRANCH  15  22
ATOM     22  C   UNL     1       5.534   5.279  15.800  0.00  0.00    +0.000 C 
BRANCH  22  23
ATOM     23  C   UNL     1       6.490   4.702  14.785  0.00  0.00    +0.000 C 
ATOM     24  O   UNL     1       6.213   3.738  14.083  0.00  0.00    +0.000 OA
BRANCH  23  25
ATOM     25  O   UNL     1       7.644   5.387  14.619  0.00  0.00    +0.000 OA
ATOM     26  H   UNL     1       8.081   5.600  15.478  0.00  0.00    +0.000 HD
ENDBRANCH  23  25
ENDBRANCH  22  23
ENDBRANCH  15  22
ENDBRANCH   1  15
TORSDOF 12
ENDMDL
MODEL 7
REMARK VINA RESULT:      -6.4      0.929      1.048
REMARK  Name = 
REMARK  13 active torsions:
REMARK  status: ('A' for Active; 'I' for Inactive)
REMARK    1  A    between atoms: C_1  and  C_2
REMARK    2  A    between atoms: C_2  and  C_3
REMARK    3  A    between atoms: C_3  and  C_4
REMARK    4  A    between atoms: C_4  and  C_5
REMARK    5  A    between atoms: C_5  and  C_6
REMARK    6  A    between atoms: C_6  and  N_7
REMARK    7  A    between atoms: N_7  and  C_8
REMARK    8  A    between atoms: N_7  and  C_14
REMARK    9  A    between atoms: C_8  and  C_9
REMARK   10  A    between atoms: C_14  and  C_15
REMARK   11  A    between atoms: C_14  and  C_19
REMARK   12  A    between atoms: C_15  and  C_16
REMARK   13  A    between atoms: C_16  and  O_18
REMARK                            x       y       z     vdW  Elec       q    Type
REMARK                         _______ _______ _______ _____ _____    ______ ____
ROOT
ATOM      1  N   UNL     1       4.300   5.677  17.456  0.00  0.00    +0.000 NA
ENDROOT
BRANCH   1   2
ATOM      2  C   UNL     1       3.942   6.699  18.482  0.00  0.00    +0.000 C 
BRANCH   2   3
ATOM      3  C   UNL     1       2.470   6.673  18.911  0.00  0.00    +0.000 C 
BRANCH   3   4
ATOM      4  C   UNL     1       1.926   5.246  19.044  0.00  0.00    +0.000 C 
BRANCH   4   5
ATOM      5  C   UNL     1       1.640   4.942  20.515  0.00  0.00    +0.000 C 
BRANCH   5   7
ATOM      6  C   UNL     1       0.665   2.905  19.434  0.00  0.00    +0.000 C 
ATOM      7  C   UNL     1       1.173   3.506  20.735  0.00  0.00    +0.000 C 
ENDBRANCH   5   7
ENDBRANCH   4   5
ENDBRANCH   3   4
ENDBRANCH   2   3
ENDBRANCH   1   2
BRANCH   1   8
ATOM      8  C   UNL     1       4.772   6.343  16.183  0.00  0.00    +0.000 C 
BRANCH   8   9
ATOM      9  C   UNL     1       5.800   5.566  15.411  0.00  0.00    +0.000 A 
ATOM     10  N   UNL     1       5.474   4.578  14.512  0.00  0.00    +0.000 NA
ATOM     11  C   UNL     1       6.623   4.300  13.943  0.00  0.00    +0.000 A 
ATOM     12  N   UNL     1       7.601   5.058  14.506  0.00  0.00    +0.000 N 
ATOM     13  N   UNL     1       7.112   5.845  15.470  0.00  0.00    +0.000 NA
ATOM     14  H   UNL     1       8.589   5.105  14.280  0.00  0.00    +0.000 HD
ENDBRANCH   8   9
ENDBRANCH   1   8
BRANCH   1  15
ATOM     15  C   UNL     1       5.361   4.730  17.977  0.00  0.00    +0.000 C 
BRANCH  15  16
ATOM     16  C   UNL     1       4.750   3.421  18.449  0.00  0.00    +0.000 A 
ATOM     17  C   UNL     1       3.996   2.487  17.765  0.00  0.00    +0.000 A 
ATOM     18  N   UNL     1       3.748   1.489  18.663  0.00  0.00    +0.000 N 
ATOM     19  C   UNL     1       4.305   1.859  19.852  0.00  0.00    +0.000 A 
ATOM     20  N   UNL     1       4.906   3.024  19.761  0.00  0.00    +0.000 NA
ATOM     21  H   UNL     1       3.247   0.629  18.483  0.00  0.00    +0.000 HD
ENDBRANCH  15  16
BRANCH  15  22
ATOM     22  C   UNL     1       6.218   5.310  19.118  0.00  0.00    +0.000 C 
BRANCH  22  23
ATOM     23  C   UNL     1       7.677   5.511  18.791  0.00  0.00    +0.000 C 
ATOM     24  O   UNL     1       8.324   6.469  19.194  0.00  0.00    +0.000 OA
BRANCH  23  25
ATOM     25  O   UNL     1       8.262   4.502  18.106  0.00  0.00    +0.000 OA
ATOM     26  H   UNL     1       9.183   4.323  18.414  0.00  0.00    +0.000 HD
ENDBRANCH  23  25
ENDBRANCH  22  23
ENDBRANCH  15  22
ENDBRANCH   1  15
TORSDOF 12
ENDMDL
MODEL 8
REMARK VINA RESULT:      -6.4      1.241      2.009
REMARK  Name = 
REMARK  13 active torsions:
REMARK  status: ('A' for Active; 'I' for Inactive)
REMARK    1  A    between atoms: C_1  and  C_2
REMARK    2  A    between atoms: C_2  and  C_3
REMARK    3  A    between atoms: C_3  and  C_4
REMARK    4  A    between atoms: C_4  and  C_5
REMARK    5  A    between atoms: C_5  and  C_6
REMARK    6  A    between atoms: C_6  and  N_7
REMARK    7  A    between atoms: N_7  and  C_8
REMARK    8  A    between atoms: N_7  and  C_14
REMARK    9  A    between atoms: C_8  and  C_9
REMARK   10  A    between atoms: C_14  and  C_15
REMARK   11  A    between atoms: C_14  and  C_19
REMARK   12  A    between atoms: C_15  and  C_16
REMARK   13  A    between atoms: C_16  and  O_18
REMARK                            x       y       z     vdW  Elec       q    Type
REMARK                         _______ _______ _______ _____ _____    ______ ____
ROOT
ATOM      1  N   UNL     1       3.882   5.948  17.395  0.00  0.00    +0.000 NA
ENDROOT
BRANCH   1   2
ATOM      2  C   UNL     1       3.268   6.855  18.408  0.00  0.00    +0.000 C 
BRANCH   2   3
ATOM      3  C   UNL     1       2.420   7.985  17.812  0.00  0.00    +0.000 C 
BRANCH   3   4
ATOM      4  C   UNL     1       1.693   8.799  18.888  0.00  0.00    +0.000 C 
BRANCH   4   5
ATOM      5  C   UNL     1       1.748   8.051  20.221  0.00  0.00    +0.000 C 
BRANCH   5   7
ATOM      6  C   UNL     1       1.169   9.187  22.375  0.00  0.00    +0.000 C 
ATOM      7  C   UNL     1       0.618   8.452  21.164  0.00  0.00    +0.000 C 
ENDBRANCH   5   7
ENDBRANCH   4   5
ENDBRANCH   3   4
ENDBRANCH   2   3
ENDBRANCH   1   2
BRANCH   1   8
ATOM      8  C   UNL     1       4.824   6.716  16.496  0.00  0.00    +0.000 C 
BRANCH   8   9
ATOM      9  C   UNL     1       5.826   5.868  15.764  0.00  0.00    +0.000 A 
ATOM     10  N   UNL     1       5.471   4.945  14.809  0.00  0.00    +0.000 NA
ATOM     11  C   UNL     1       6.626   4.575  14.307  0.00  0.00    +0.000 A 
ATOM     12  N   UNL     1       7.629   5.217  14.962  0.00  0.00    +0.000 N 
ATOM     13  N   UNL     1       7.150   6.017  15.920  0.00  0.00    +0.000 NA
ATOM     14  H   UNL     1       8.630   5.175  14.804  0.00  0.00    +0.000 HD
ENDBRANCH   8   9
ENDBRANCH   1   8
BRANCH   1  15
ATOM     15  C   UNL     1       4.612   4.801  18.062  0.00  0.00    +0.000 C 
BRANCH  15  16
ATOM     16  C   UNL     1       3.666   3.658  18.387  0.00  0.00    +0.000 A 
ATOM     17  C   UNL     1       3.366   3.060  19.596  0.00  0.00    +0.000 A 
ATOM     18  N   UNL     1       2.424   2.113  19.313  0.00  0.00    +0.000 N 
ATOM     19  C   UNL     1       2.218   2.131  17.964  0.00  0.00    +0.000 A 
ATOM     20  N   UNL     1       2.960   3.041  17.375  0.00  0.00    +0.000 NA
ATOM     21  H   UNL     1       1.958   1.511  19.977  0.00  0.00    +0.000 HD
ENDBRANCH  15  16
BRANCH  15  22
ATOM     22  C   UNL     1       5.363   5.194  19.349  0.00  0.00    +0.000 C 
BRANCH  22  23
ATOM     23  C   UNL     1       6.863   5.049  19.290  0.00  0.00    +0.000 C 
ATOM     24  O   UNL     1       7.608   5.465  20.169  0.00  0.00    +0.000 OA
BRANCH  23  25
ATOM     25  O   UNL     1       7.335   4.328  18.248  0.00  0.00    +0.000 OA
ATOM     26  H   UNL     1       7.315   4.835  17.401  0.00  0.00    +0.000 HD
ENDBRANCH  23  25
ENDBRANCH  22  23
ENDBRANCH  15  22
ENDBRANCH   1  15
TORSDOF 12
ENDMDL
MODEL 9
REMARK VINA RESULT:      -6.3      0.947      1.211
REMARK  Name = 
REMARK  13 active torsions:
REMARK  status: ('A' for Active; 'I' for Inactive)
REMARK    1  A    between atoms: C_1  and  C_2
REMARK    2  A    between atoms: C_2  and  C_3
REMARK    3  A    between atoms: C_3  and  C_4
REMARK    4  A    between atoms: C_4  and  C_5
REMARK    5  A    between atoms: C_5  and  C_6
REMARK    6  A    between atoms: C_6  and  N_7
REMARK    7  A    between atoms: N_7  and  C_8
REMARK    8  A    between atoms: N_7  and  C_14
REMARK    9  A    between atoms: C_8  and  C_9
REMARK   10  A    between atoms: C_14  and  C_15
REMARK   11  A    between atoms: C_14  and  C_19
REMARK   12  A    between atoms: C_15  and  C_16
REMARK   13  A    between atoms: C_16  and  O_18
REMARK                            x       y       z     vdW  Elec       q    Type
REMARK                         _______ _______ _______ _____ _____    ______ ____
ROOT
ATOM      1  N   UNL     1       4.307   5.862  17.557  0.00  0.00    +0.000 NA
ENDROOT
BRANCH   1   2
ATOM      2  C   UNL     1       3.935   6.886  18.576  0.00  0.00    +0.000 C 
BRANCH   2   3
ATOM      3  C   UNL     1       2.488   6.785  19.072  0.00  0.00    +0.000 C 
BRANCH   3   4
ATOM      4  C   UNL     1       2.026   5.332  19.233  0.00  0.00    +0.000 C 
BRANCH   4   5
ATOM      5  C   UNL     1       1.925   4.988  20.719  0.00  0.00    +0.000 C 
BRANCH   5   7
ATOM      6  C   UNL     1       0.669   3.086  19.683  0.00  0.00    +0.000 C 
ATOM      7  C   UNL     1       1.299   3.618  20.960  0.00  0.00    +0.000 C 
ENDBRANCH   5   7
ENDBRANCH   4   5
ENDBRANCH   3   4
ENDBRANCH   2   3
ENDBRANCH   1   2
BRANCH   1   8
ATOM      8  C   UNL     1       4.844   6.525  16.309  0.00  0.00    +0.000 C 
BRANCH   8   9
ATOM      9  C   UNL     1       5.856   5.712  15.550  0.00  0.00    +0.000 A 
ATOM     10  N   UNL     1       5.507   4.743  14.640  0.00  0.00    +0.000 NA
ATOM     11  C   UNL     1       6.655   4.423  14.090  0.00  0.00    +0.000 A 
ATOM     12  N   UNL     1       7.652   5.139  14.677  0.00  0.00    +0.000 N 
ATOM     13  N   UNL     1       7.175   5.939  15.636  0.00  0.00    +0.000 NA
ATOM     14  H   UNL     1       8.644   5.148  14.469  0.00  0.00    +0.000 HD
ENDBRANCH   8   9
ENDBRANCH   1   8
BRANCH   1  15
ATOM     15  C   UNL     1       5.324   4.886  18.112  0.00  0.00    +0.000 C 
BRANCH  15  16
ATOM     16  C   UNL     1       4.692   3.536  18.403  0.00  0.00    +0.000 A 
ATOM     17  C   UNL     1       4.692   2.779  19.559  0.00  0.00    +0.000 A 
ATOM     18  N   UNL     1       3.940   1.675  19.273  0.00  0.00    +0.000 N 
ATOM     19  C   UNL     1       3.555   1.768  17.968  0.00  0.00    +0.000 A 
ATOM     20  N   UNL     1       4.002   2.871  17.411  0.00  0.00    +0.000 NA
ATOM     21  H   UNL     1       3.706   0.926  19.911  0.00  0.00    +0.000 HD
ENDBRANCH  15  16
BRANCH  15  22
ATOM     22  C   UNL     1       6.039   5.376  19.385  0.00  0.00    +0.000 C 
BRANCH  22  23
ATOM     23  C   UNL     1       7.498   5.719  19.214  0.00  0.00    +0.000 C 
ATOM     24  O   UNL     1       8.400   5.077  19.737  0.00  0.00    +0.000 OA
BRANCH  23  25
ATOM     25  O   UNL     1       7.759   6.726  18.349  0.00  0.00    +0.000 OA
ATOM     26  H   UNL     1       8.019   6.396  17.456  0.00  0.00    +0.000 HD
ENDBRANCH  23  25
ENDBRANCH  22  23
ENDBRANCH  15  22
ENDBRANCH   1  15
TORSDOF 12
ENDMDL
