MODEL 1
REMARK VINA RESULT:      -7.9      0.000      0.000
REMARK  Name = 
REMARK  10 active torsions:
REMARK  status: ('A' for Active; 'I' for Inactive)
REMARK    1  A    between atoms: C_1  and  O_2
REMARK    2  A    between atoms: O_2  and  C_3
REMARK    3  A    between atoms: C_3  and  C_5
REMARK    4  A    between atoms: C_8  and  C_9
REMARK    5  A    between atoms: C_13  and  C_14
REMARK    6  A    between atoms: C_16  and  C_18
REMARK    7  A    between atoms: C_18  and  C_19
REMARK    8  A    between atoms: C_18  and  O_20
REMARK    9  A    between atoms: C_18  and  C_21
REMARK   10  A    between atoms: C_26  and  C_27
REMARK                            x       y       z     vdW  Elec       q    Type
REMARK                         _______ _______ _______ _____ _____    ______ ____
ROOT
ATOM      1  C   UNL     1       6.732   6.118  16.675  0.00  0.00    +0.000 C 
ATOM      2  O   UNL     1       7.133   5.954  15.526  0.00  0.00    +0.000 OA
ATOM      3  N   UNL     1       5.728   5.342  17.273  0.00  0.00    +0.000 N 
ATOM      4  C   UNL     1       5.003   5.771  18.471  0.00  0.00    +0.000 C 
ATOM      5  C   UNL     1       3.468   5.642  18.354  0.00  0.00    +0.000 C 
ATOM      6  C   UNL     1       2.908   6.446  19.531  0.00  0.00    +0.000 C 
ATOM      7  N   UNL     1       3.143   4.217  18.032  0.00  0.00    +0.000 N 
ATOM      8  C   UNL     1       2.372   3.225  18.653  0.00  0.00    +0.000 C 
ATOM      9  O   UNL     1       2.375   2.090  18.167  0.00  0.00    +0.000 OA
ATOM     10  C   UNL     1       3.824   3.803  16.767  0.00  0.00    +0.000 C 
ATOM     11  C   UNL     1       5.368   3.971  16.828  0.00  0.00    +0.000 C 
ATOM     12  C   UNL     1       5.999   3.463  15.530  0.00  0.00    +0.000 C 
ENDROOT
BRANCH   1  16
ATOM     13  C   UNL     1       8.672   9.301  18.838  0.00  0.00    +0.000 A 
ATOM     14  C   UNL     1       8.811   7.972  19.260  0.00  0.00    +0.000 A 
ATOM     15  C   UNL     1       8.169   6.935  18.560  0.00  0.00    +0.000 A 
ATOM     16  C   UNL     1       7.364   7.229  17.456  0.00  0.00    +0.000 A 
ATOM     17  C   UNL     1       7.143   8.570  17.115  0.00  0.00    +0.000 A 
ATOM     18  C   UNL     1       7.839   9.592  17.756  0.00  0.00    +0.000 A 
BRANCH  13  19
ATOM     19  C   UNL     1       9.400  10.379  19.566  0.00  0.00    +0.000 C 
ATOM     20  O   UNL     1       9.321  10.574  20.763  0.00  0.00    +0.000 OA
BRANCH  19  22
ATOM     21  C   UNL     1      11.442  11.480  19.167  0.00  0.00    +0.000 C 
ATOM     22  O   UNL     1      10.152  11.086  18.683  0.00  0.00    +0.000 OA
ENDBRANCH  19  22
ENDBRANCH  13  19
ENDBRANCH   1  16
BRANCH   8  23
ATOM     23  C   UNL     1       1.534   3.489  19.923  0.00  0.00    +0.000 C 
ATOM     24  C   UNL     1       1.021   4.933  19.907  0.00  0.00    +0.000 C 
BRANCH  23  25
ATOM     25  C   UNL     1       2.335   3.257  21.247  0.00  0.00    +0.000 C 
ATOM     26  F   UNL     1       2.538   4.331  22.028  0.00  0.00    +0.000 F 
ATOM     27  F   UNL     1       1.741   2.320  22.035  0.00  0.00    +0.000 F 
ATOM     28  F   UNL     1       3.571   2.760  20.955  0.00  0.00    +0.000 F 
ENDBRANCH  23  25
BRANCH  23  29
ATOM     29  O   UNL     1       0.416   2.575  19.896  0.00  0.00    +0.000 OA
ATOM     30  H   UNL     1      -0.057   2.728  19.052  0.00  0.00    +0.000 HD
ENDBRANCH  23  29
ENDBRANCH   8  23
TORSDOF 6
ENDMDL
MODEL 2
REMARK VINA RESULT:      -7.6      0.452      1.102
REMARK  Name = 
REMARK  10 active torsions:
REMARK  status: ('A' for Active; 'I' for Inactive)
REMARK    1  A    between atoms: C_1  and  O_2
REMARK    2  A    between atoms: O_2  and  C_3
REMARK    3  A    between atoms: C_3  and  C_5
REMARK    4  A    between atoms: C_8  and  C_9
REMARK    5  A    between atoms: C_13  and  C_14
REMARK    6  A    between atoms: C_16  and  C_18
REMARK    7  A    between atoms: C_18  and  C_19
REMARK    8  A    between atoms: C_18  and  O_20
REMARK    9  A    between atoms: C_18  and  C_21
REMARK   10  A    between atoms: C_26  and  C_27
REMARK                            x       y       z     vdW  Elec       q    Type
REMARK                         _______ _______ _______ _____ _____    ______ ____
ROOT
ATOM      1  C   UNL     1       6.709   6.102  16.687  0.00  0.00    +0.000 C 
ATOM      2  O   UNL     1       7.104   5.929  15.537  0.00  0.00    +0.000 OA
ATOM      3  N   UNL     1       5.696   5.342  17.290  0.00  0.00    +0.000 N 
ATOM      4  C   UNL     1       4.981   5.786  18.490  0.00  0.00    +0.000 C 
ATOM      5  C   UNL     1       3.444   5.678  18.378  0.00  0.00    +0.000 C 
ATOM      6  C   UNL     1       2.899   6.494  19.554  0.00  0.00    +0.000 C 
ATOM      7  N   UNL     1       3.098   4.257  18.061  0.00  0.00    +0.000 N 
ATOM      8  C   UNL     1       2.315   3.278  18.689  0.00  0.00    +0.000 C 
ATOM      9  O   UNL     1       2.300   2.141  18.206  0.00  0.00    +0.000 OA
ATOM     10  C   UNL     1       3.768   3.829  16.796  0.00  0.00    +0.000 C 
ATOM     11  C   UNL     1       5.316   3.975  16.852  0.00  0.00    +0.000 C 
ATOM     12  C   UNL     1       5.935   3.455  15.553  0.00  0.00    +0.000 C 
ENDROOT
BRANCH   1  16
ATOM     13  C   UNL     1       8.702   9.263  18.835  0.00  0.00    +0.000 A 
ATOM     14  C   UNL     1       8.806   7.936  19.272  0.00  0.00    +0.000 A 
ATOM     15  C   UNL     1       8.147   6.907  18.576  0.00  0.00    +0.000 A 
ATOM     16  C   UNL     1       7.359   7.207  17.462  0.00  0.00    +0.000 A 
ATOM     17  C   UNL     1       7.172   8.549  17.105  0.00  0.00    +0.000 A 
ATOM     18  C   UNL     1       7.885   9.562  17.742  0.00  0.00    +0.000 A 
BRANCH  13  19
ATOM     19  C   UNL     1       9.447  10.332  19.558  0.00  0.00    +0.000 C 
ATOM     20  O   UNL     1      10.309  11.028  19.058  0.00  0.00    +0.000 OA
BRANCH  19  22
ATOM     21  C   UNL     1       9.011  11.712  21.416  0.00  0.00    +0.000 C 
ATOM     22  O   UNL     1       9.001  10.400  20.840  0.00  0.00    +0.000 OA
ENDBRANCH  19  22
ENDBRANCH  13  19
ENDBRANCH   1  16
BRANCH   8  23
ATOM     23  C   UNL     1       1.485   3.557  19.960  0.00  0.00    +0.000 C 
ATOM     24  C   UNL     1       1.038   5.023  19.967  0.00  0.00    +0.000 C 
BRANCH  23  25
ATOM     25  C   UNL     1       2.270   3.267  21.282  0.00  0.00    +0.000 C 
ATOM     26  F   UNL     1       1.684   2.440  22.164  0.00  0.00    +0.000 F 
ATOM     27  F   UNL     1       3.501   2.745  21.030  0.00  0.00    +0.000 F 
ATOM     28  F   UNL     1       2.496   4.436  21.948  0.00  0.00    +0.000 F 
ENDBRANCH  23  25
BRANCH  23  29
ATOM     29  O   UNL     1       0.327   2.696  19.914  0.00  0.00    +0.000 OA
ATOM     30  H   UNL     1      -0.318   3.117  19.309  0.00  0.00    +0.000 HD
ENDBRANCH  23  29
ENDBRANCH   8  23
TORSDOF 6
ENDMDL
MODEL 3
REMARK VINA RESULT:      -7.3      0.225      1.170
REMARK  Name = 
REMARK  10 active torsions:
REMARK  status: ('A' for Active; 'I' for Inactive)
REMARK    1  A    between atoms: C_1  and  O_2
REMARK    2  A    between atoms: O_2  and  C_3
REMARK    3  A    between atoms: C_3  and  C_5
REMARK    4  A    between atoms: C_8  and  C_9
REMARK    5  A    between atoms: C_13  and  C_14
REMARK    6  A    between atoms: C_16  and  C_18
REMARK    7  A    between atoms: C_18  and  C_19
REMARK    8  A    between atoms: C_18  and  O_20
REMARK    9  A    between atoms: C_18  and  C_21
REMARK   10  A    between atoms: C_26  and  C_27
REMARK                            x       y       z     vdW  Elec       q    Type
REMARK                         _______ _______ _______ _____ _____    ______ ____
ROOT
ATOM      1  C   UNL     1       6.720   6.004  16.640  0.00  0.00    +0.000 C 
ATOM      2  O   UNL     1       7.081   5.817  15.482  0.00  0.00    +0.000 OA
ATOM      3  N   UNL     1       5.693   5.283  17.267  0.00  0.00    +0.000 N 
ATOM      4  C   UNL     1       5.024   5.753  18.482  0.00  0.00    +0.000 C 
ATOM      5  C   UNL     1       3.481   5.703  18.406  0.00  0.00    +0.000 C 
ATOM      6  C   UNL     1       2.995   6.538  19.594  0.00  0.00    +0.000 C 
ATOM      7  N   UNL     1       3.074   4.296  18.098  0.00  0.00    +0.000 N 
ATOM      8  C   UNL     1       2.269   3.347  18.743  0.00  0.00    +0.000 C 
ATOM      9  O   UNL     1       2.200   2.212  18.261  0.00  0.00    +0.000 OA
ATOM     10  C   UNL     1       3.699   3.844  16.817  0.00  0.00    +0.000 C 
ATOM     11  C   UNL     1       5.251   3.932  16.837  0.00  0.00    +0.000 C 
ATOM     12  C   UNL     1       5.820   3.389  15.524  0.00  0.00    +0.000 C 
ENDROOT
BRANCH   1  16
ATOM     13  C   UNL     1       8.630   9.137  18.901  0.00  0.00    +0.000 A 
ATOM     14  C   UNL     1       7.975   9.432  17.697  0.00  0.00    +0.000 A 
ATOM     15  C   UNL     1       7.362   8.407  16.955  0.00  0.00    +0.000 A 
ATOM     16  C   UNL     1       7.429   7.084  17.400  0.00  0.00    +0.000 A 
ATOM     17  C   UNL     1       8.182   6.789  18.544  0.00  0.00    +0.000 A 
ATOM     18  C   UNL     1       8.723   7.810  19.323  0.00  0.00    +0.000 A 
BRANCH  13  19
ATOM     19  C   UNL     1       9.233  10.245  19.696  0.00  0.00    +0.000 C 
ATOM     20  O   UNL     1       9.015  10.441  20.876  0.00  0.00    +0.000 OA
BRANCH  19  22
ATOM     21  C   UNL     1      11.163  11.587  19.565  0.00  0.00    +0.000 C 
ATOM     22  O   UNL     1      10.053  10.975  18.896  0.00  0.00    +0.000 OA
ENDBRANCH  19  22
ENDBRANCH  13  19
ENDBRANCH   1  16
BRANCH   8  23
ATOM     23  C   UNL     1       1.480   3.657  20.034  0.00  0.00    +0.000 C 
ATOM     24  C   UNL     1       1.099   5.141  20.056  0.00  0.00    +0.000 C 
BRANCH  23  25
ATOM     25  C   UNL     1       2.279   3.325  21.337  0.00  0.00    +0.000 C 
ATOM     26  F   UNL     1       3.439   2.664  21.184  0.00  0.00    +0.000 F 
ATOM     27  F   UNL     1       2.573   4.449  22.045  0.00  0.00    +0.000 F 
ATOM     28  F   UNL     1       1.512   2.560  22.164  0.00  0.00    +0.000 F 
ENDBRANCH  23  25
BRANCH  23  29
ATOM     29  O   UNL     1       0.284   2.848  20.009  0.00  0.00    +0.000 OA
ATOM     30  H   UNL     1       0.355   2.210  20.748  0.00  0.00    +0.000 HD
ENDBRANCH  23  29
ENDBRANCH   8  23
TORSDOF 6
ENDMDL
MODEL 4
REMARK VINA RESULT:      -7.2      4.053      6.274
REMARK  Name = 
REMARK  10 active torsions:
REMARK  status: ('A' for Active; 'I' for Inactive)
REMARK    1  A    between atoms: C_1  and  O_2
REMARK    2  A    between atoms: O_2  and  C_3
REMARK    3  A    between atoms: C_3  and  C_5
REMARK    4  A    between atoms: C_8  and  C_9
REMARK    5  A    between atoms: C_13  and  C_14
REMARK    6  A    between atoms: C_16  and  C_18
REMARK    7  A    between atoms: C_18  and  C_19
REMARK    8  A    between atoms: C_18  and  O_20
REMARK    9  A    between atoms: C_18  and  C_21
REMARK   10  A    between atoms: C_26  and  C_27
REMARK                            x       y       z     vdW  Elec       q    Type
REMARK                         _______ _______ _______ _____ _____    ______ ____
ROOT
ATOM      1  C   UNL     1       2.301   8.387  18.168  0.00  0.00    +0.000 C 
ATOM      2  O   UNL     1       2.490   9.126  17.207  0.00  0.00    +0.000 OA
ATOM      3  N   UNL     1       2.811   7.084  18.267  0.00  0.00    +0.000 N 
ATOM      4  C   UNL     1       2.281   6.095  19.209  0.00  0.00    +0.000 C 
ATOM      5  C   UNL     1       1.978   4.721  18.571  0.00  0.00    +0.000 C 
ATOM      6  C   UNL     1       1.132   3.976  19.608  0.00  0.00    +0.000 C 
ATOM      7  N   UNL     1       3.235   4.214  17.936  0.00  0.00    +0.000 N 
ATOM      8  C   UNL     1       4.017   3.063  18.100  0.00  0.00    +0.000 C 
ATOM      9  O   UNL     1       5.075   2.978  17.467  0.00  0.00    +0.000 OA
ATOM     10  C   UNL     1       3.733   5.190  16.920  0.00  0.00    +0.000 C 
ATOM     11  C   UNL     1       3.998   6.602  17.516  0.00  0.00    +0.000 C 
ATOM     12  C   UNL     1       4.570   7.524  16.437  0.00  0.00    +0.000 C 
ENDROOT
BRANCH   1  16
ATOM     13  C   UNL     1      -0.011  10.051  21.403  0.00  0.00    +0.000 A 
ATOM     14  C   UNL     1       0.873   8.990  21.638  0.00  0.00    +0.000 A 
ATOM     15  C   UNL     1       1.619   8.441  20.580  0.00  0.00    +0.000 A 
ATOM     16  C   UNL     1       1.459   8.932  19.281  0.00  0.00    +0.000 A 
ATOM     17  C   UNL     1       0.490   9.915  19.042  0.00  0.00    +0.000 A 
ATOM     18  C   UNL     1      -0.192  10.515  20.098  0.00  0.00    +0.000 A 
BRANCH  13  19
ATOM     19  C   UNL     1      -0.756  10.651  22.546  0.00  0.00    +0.000 C 
ATOM     20  O   UNL     1      -0.614  10.321  23.708  0.00  0.00    +0.000 OA
BRANCH  19  22
ATOM     21  C   UNL     1      -2.409  12.242  23.077  0.00  0.00    +0.000 C 
ATOM     22  O   UNL     1      -1.596  11.610  22.079  0.00  0.00    +0.000 OA
ENDBRANCH  19  22
ENDBRANCH  13  19
ENDBRANCH   1  16
BRANCH   8  23
ATOM     23  C   UNL     1       3.621   1.908  19.045  0.00  0.00    +0.000 C 
ATOM     24  C   UNL     1       2.133   1.586  18.863  0.00  0.00    +0.000 C 
BRANCH  23  25
ATOM     25  C   UNL     1       3.882   2.231  20.553  0.00  0.00    +0.000 C 
ATOM     26  F   UNL     1       2.857   2.035  21.400  0.00  0.00    +0.000 F 
ATOM     27  F   UNL     1       4.926   1.512  21.046  0.00  0.00    +0.000 F 
ATOM     28  F   UNL     1       4.242   3.539  20.687  0.00  0.00    +0.000 F 
ENDBRANCH  23  25
BRANCH  23  29
ATOM     29  O   UNL     1       4.415   0.760  18.675  0.00  0.00    +0.000 OA
ATOM     30  H   UNL     1       5.298   0.882  19.080  0.00  0.00    +0.000 HD
ENDBRANCH  23  29
ENDBRANCH   8  23
TORSDOF 6
ENDMDL
MODEL 5
REMARK VINA RESULT:      -7.1      1.349      1.594
REMARK  Name = 
REMARK  10 active torsions:
REMARK  status: ('A' for Active; 'I' for Inactive)
REMARK    1  A    between atoms: C_1  and  O_2
REMARK    2  A    between atoms: O_2  and  C_3
REMARK    3  A    between atoms: C_3  and  C_5
REMARK    4  A    between atoms: C_8  and  C_9
REMARK    5  A    between atoms: C_13  and  C_14
REMARK    6  A    between atoms: C_16  and  C_18
REMARK    7  A    between atoms: C_18  and  C_19
REMARK    8  A    between atoms: C_18  and  O_20
REMARK    9  A    between atoms: C_18  and  C_21
REMARK   10  A    between atoms: C_26  and  C_27
REMARK                            x       y       z     vdW  Elec       q    Type
REMARK                         _______ _______ _______ _____ _____    ______ ____
ROOT
ATOM      1  C   UNL     1       7.116   6.338  16.640  0.00  0.00    +0.000 C 
ATOM      2  O   UNL     1       7.503   6.296  15.476  0.00  0.00    +0.000 OA
ATOM      3  N   UNL     1       6.211   5.423  17.198  0.00  0.00    +0.000 N 
ATOM      4  C   UNL     1       5.474   5.691  18.435  0.00  0.00    +0.000 C 
ATOM      5  C   UNL     1       3.957   5.412  18.335  0.00  0.00    +0.000 C 
ATOM      6  C   UNL     1       3.346   6.071  19.575  0.00  0.00    +0.000 C 
ATOM      7  N   UNL     1       3.773   3.987  17.918  0.00  0.00    +0.000 N 
ATOM      8  C   UNL     1       3.121   2.880  18.480  0.00  0.00    +0.000 C 
ATOM      9  O   UNL     1       3.229   1.787  17.914  0.00  0.00    +0.000 OA
ATOM     10  C   UNL     1       4.461   3.734  16.616  0.00  0.00    +0.000 C 
ATOM     11  C   UNL     1       5.982   4.056  16.663  0.00  0.00    +0.000 C 
ATOM     12  C   UNL     1       6.630   3.707  15.321  0.00  0.00    +0.000 C 
ENDROOT
BRANCH   1  16
ATOM     13  C   UNL     1       8.779   9.534  19.005  0.00  0.00    +0.000 A 
ATOM     14  C   UNL     1       8.917   8.202  19.418  0.00  0.00    +0.000 A 
ATOM     15  C   UNL     1       8.365   7.161  18.652  0.00  0.00    +0.000 A 
ATOM     16  C   UNL     1       7.648   7.452  17.487  0.00  0.00    +0.000 A 
ATOM     17  C   UNL     1       7.422   8.792  17.147  0.00  0.00    +0.000 A 
ATOM     18  C   UNL     1       8.034   9.821  17.860  0.00  0.00    +0.000 A 
BRANCH  13  19
ATOM     19  C   UNL     1       9.413  10.618  19.807  0.00  0.00    +0.000 C 
ATOM     20  O   UNL     1       9.207  10.808  20.990  0.00  0.00    +0.000 OA
BRANCH  19  22
ATOM     21  C   UNL     1      11.455  11.779  19.639  0.00  0.00    +0.000 C 
ATOM     22  O   UNL     1      10.246  11.337  19.010  0.00  0.00    +0.000 OA
ENDBRANCH  19  22
ENDBRANCH  13  19
ENDBRANCH   1  16
BRANCH   8  23
ATOM     23  C   UNL     1       2.292   2.967  19.779  0.00  0.00    +0.000 C 
ATOM     24  C   UNL     1       2.049   1.556  20.326  0.00  0.00    +0.000 C 
BRANCH  23  25
ATOM     25  C   UNL     1       0.910   3.671  19.579  0.00  0.00    +0.000 C 
ATOM     26  F   UNL     1       0.547   4.567  20.513  0.00  0.00    +0.000 F 
ATOM     27  F   UNL     1       0.844   4.319  18.385  0.00  0.00    +0.000 F 
ATOM     28  F   UNL     1      -0.082   2.736  19.544  0.00  0.00    +0.000 F 
ENDBRANCH  23  25
BRANCH  23  29
ATOM     29  O   UNL     1       3.065   3.730  20.730  0.00  0.00    +0.000 OA
ATOM     30  H   UNL     1       3.250   4.598  20.317  0.00  0.00    +0.000 HD
ENDBRANCH  23  29
ENDBRANCH   8  23
TORSDOF 6
ENDMDL
MODEL 6
REMARK VINA RESULT:      -7.0      4.372      6.776
REMARK  Name = 
REMARK  10 active torsions:
REMARK  status: ('A' for Active; 'I' for Inactive)
REMARK    1  A    between atoms: C_1  and  O_2
REMARK    2  A    between atoms: O_2  and  C_3
REMARK    3  A    between atoms: C_3  and  C_5
REMARK    4  A    between atoms: C_8  and  C_9
REMARK    5  A    between atoms: C_13  and  C_14
REMARK    6  A    between atoms: C_16  and  C_18
REMARK    7  A    between atoms: C_18  and  C_19
REMARK    8  A    between atoms: C_18  and  O_20
REMARK    9  A    between atoms: C_18  and  C_21
REMARK   10  A    between atoms: C_26  and  C_27
REMARK                            x       y       z     vdW  Elec       q    Type
REMARK                         _______ _______ _______ _____ _____    ______ ____
ROOT
ATOM      1  C   UNL     1       1.727   6.504  20.336  0.00  0.00    +0.000 C 
ATOM      2  O   UNL     1       1.317   5.835  21.280  0.00  0.00    +0.000 OA
ATOM      3  N   UNL     1       2.422   5.970  19.240  0.00  0.00    +0.000 N 
ATOM      4  C   UNL     1       3.224   6.795  18.333  0.00  0.00    +0.000 C 
ATOM      5  C   UNL     1       4.640   6.237  18.067  0.00  0.00    +0.000 C 
ATOM      6  C   UNL     1       5.405   7.388  17.406  0.00  0.00    +0.000 C 
ATOM      7  N   UNL     1       4.501   4.849  17.524  0.00  0.00    +0.000 N 
ATOM      8  C   UNL     1       4.906   4.218  16.340  0.00  0.00    +0.000 C 
ATOM      9  O   UNL     1       4.551   3.050  16.149  0.00  0.00    +0.000 OA
ATOM     10  C   UNL     1       3.748   3.989  18.486  0.00  0.00    +0.000 C 
ATOM     11  C   UNL     1       2.336   4.548  18.820  0.00  0.00    +0.000 C 
ATOM     12  C   UNL     1       1.601   3.582  19.752  0.00  0.00    +0.000 C 
ENDROOT
BRANCH   1  16
ATOM     13  C   UNL     1       0.834  10.718  20.478  0.00  0.00    +0.000 A 
ATOM     14  C   UNL     1       1.115  10.095  19.255  0.00  0.00    +0.000 A 
ATOM     15  C   UNL     1       1.417   8.723  19.211  0.00  0.00    +0.000 A 
ATOM     16  C   UNL     1       1.468   7.978  20.393  0.00  0.00    +0.000 A 
ATOM     17  C   UNL     1       1.297   8.637  21.617  0.00  0.00    +0.000 A 
ATOM     18  C   UNL     1       0.920   9.977  21.659  0.00  0.00    +0.000 A 
BRANCH  13  19
ATOM     19  C   UNL     1       0.471  12.163  20.497  0.00  0.00    +0.000 C 
ATOM     20  O   UNL     1      -0.506  12.633  19.947  0.00  0.00    +0.000 OA
BRANCH  19  22
ATOM     21  C   UNL     1       2.377  13.544  20.451  0.00  0.00    +0.000 C 
ATOM     22  O   UNL     1       1.392  12.847  21.224  0.00  0.00    +0.000 OA
ENDBRANCH  19  22
ENDBRANCH  13  19
ENDBRANCH   1  16
BRANCH   8  23
ATOM     23  C   UNL     1       5.760   4.922  15.265  0.00  0.00    +0.000 C 
ATOM     24  C   UNL     1       5.710   4.115  13.962  0.00  0.00    +0.000 C 
BRANCH  23  25
ATOM     25  C   UNL     1       7.256   5.099  15.686  0.00  0.00    +0.000 C 
ATOM     26  F   UNL     1       7.586   6.262  16.274  0.00  0.00    +0.000 F 
ATOM     27  F   UNL     1       7.657   4.117  16.538  0.00  0.00    +0.000 F 
ATOM     28  F   UNL     1       8.059   4.986  14.590  0.00  0.00    +0.000 F 
ENDBRANCH  23  25
BRANCH  23  29
ATOM     29  O   UNL     1       5.185   6.229  15.049  0.00  0.00    +0.000 OA
ATOM     30  H   UNL     1       5.866   6.771  14.602  0.00  0.00    +0.000 HD
ENDBRANCH  23  29
ENDBRANCH   8  23
TORSDOF 6
ENDMDL
MODEL 7
REMARK VINA RESULT:      -6.9      7.452     10.471
REMARK  Name = 
REMARK  10 active torsions:
REMARK  status: ('A' for Active; 'I' for Inactive)
REMARK    1  A    between atoms: C_1  and  O_2
REMARK    2  A    between atoms: O_2  and  C_3
REMARK    3  A    between atoms: C_3  and  C_5
REMARK    4  A    between atoms: C_8  and  C_9
REMARK    5  A    between atoms: C_13  and  C_14
REMARK    6  A    between atoms: C_16  and  C_18
REMARK    7  A    between atoms: C_18  and  C_19
REMARK    8  A    between atoms: C_18  and  O_20
REMARK    9  A    between atoms: C_18  and  C_21
REMARK   10  A    between atoms: C_26  and  C_27
REMARK                            x       y       z     vdW  Elec       q    Type
REMARK                         _______ _______ _______ _____ _____    ______ ____
ROOT
ATOM      1  C   UNL     1      -0.229  10.787  19.174  0.00  0.00    +0.000 C 
ATOM      2  O   UNL     1      -1.412  10.514  18.990  0.00  0.00    +0.000 OA
ATOM      3  N   UNL     1       0.249  12.086  19.399  0.00  0.00    +0.000 N 
ATOM      4  C   UNL     1       1.658  12.451  19.238  0.00  0.00    +0.000 C 
ATOM      5  C   UNL     1       1.883  13.725  18.394  0.00  0.00    +0.000 C 
ATOM      6  C   UNL     1       3.379  13.727  18.062  0.00  0.00    +0.000 C 
ATOM      7  N   UNL     1       1.125  14.847  19.030  0.00  0.00    +0.000 N 
ATOM      8  C   UNL     1       1.483  16.100  19.547  0.00  0.00    +0.000 C 
ATOM      9  O   UNL     1       0.609  16.777  20.100  0.00  0.00    +0.000 OA
ATOM     10  C   UNL     1      -0.327  14.504  19.125  0.00  0.00    +0.000 C 
ATOM     11  C   UNL     1      -0.589  13.196  19.923  0.00  0.00    +0.000 C 
ATOM     12  C   UNL     1      -2.094  12.948  20.038  0.00  0.00    +0.000 C 
ENDROOT
BRANCH   1  16
ATOM     13  C   UNL     1       2.443   7.408  19.041  0.00  0.00    +0.000 A 
ATOM     14  C   UNL     1       1.874   7.813  20.256  0.00  0.00    +0.000 A 
ATOM     15  C   UNL     1       1.011   8.922  20.300  0.00  0.00    +0.000 A 
ATOM     16  C   UNL     1       0.740   9.645  19.135  0.00  0.00    +0.000 A 
ATOM     17  C   UNL     1       1.403   9.298  17.951  0.00  0.00    +0.000 A 
ATOM     18  C   UNL     1       2.195   8.154  17.887  0.00  0.00    +0.000 A 
BRANCH  13  19
ATOM     19  C   UNL     1       3.317   6.201  19.009  0.00  0.00    +0.000 C 
ATOM     20  O   UNL     1       3.387   5.379  19.901  0.00  0.00    +0.000 OA
BRANCH  19  22
ATOM     21  C   UNL     1       4.095   4.886  17.217  0.00  0.00    +0.000 C 
ATOM     22  O   UNL     1       4.001   6.176  17.835  0.00  0.00    +0.000 OA
ENDBRANCH  19  22
ENDBRANCH  13  19
ENDBRANCH   1  16
BRANCH   8  23
ATOM     23  C   UNL     1       2.919  16.660  19.468  0.00  0.00    +0.000 C 
ATOM     24  C   UNL     1       3.465  16.468  18.048  0.00  0.00    +0.000 C 
BRANCH  23  25
ATOM     25  C   UNL     1       3.901  15.979  20.477  0.00  0.00    +0.000 C 
ATOM     26  F   UNL     1       3.458  14.873  21.100  0.00  0.00    +0.000 F 
ATOM     27  F   UNL     1       5.075  15.634  19.882  0.00  0.00    +0.000 F 
ATOM     28  F   UNL     1       4.234  16.862  21.461  0.00  0.00    +0.000 F 
ENDBRANCH  23  25
BRANCH  23  29
ATOM     29  O   UNL     1       2.847  18.069  19.775  0.00  0.00    +0.000 OA
ATOM     30  H   UNL     1       2.031  18.206  20.297  0.00  0.00    +0.000 HD
ENDBRANCH  23  29
ENDBRANCH   8  23
TORSDOF 6
ENDMDL
MODEL 8
REMARK VINA RESULT:      -6.9      4.405      7.007
REMARK  Name = 
REMARK  10 active torsions:
REMARK  status: ('A' for Active; 'I' for Inactive)
REMARK    1  A    between atoms: C_1  and  O_2
REMARK    2  A    between atoms: O_2  and  C_3
REMARK    3  A    between atoms: C_3  and  C_5
REMARK    4  A    between atoms: C_8  and  C_9
REMARK    5  A    between atoms: C_13  and  C_14
REMARK    6  A    between atoms: C_16  and  C_18
REMARK    7  A    between atoms: C_18  and  C_19
REMARK    8  A    between atoms: C_18  and  O_20
REMARK    9  A    between atoms: C_18  and  C_21
REMARK   10  A    between atoms: C_26  and  C_27
REMARK                            x       y       z     vdW  Elec       q    Type
REMARK                         _______ _______ _______ _____ _____    ______ ____
ROOT
ATOM      1  C   UNL     1       1.697   6.495  20.342  0.00  0.00    +0.000 C 
ATOM      2  O   UNL     1       1.270   5.812  21.268  0.00  0.00    +0.000 OA
ATOM      3  N   UNL     1       2.395   5.975  19.242  0.00  0.00    +0.000 N 
ATOM      4  C   UNL     1       3.216   6.807  18.359  0.00  0.00    +0.000 C 
ATOM      5  C   UNL     1       4.627   6.236  18.094  0.00  0.00    +0.000 C 
ATOM      6  C   UNL     1       5.413   7.389  17.463  0.00  0.00    +0.000 C 
ATOM      7  N   UNL     1       4.474   4.862  17.521  0.00  0.00    +0.000 N 
ATOM      8  C   UNL     1       4.881   4.249  16.328  0.00  0.00    +0.000 C 
ATOM      9  O   UNL     1       4.513   3.091  16.109  0.00  0.00    +0.000 OA
ATOM     10  C   UNL     1       3.701   3.992  18.458  0.00  0.00    +0.000 C 
ATOM     11  C   UNL     1       2.293   4.563  18.791  0.00  0.00    +0.000 C 
ATOM     12  C   UNL     1       1.537   3.588  19.696  0.00  0.00    +0.000 C 
ENDROOT
BRANCH   1  16
ATOM     13  C   UNL     1       0.860  10.717  20.566  0.00  0.00    +0.000 A 
ATOM     14  C   UNL     1       1.126  10.113  19.330  0.00  0.00    +0.000 A 
ATOM     15  C   UNL     1       1.410   8.738  19.260  0.00  0.00    +0.000 A 
ATOM     16  C   UNL     1       1.457   7.971  20.428  0.00  0.00    +0.000 A 
ATOM     17  C   UNL     1       1.301   8.609  21.665  0.00  0.00    +0.000 A 
ATOM     18  C   UNL     1       0.942   9.954  21.733  0.00  0.00    +0.000 A 
BRANCH  13  19
ATOM     19  C   UNL     1       0.515  12.166  20.614  0.00  0.00    +0.000 C 
ATOM     20  O   UNL     1       1.074  12.983  21.320  0.00  0.00    +0.000 OA
BRANCH  19  22
ATOM     21  C   UNL     1      -1.810  12.420  20.337  0.00  0.00    +0.000 C 
ATOM     22  O   UNL     1      -0.503  12.412  19.748  0.00  0.00    +0.000 OA
ENDBRANCH  19  22
ENDBRANCH  13  19
ENDBRANCH   1  16
BRANCH   8  23
ATOM     23  C   UNL     1       5.754   4.964  15.274  0.00  0.00    +0.000 C 
ATOM     24  C   UNL     1       5.714   4.179  13.959  0.00  0.00    +0.000 C 
BRANCH  23  25
ATOM     25  C   UNL     1       7.246   5.121  15.717  0.00  0.00    +0.000 C 
ATOM     26  F   UNL     1       7.582   6.279  16.312  0.00  0.00    +0.000 F 
ATOM     27  F   UNL     1       7.623   4.132  16.571  0.00  0.00    +0.000 F 
ATOM     28  F   UNL     1       8.063   5.001  14.632  0.00  0.00    +0.000 F 
ENDBRANCH  23  25
BRANCH  23  29
ATOM     29  O   UNL     1       5.192   6.279  15.074  0.00  0.00    +0.000 OA
ATOM     30  H   UNL     1       5.500   6.590  14.198  0.00  0.00    +0.000 HD
ENDBRANCH  23  29
ENDBRANCH   8  23
TORSDOF 6
ENDMDL
MODEL 9
REMARK VINA RESULT:      -6.8      4.396      6.834
REMARK  Name = 
REMARK  10 active torsions:
REMARK  status: ('A' for Active; 'I' for Inactive)
REMARK    1  A    between atoms: C_1  and  O_2
REMARK    2  A    between atoms: O_2  and  C_3
REMARK    3  A    between atoms: C_3  and  C_5
REMARK    4  A    between atoms: C_8  and  C_9
REMARK    5  A    between atoms: C_13  and  C_14
REMARK    6  A    between atoms: C_16  and  C_18
REMARK    7  A    between atoms: C_18  and  C_19
REMARK    8  A    between atoms: C_18  and  O_20
REMARK    9  A    between atoms: C_18  and  C_21
REMARK   10  A    between atoms: C_26  and  C_27
REMARK                            x       y       z     vdW  Elec       q    Type
REMARK                         _______ _______ _______ _____ _____    ______ ____
ROOT
ATOM      1  C   UNL     1       1.710   6.507  20.346  0.00  0.00    +0.000 C 
ATOM      2  O   UNL     1       1.322   5.846  21.304  0.00  0.00    +0.000 OA
ATOM      3  N   UNL     1       2.412   5.972  19.256  0.00  0.00    +0.000 N 
ATOM      4  C   UNL     1       3.186   6.800  18.329  0.00  0.00    +0.000 C 
ATOM      5  C   UNL     1       4.615   6.275  18.064  0.00  0.00    +0.000 C 
ATOM      6  C   UNL     1       5.346   7.433  17.377  0.00  0.00    +0.000 C 
ATOM      7  N   UNL     1       4.510   4.875  17.548  0.00  0.00    +0.000 N 
ATOM      8  C   UNL     1       4.924   4.232  16.373  0.00  0.00    +0.000 C 
ATOM      9  O   UNL     1       4.599   3.052  16.205  0.00  0.00    +0.000 OA
ATOM     10  C   UNL     1       3.785   4.013  18.530  0.00  0.00    +0.000 C 
ATOM     11  C   UNL     1       2.360   4.541  18.863  0.00  0.00    +0.000 C 
ATOM     12  C   UNL     1       1.656   3.573  19.817  0.00  0.00    +0.000 C 
ENDROOT
BRANCH   1  16
ATOM     13  C   UNL     1       1.000  10.757  20.461  0.00  0.00    +0.000 A 
ATOM     14  C   UNL     1       0.956  10.001  21.639  0.00  0.00    +0.000 A 
ATOM     15  C   UNL     1       1.177   8.613  21.599  0.00  0.00    +0.000 A 
ATOM     16  C   UNL     1       1.412   7.976  20.378  0.00  0.00    +0.000 A 
ATOM     17  C   UNL     1       1.340   8.725  19.196  0.00  0.00    +0.000 A 
ATOM     18  C   UNL     1       1.200  10.111  19.239  0.00  0.00    +0.000 A 
BRANCH  13  19
ATOM     19  C   UNL     1       0.810  12.234  20.531  0.00  0.00    +0.000 C 
ATOM     20  O   UNL     1       1.547  12.994  21.128  0.00  0.00    +0.000 OA
BRANCH  19  22
ATOM     21  C   UNL     1      -0.134  13.695  18.944  0.00  0.00    +0.000 C 
ATOM     22  O   UNL     1      -0.299  12.577  19.826  0.00  0.00    +0.000 OA
ENDBRANCH  19  22
ENDBRANCH  13  19
ENDBRANCH   1  16
BRANCH   8  23
ATOM     23  C   UNL     1       5.753   4.938  15.279  0.00  0.00    +0.000 C 
ATOM     24  C   UNL     1       5.683   4.127  13.981  0.00  0.00    +0.000 C 
BRANCH  23  25
ATOM     25  C   UNL     1       7.256   5.126  15.672  0.00  0.00    +0.000 C 
ATOM     26  F   UNL     1       7.585   6.282  16.271  0.00  0.00    +0.000 F 
ATOM     27  F   UNL     1       7.686   4.134  16.498  0.00  0.00    +0.000 F 
ATOM     28  F   UNL     1       8.036   5.039  14.557  0.00  0.00    +0.000 F 
ENDBRANCH  23  25
BRANCH  23  29
ATOM     29  O   UNL     1       5.166   6.241  15.071  0.00  0.00    +0.000 OA
ATOM     30  H   UNL     1       4.314   6.100  14.611  0.00  0.00    +0.000 HD
ENDBRANCH  23  29
ENDBRANCH   8  23
TORSDOF 6
ENDMDL
