MODEL 1
REMARK VINA RESULT:      -5.3      0.000      0.000
REMARK  Name = 
REMARK  5 active torsions:
REMARK  status: ('A' for Active; 'I' for Inactive)
REMARK    1  A    between atoms: C_1  and  C_2
REMARK    2  A    between atoms: C_5  and  C_6
REMARK    3  A    between atoms: C_6  and  C_7
REMARK    4  A    between atoms: C_7  and  C_8
REMARK    5  A    between atoms: C_8  and  O_9
REMARK                            x       y       z     vdW  Elec       q    Type
REMARK                         _______ _______ _______ _____ _____    ______ ____
ROOT
ATOM      1  C   UNL     1       7.637   5.508  18.463  0.00  0.00    +0.000 C 
ATOM      2  C   UNL     1       6.938   6.526  17.572  0.00  0.00    +0.000 C 
ATOM      3  C   UNL     1       5.516   6.149  17.269  0.00  0.00    +0.000 C 
ATOM      4  C   UNL     1       5.185   5.645  16.070  0.00  0.00    +0.000 C 
ATOM      5  C   UNL     1       6.235   5.338  15.025  0.00  0.00    +0.000 C 
ATOM      6  O   UNL     1       7.554   5.427  15.604  0.00  0.00    +0.000 OA
ATOM      7  O   UNL     1       7.638   6.703  16.327  0.00  0.00    +0.000 OA
ENDROOT
BRANCH   5   8
ATOM      8  C   UNL     1       6.128   3.900  14.491  0.00  0.00    +0.000 C 
BRANCH   8   9
ATOM      9  C   UNL     1       5.603   3.797  13.062  0.00  0.00    +0.000 C 
BRANCH   9  10
ATOM     10  C   UNL     1       6.721   3.500  12.071  0.00  0.00    +0.000 C 
BRANCH  10  11
ATOM     11  O   UNL     1       6.686   2.122  11.721  0.00  0.00    +0.000 OA
ATOM     12  H   UNL     1       7.324   1.657  12.290  0.00  0.00    +0.000 HD
ENDBRANCH  10  11
ENDBRANCH   9  10
ENDBRANCH   8   9
ENDBRANCH   5   8
TORSDOF 4
ENDMDL
MODEL 2
REMARK VINA RESULT:      -5.3      2.494      3.721
REMARK  Name = 
REMARK  5 active torsions:
REMARK  status: ('A' for Active; 'I' for Inactive)
REMARK    1  A    between atoms: C_1  and  C_2
REMARK    2  A    between atoms: C_5  and  C_6
REMARK    3  A    between atoms: C_6  and  C_7
REMARK    4  A    between atoms: C_7  and  C_8
REMARK    5  A    between atoms: C_8  and  O_9
REMARK                            x       y       z     vdW  Elec       q    Type
REMARK                         _______ _______ _______ _____ _____    ______ ____
ROOT
ATOM      1  C   UNL     1       7.695   6.283  18.579  0.00  0.00    +0.000 C 
ATOM      2  C   UNL     1       7.261   6.786  17.208  0.00  0.00    +0.000 C 
ATOM      3  C   UNL     1       5.803   7.141  17.158  0.00  0.00    +0.000 C 
ATOM      4  C   UNL     1       4.922   6.321  16.563  0.00  0.00    +0.000 C 
ATOM      5  C   UNL     1       5.339   4.972  16.021  0.00  0.00    +0.000 C 
ATOM      6  O   UNL     1       6.674   4.650  16.463  0.00  0.00    +0.000 OA
ATOM      7  O   UNL     1       7.529   5.811  16.183  0.00  0.00    +0.000 OA
ENDROOT
BRANCH   5   8
ATOM      8  C   UNL     1       4.455   3.830  16.548  0.00  0.00    +0.000 C 
BRANCH   8   9
ATOM      9  C   UNL     1       3.746   4.138  17.863  0.00  0.00    +0.000 C 
BRANCH   9  10
ATOM     10  C   UNL     1       4.280   3.285  19.006  0.00  0.00    +0.000 C 
BRANCH  10  11
ATOM     11  O   UNL     1       5.692   3.432  19.082  0.00  0.00    +0.000 OA
ATOM     12  H   UNL     1       6.036   3.462  18.172  0.00  0.00    +0.000 HD
ENDBRANCH  10  11
ENDBRANCH   9  10
ENDBRANCH   8   9
ENDBRANCH   5   8
TORSDOF 4
ENDMDL
MODEL 3
REMARK VINA RESULT:      -5.1      5.089      6.278
REMARK  Name = 
REMARK  5 active torsions:
REMARK  status: ('A' for Active; 'I' for Inactive)
REMARK    1  A    between atoms: C_1  and  C_2
REMARK    2  A    between atoms: C_5  and  C_6
REMARK    3  A    between atoms: C_6  and  C_7
REMARK    4  A    between atoms: C_7  and  C_8
REMARK    5  A    between atoms: C_8  and  O_9
REMARK                            x       y       z     vdW  Elec       q    Type
REMARK                         _______ _______ _______ _____ _____    ______ ____
ROOT
ATOM      1  C   UNL     1       2.263   2.773  21.533  0.00  0.00    +0.000 C 
ATOM      2  C   UNL     1       1.087   3.318  20.734  0.00  0.00    +0.000 C 
ATOM      3  C   UNL     1       1.012   2.742  19.349  0.00  0.00    +0.000 C 
ATOM      4  C   UNL     1       1.401   3.466  18.288  0.00  0.00    +0.000 C 
ATOM      5  C   UNL     1       2.024   4.835  18.450  0.00  0.00    +0.000 C 
ATOM      6  O   UNL     1       2.338   5.076  19.838  0.00  0.00    +0.000 OA
ATOM      7  O   UNL     1       1.144   4.753  20.628  0.00  0.00    +0.000 OA
ENDROOT
BRANCH   5   8
ATOM      8  C   UNL     1       3.364   4.961  17.707  0.00  0.00    +0.000 C 
BRANCH   8   9
ATOM      9  C   UNL     1       4.580   4.538  18.525  0.00  0.00    +0.000 C 
BRANCH   9  10
ATOM     10  C   UNL     1       5.879   5.021  17.895  0.00  0.00    +0.000 C 
BRANCH  10  11
ATOM     11  O   UNL     1       6.922   4.105  18.205  0.00  0.00    +0.000 OA
ATOM     12  H   UNL     1       7.024   3.506  17.446  0.00  0.00    +0.000 HD
ENDBRANCH  10  11
ENDBRANCH   9  10
ENDBRANCH   8   9
ENDBRANCH   5   8
TORSDOF 4
ENDMDL
MODEL 4
REMARK VINA RESULT:      -5.1      4.433      5.391
REMARK  Name = 
REMARK  5 active torsions:
REMARK  status: ('A' for Active; 'I' for Inactive)
REMARK    1  A    between atoms: C_1  and  C_2
REMARK    2  A    between atoms: C_5  and  C_6
REMARK    3  A    between atoms: C_6  and  C_7
REMARK    4  A    between atoms: C_7  and  C_8
REMARK    5  A    between atoms: C_8  and  O_9
REMARK                            x       y       z     vdW  Elec       q    Type
REMARK                         _______ _______ _______ _____ _____    ______ ____
ROOT
ATOM      1  C   UNL     1       1.165   3.509  20.176  0.00  0.00    +0.000 C 
ATOM      2  C   UNL     1       1.191   2.673  18.903  0.00  0.00    +0.000 C 
ATOM      3  C   UNL     1       2.452   1.869  18.764  0.00  0.00    +0.000 C 
ATOM      4  C   UNL     1       3.416   2.254  17.913  0.00  0.00    +0.000 C 
ATOM      5  C   UNL     1       3.321   3.555  17.148  0.00  0.00    +0.000 C 
ATOM      6  O   UNL     1       2.234   4.354  17.660  0.00  0.00    +0.000 OA
ATOM      7  O   UNL     1       1.044   3.497  17.731  0.00  0.00    +0.000 OA
ENDROOT
BRANCH   5   8
ATOM      8  C   UNL     1       4.575   4.428  17.318  0.00  0.00    +0.000 C 
BRANCH   8   9
ATOM      9  C   UNL     1       5.652   4.195  16.262  0.00  0.00    +0.000 C 
BRANCH   9  10
ATOM     10  C   UNL     1       6.904   5.014  16.544  0.00  0.00    +0.000 C 
BRANCH  10  11
ATOM     11  O   UNL     1       7.505   5.394  15.313  0.00  0.00    +0.000 OA
ATOM     12  H   UNL     1       7.210   6.298  15.107  0.00  0.00    +0.000 HD
ENDBRANCH  10  11
ENDBRANCH   9  10
ENDBRANCH   8   9
ENDBRANCH   5   8
TORSDOF 4
ENDMDL
MODEL 5
REMARK VINA RESULT:      -5.1      4.765      6.168
REMARK  Name = 
REMARK  5 active torsions:
REMARK  status: ('A' for Active; 'I' for Inactive)
REMARK    1  A    between atoms: C_1  and  C_2
REMARK    2  A    between atoms: C_5  and  C_6
REMARK    3  A    between atoms: C_6  and  C_7
REMARK    4  A    between atoms: C_7  and  C_8
REMARK    5  A    between atoms: C_8  and  O_9
REMARK                            x       y       z     vdW  Elec       q    Type
REMARK                         _______ _______ _______ _____ _____    ______ ____
ROOT
ATOM      1  C   UNL     1       1.226   3.286  20.404  0.00  0.00    +0.000 C 
ATOM      2  C   UNL     1       1.158   2.475  19.116  0.00  0.00    +0.000 C 
ATOM      3  C   UNL     1       2.464   1.814  18.779  0.00  0.00    +0.000 C 
ATOM      4  C   UNL     1       3.251   2.313  17.813  0.00  0.00    +0.000 C 
ATOM      5  C   UNL     1       2.911   3.607  17.106  0.00  0.00    +0.000 C 
ATOM      6  O   UNL     1       1.830   4.276  17.788  0.00  0.00    +0.000 OA
ATOM      7  O   UNL     1       0.760   3.294  18.001  0.00  0.00    +0.000 OA
ENDROOT
BRANCH   5   8
ATOM      8  C   UNL     1       4.078   4.608  17.124  0.00  0.00    +0.000 C 
BRANCH   8   9
ATOM      9  C   UNL     1       4.311   5.281  18.473  0.00  0.00    +0.000 C 
BRANCH   9  10
ATOM     10  C   UNL     1       5.784   5.285  18.854  0.00  0.00    +0.000 C 
BRANCH  10  11
ATOM     11  O   UNL     1       6.274   3.950  18.855  0.00  0.00    +0.000 OA
ATOM     12  H   UNL     1       5.506   3.354  18.817  0.00  0.00    +0.000 HD
ENDBRANCH  10  11
ENDBRANCH   9  10
ENDBRANCH   8   9
ENDBRANCH   5   8
TORSDOF 4
ENDMDL
MODEL 6
REMARK VINA RESULT:      -5.1      5.093      6.650
REMARK  Name = 
REMARK  5 active torsions:
REMARK  status: ('A' for Active; 'I' for Inactive)
REMARK    1  A    between atoms: C_1  and  C_2
REMARK    2  A    between atoms: C_5  and  C_6
REMARK    3  A    between atoms: C_6  and  C_7
REMARK    4  A    between atoms: C_7  and  C_8
REMARK    5  A    between atoms: C_8  and  O_9
REMARK                            x       y       z     vdW  Elec       q    Type
REMARK                         _______ _______ _______ _____ _____    ______ ____
ROOT
ATOM      1  C   UNL     1       5.338   4.563  18.654  0.00  0.00    +0.000 C 
ATOM      2  C   UNL     1       4.412   4.747  17.459  0.00  0.00    +0.000 C 
ATOM      3  C   UNL     1       3.188   5.549  17.794  0.00  0.00    +0.000 C 
ATOM      4  C   UNL     1       2.001   4.944  17.962  0.00  0.00    +0.000 C 
ATOM      5  C   UNL     1       1.871   3.437  17.929  0.00  0.00    +0.000 C 
ATOM      6  O   UNL     1       3.178   2.825  17.950  0.00  0.00    +0.000 OA
ATOM      7  O   UNL     1       3.994   3.479  16.920  0.00  0.00    +0.000 OA
ENDROOT
BRANCH   5   8
ATOM      8  C   UNL     1       1.148   2.884  19.168  0.00  0.00    +0.000 C 
BRANCH   8   9
ATOM      9  C   UNL     1       0.999   3.885  20.310  0.00  0.00    +0.000 C 
BRANCH   9  10
ATOM     10  C   UNL     1       2.062   3.682  21.380  0.00  0.00    +0.000 C 
BRANCH  10  11
ATOM     11  O   UNL     1       1.725   2.549  22.170  0.00  0.00    +0.000 OA
ATOM     12  H   UNL     1       2.361   2.501  22.905  0.00  0.00    +0.000 HD
ENDBRANCH  10  11
ENDBRANCH   9  10
ENDBRANCH   8   9
ENDBRANCH   5   8
TORSDOF 4
ENDMDL
MODEL 7
REMARK VINA RESULT:      -5.0      3.656      4.785
REMARK  Name = 
REMARK  5 active torsions:
REMARK  status: ('A' for Active; 'I' for Inactive)
REMARK    1  A    between atoms: C_1  and  C_2
REMARK    2  A    between atoms: C_5  and  C_6
REMARK    3  A    between atoms: C_6  and  C_7
REMARK    4  A    between atoms: C_7  and  C_8
REMARK    5  A    between atoms: C_8  and  O_9
REMARK                            x       y       z     vdW  Elec       q    Type
REMARK                         _______ _______ _______ _____ _____    ______ ____
ROOT
ATOM      1  C   UNL     1       7.361   6.347  17.522  0.00  0.00    +0.000 C 
ATOM      2  C   UNL     1       7.176   4.835  17.501  0.00  0.00    +0.000 C 
ATOM      3  C   UNL     1       6.346   4.370  16.340  0.00  0.00    +0.000 C 
ATOM      4  C   UNL     1       5.067   4.003  16.519  0.00  0.00    +0.000 C 
ATOM      5  C   UNL     1       4.386   4.145  17.863  0.00  0.00    +0.000 C 
ATOM      6  O   UNL     1       5.208   4.924  18.757  0.00  0.00    +0.000 OA
ATOM      7  O   UNL     1       6.565   4.365  18.717  0.00  0.00    +0.000 OA
ENDROOT
BRANCH   5   8
ATOM      8  C   UNL     1       3.057   4.912  17.768  0.00  0.00    +0.000 C 
BRANCH   8   9
ATOM      9  C   UNL     1       1.819   4.023  17.710  0.00  0.00    +0.000 C 
BRANCH   9  10
ATOM     10  C   UNL     1       1.760   3.061  18.888  0.00  0.00    +0.000 C 
BRANCH  10  11
ATOM     11  O   UNL     1       1.645   1.729  18.404  0.00  0.00    +0.000 OA
ATOM     12  H   UNL     1       2.494   1.283  18.562  0.00  0.00    +0.000 HD
ENDBRANCH  10  11
ENDBRANCH   9  10
ENDBRANCH   8   9
ENDBRANCH   5   8
TORSDOF 4
ENDMDL
MODEL 8
REMARK VINA RESULT:      -5.0      5.268      7.127
REMARK  Name = 
REMARK  5 active torsions:
REMARK  status: ('A' for Active; 'I' for Inactive)
REMARK    1  A    between atoms: C_1  and  C_2
REMARK    2  A    between atoms: C_5  and  C_6
REMARK    3  A    between atoms: C_6  and  C_7
REMARK    4  A    between atoms: C_7  and  C_8
REMARK    5  A    between atoms: C_8  and  O_9
REMARK                            x       y       z     vdW  Elec       q    Type
REMARK                         _______ _______ _______ _____ _____    ______ ____
ROOT
ATOM      1  C   UNL     1       4.870   3.928  18.251  0.00  0.00    +0.000 C 
ATOM      2  C   UNL     1       3.882   2.984  17.578  0.00  0.00    +0.000 C 
ATOM      3  C   UNL     1       2.550   3.629  17.319  0.00  0.00    +0.000 C 
ATOM      4  C   UNL     1       1.494   3.347  18.098  0.00  0.00    +0.000 C 
ATOM      5  C   UNL     1       1.625   2.462  19.318  0.00  0.00    +0.000 C 
ATOM      6  O   UNL     1       3.018   2.223  19.611  0.00  0.00    +0.000 OA
ATOM      7  O   UNL     1       3.669   1.798  18.365  0.00  0.00    +0.000 OA
ENDROOT
BRANCH   5   8
ATOM      8  C   UNL     1       1.056   3.122  20.584  0.00  0.00    +0.000 C 
BRANCH   8   9
ATOM      9  C   UNL     1       2.003   4.109  21.260  0.00  0.00    +0.000 C 
BRANCH   9  10
ATOM     10  C   UNL     1       1.767   5.535  20.782  0.00  0.00    +0.000 C 
BRANCH  10  11
ATOM     11  O   UNL     1       2.965   6.045  20.212  0.00  0.00    +0.000 OA
ATOM     12  H   UNL     1       3.438   5.300  19.803  0.00  0.00    +0.000 HD
ENDBRANCH  10  11
ENDBRANCH   9  10
ENDBRANCH   8   9
ENDBRANCH   5   8
TORSDOF 4
ENDMDL
MODEL 9
REMARK VINA RESULT:      -4.9      5.102      6.613
REMARK  Name = 
REMARK  5 active torsions:
REMARK  status: ('A' for Active; 'I' for Inactive)
REMARK    1  A    between atoms: C_1  and  C_2
REMARK    2  A    between atoms: C_5  and  C_6
REMARK    3  A    between atoms: C_6  and  C_7
REMARK    4  A    between atoms: C_7  and  C_8
REMARK    5  A    between atoms: C_8  and  O_9
REMARK                            x       y       z     vdW  Elec       q    Type
REMARK                         _______ _______ _______ _____ _____    ______ ____
ROOT
ATOM      1  C   UNL     1       3.953   6.065  18.434  0.00  0.00    +0.000 C 
ATOM      2  C   UNL     1       4.727   4.859  17.919  0.00  0.00    +0.000 C 
ATOM      3  C   UNL     1       3.938   4.040  16.938  0.00  0.00    +0.000 C 
ATOM      4  C   UNL     1       3.386   2.874  17.312  0.00  0.00    +0.000 C 
ATOM      5  C   UNL     1       3.445   2.396  18.746  0.00  0.00    +0.000 C 
ATOM      6  O   UNL     1       3.923   3.454  19.603  0.00  0.00    +0.000 OA
ATOM      7  O   UNL     1       5.143   4.002  18.998  0.00  0.00    +0.000 OA
ENDROOT
BRANCH   5   8
ATOM      8  C   UNL     1       2.059   2.026  19.298  0.00  0.00    +0.000 C 
BRANCH   8   9
ATOM      9  C   UNL     1       1.393   3.128  20.117  0.00  0.00    +0.000 C 
BRANCH   9  10
ATOM     10  C   UNL     1       1.321   2.767  21.595  0.00  0.00    +0.000 C 
BRANCH  10  11
ATOM     11  O   UNL     1       2.638   2.581  22.099  0.00  0.00    +0.000 OA
ATOM     12  H   UNL     1       2.818   3.303  22.725  0.00  0.00    +0.000 HD
ENDBRANCH  10  11
ENDBRANCH   9  10
ENDBRANCH   8   9
ENDBRANCH   5   8
TORSDOF 4
ENDMDL
