MODEL 1
REMARK VINA RESULT:      -8.0      0.000      0.000
REMARK  Name = 
REMARK  6 active torsions:
REMARK  status: ('A' for Active; 'I' for Inactive)
REMARK    1  A    between atoms: C_1  and  C_2
REMARK    2  A    between atoms: C_2  and  C_3
REMARK    3  A    between atoms: C_2  and  C_9
REMARK    4  A    between atoms: N_13  and  C_14
REMARK    5  A    between atoms: C_14  and  N_15
REMARK    6  A    between atoms: N_18  and  C_19
REMARK                            x       y       z     vdW  Elec       q    Type
REMARK                         _______ _______ _______ _____ _____    ______ ____
ROOT
ATOM      1  C   UNL     1       4.367   3.654  18.128  0.00  0.00    +0.000 C 
ATOM      2  C   UNL     1       3.042   3.138  17.554  0.00  0.00    +0.000 C 
ATOM      3  C   UNL     1       2.107   4.301  17.727  0.00  0.00    +0.000 C 
ATOM      4  O   UNL     1       1.041   4.422  17.143  0.00  0.00    +0.000 OA
ATOM      5  N   UNL     1       2.624   5.129  18.677  0.00  0.00    +0.000 N 
ATOM      6  C   UNL     1       3.875   4.739  19.068  0.00  0.00    +0.000 C 
ATOM      7  O   UNL     1       4.489   5.123  20.053  0.00  0.00    +0.000 OA
ENDROOT
BRANCH   1   9
ATOM      8  C   UNL     1       4.698   4.427  15.658  0.00  0.00    +0.000 C 
ATOM      9  C   UNL     1       5.345   4.070  17.006  0.00  0.00    +0.000 C 
BRANCH   9  10
ATOM     10  C   UNL     1       6.364   5.137  17.378  0.00  0.00    +0.000 A 
ATOM     11  C   UNL     1       7.354   4.905  18.343  0.00  0.00    +0.000 A 
ATOM     12  C   UNL     1       8.133   5.955  18.832  0.00  0.00    +0.000 A 
ATOM     13  C   UNL     1       7.954   7.247  18.344  0.00  0.00    +0.000 A 
ATOM     14  C   UNL     1       7.021   7.483  17.339  0.00  0.00    +0.000 A 
ATOM     15  C   UNL     1       6.233   6.436  16.856  0.00  0.00    +0.000 A 
ENDBRANCH   9  10
ENDBRANCH   1   9
BRANCH   5  16
ATOM     16  C   UNL     1       1.800   6.069  19.404  0.00  0.00    +0.000 C 
BRANCH  16  17
ATOM     17  N   UNL     1       2.500   7.342  19.569  0.00  0.00    +0.000 NA
ATOM     18  C   UNL     1       2.555   8.133  18.324  0.00  0.00    +0.000 C 
ATOM     19  C   UNL     1       1.215   8.749  17.856  0.00  0.00    +0.000 C 
ATOM     20  N   UNL     1       0.542   9.496  18.941  0.00  0.00    +0.000 N 
ATOM     21  C   UNL     1       0.473   8.778  20.240  0.00  0.00    +0.000 C 
ATOM     22  C   UNL     1       1.854   8.175  20.610  0.00  0.00    +0.000 C 
BRANCH  20  23
ATOM     23  C   UNL     1      -0.619  10.222  18.610  0.00  0.00    +0.000 A 
ATOM     24  C   UNL     1      -1.173  11.120  19.541  0.00  0.00    +0.000 A 
ATOM     25  C   UNL     1      -2.307  11.887  19.250  0.00  0.00    +0.000 A 
ATOM     26  C   UNL     1      -2.919  11.777  18.008  0.00  0.00    +0.000 A 
ATOM     27  C   UNL     1      -2.390  10.903  17.067  0.00  0.00    +0.000 A 
ATOM     28 CL   UNL     1      -3.139  10.759  15.522  0.00  0.00    +0.000 Cl
ATOM     29  C   UNL     1      -1.252  10.142  17.358  0.00  0.00    +0.000 A 
ENDBRANCH  20  23
ENDBRANCH  16  17
ENDBRANCH   5  16
TORSDOF 5
ENDMDL
MODEL 2
REMARK VINA RESULT:      -7.9      1.026      1.355
REMARK  Name = 
REMARK  6 active torsions:
REMARK  status: ('A' for Active; 'I' for Inactive)
REMARK    1  A    between atoms: C_1  and  C_2
REMARK    2  A    between atoms: C_2  and  C_3
REMARK    3  A    between atoms: C_2  and  C_9
REMARK    4  A    between atoms: N_13  and  C_14
REMARK    5  A    between atoms: C_14  and  N_15
REMARK    6  A    between atoms: N_18  and  C_19
REMARK                            x       y       z     vdW  Elec       q    Type
REMARK                         _______ _______ _______ _____ _____    ______ ____
ROOT
ATOM      1  C   UNL     1       4.421   3.728  18.230  0.00  0.00    +0.000 C 
ATOM      2  C   UNL     1       3.120   3.123  17.689  0.00  0.00    +0.000 C 
ATOM      3  C   UNL     1       2.143   4.260  17.767  0.00  0.00    +0.000 C 
ATOM      4  O   UNL     1       1.079   4.298  17.169  0.00  0.00    +0.000 OA
ATOM      5  N   UNL     1       2.622   5.176  18.654  0.00  0.00    +0.000 N 
ATOM      6  C   UNL     1       3.883   4.864  19.081  0.00  0.00    +0.000 C 
ATOM      7  O   UNL     1       4.474   5.343  20.037  0.00  0.00    +0.000 OA
ENDROOT
BRANCH   1   9
ATOM      8  C   UNL     1       4.743   4.351  15.717  0.00  0.00    +0.000 C 
ATOM      9  C   UNL     1       5.393   4.093  17.085  0.00  0.00    +0.000 C 
BRANCH   9  10
ATOM     10  C   UNL     1       6.390   5.201  17.390  0.00  0.00    +0.000 A 
ATOM     11  C   UNL     1       7.379   5.051  18.372  0.00  0.00    +0.000 A 
ATOM     12  C   UNL     1       8.136   6.146  18.795  0.00  0.00    +0.000 A 
ATOM     13  C   UNL     1       7.935   7.400  18.223  0.00  0.00    +0.000 A 
ATOM     14  C   UNL     1       7.003   7.552  17.201  0.00  0.00    +0.000 A 
ATOM     15  C   UNL     1       6.237   6.460  16.784  0.00  0.00    +0.000 A 
ENDBRANCH   9  10
ENDBRANCH   1   9
BRANCH   5  16
ATOM     16  C   UNL     1       1.759   6.139  19.302  0.00  0.00    +0.000 C 
BRANCH  16  17
ATOM     17  N   UNL     1       2.461   7.406  19.498  0.00  0.00    +0.000 NA
ATOM     18  C   UNL     1       2.478   8.246  18.284  0.00  0.00    +0.000 C 
ATOM     19  C   UNL     1       1.123   8.877  17.882  0.00  0.00    +0.000 C 
ATOM     20  N   UNL     1       0.481   9.578  19.015  0.00  0.00    +0.000 N 
ATOM     21  C   UNL     1       0.453   8.808  20.286  0.00  0.00    +0.000 C 
ATOM     22  C   UNL     1       1.845   8.195  20.590  0.00  0.00    +0.000 C 
BRANCH  20  23
ATOM     23  C   UNL     1      -0.690  10.313  18.748  0.00  0.00    +0.000 A 
ATOM     24  C   UNL     1      -1.426  10.057  17.577  0.00  0.00    +0.000 A 
ATOM     25  C   UNL     1      -2.612  10.739  17.279  0.00  0.00    +0.000 A 
ATOM     26  C   UNL     1      -3.097  11.700  18.156  0.00  0.00    +0.000 A 
ATOM     27  C   UNL     1      -2.395  11.970  19.323  0.00  0.00    +0.000 A 
ATOM     28 CL   UNL     1      -2.988  13.160  20.419  0.00  0.00    +0.000 Cl
ATOM     29  C   UNL     1      -1.212  11.282  19.621  0.00  0.00    +0.000 A 
ENDBRANCH  20  23
ENDBRANCH  16  17
ENDBRANCH   5  16
TORSDOF 5
ENDMDL
MODEL 3
REMARK VINA RESULT:      -7.6      3.158      8.439
REMARK  Name = 
REMARK  6 active torsions:
REMARK  status: ('A' for Active; 'I' for Inactive)
REMARK    1  A    between atoms: C_1  and  C_2
REMARK    2  A    between atoms: C_2  and  C_3
REMARK    3  A    between atoms: C_2  and  C_9
REMARK    4  A    between atoms: N_13  and  C_14
REMARK    5  A    between atoms: C_14  and  N_15
REMARK    6  A    between atoms: N_18  and  C_19
REMARK                            x       y       z     vdW  Elec       q    Type
REMARK                         _______ _______ _______ _____ _____    ______ ____
ROOT
ATOM      1  C   UNL     1       1.537   8.368  20.524  0.00  0.00    +0.000 C 
ATOM      2  C   UNL     1       2.162   9.212  19.408  0.00  0.00    +0.000 C 
ATOM      3  C   UNL     1       2.267   8.254  18.257  0.00  0.00    +0.000 C 
ATOM      4  O   UNL     1       2.435   8.587  17.094  0.00  0.00    +0.000 OA
ATOM      5  N   UNL     1       2.212   6.985  18.750  0.00  0.00    +0.000 N 
ATOM      6  C   UNL     1       1.935   6.969  20.089  0.00  0.00    +0.000 C 
ATOM      7  O   UNL     1       2.057   6.022  20.852  0.00  0.00    +0.000 OA
ENDROOT
BRANCH   1   9
ATOM      8  C   UNL     1      -0.540   8.487  22.098  0.00  0.00    +0.000 C 
ATOM      9  C   UNL     1       0.029   8.664  20.681  0.00  0.00    +0.000 C 
BRANCH   9  10
ATOM     10  C   UNL     1      -0.450   9.989  20.105  0.00  0.00    +0.000 A 
ATOM     11  C   UNL     1      -0.448  11.166  20.867  0.00  0.00    +0.000 A 
ATOM     12  C   UNL     1      -1.093  12.315  20.405  0.00  0.00    +0.000 A 
ATOM     13  C   UNL     1      -1.724  12.314  19.164  0.00  0.00    +0.000 A 
ATOM     14  C   UNL     1      -1.679  11.174  18.367  0.00  0.00    +0.000 A 
ATOM     15  C   UNL     1      -1.043  10.020  18.832  0.00  0.00    +0.000 A 
ENDBRANCH   9  10
ENDBRANCH   1   9
BRANCH   5  16
ATOM     16  C   UNL     1       2.728   5.854  18.012  0.00  0.00    +0.000 C 
BRANCH  16  17
ATOM     17  N   UNL     1       4.078   5.521  18.464  0.00  0.00    +0.000 NA
ATOM     18  C   UNL     1       4.470   4.137  18.130  0.00  0.00    +0.000 C 
ATOM     19  C   UNL     1       4.730   3.853  16.631  0.00  0.00    +0.000 C 
ATOM     20  N   UNL     1       5.661   4.837  16.036  0.00  0.00    +0.000 N 
ATOM     21  C   UNL     1       5.352   6.255  16.352  0.00  0.00    +0.000 C 
ATOM     22  C   UNL     1       5.081   6.435  17.869  0.00  0.00    +0.000 C 
BRANCH  20  23
ATOM     23  C   UNL     1       6.090   4.610  14.713  0.00  0.00    +0.000 A 
ATOM     24  C   UNL     1       7.240   5.261  14.230  0.00  0.00    +0.000 A 
ATOM     25  C   UNL     1       7.725   5.048  12.934  0.00  0.00    +0.000 A 
ATOM     26  C   UNL     1       7.069   4.168  12.084  0.00  0.00    +0.000 A 
ATOM     27  C   UNL     1       5.934   3.507  12.536  0.00  0.00    +0.000 A 
ATOM     28 CL   UNL     1       5.111   2.412  11.492  0.00  0.00    +0.000 Cl
ATOM     29  C   UNL     1       5.454   3.717  13.835  0.00  0.00    +0.000 A 
ENDBRANCH  20  23
ENDBRANCH  16  17
ENDBRANCH   5  16
TORSDOF 5
ENDMDL
MODEL 4
REMARK VINA RESULT:      -7.6      3.146      4.214
REMARK  Name = 
REMARK  6 active torsions:
REMARK  status: ('A' for Active; 'I' for Inactive)
REMARK    1  A    between atoms: C_1  and  C_2
REMARK    2  A    between atoms: C_2  and  C_3
REMARK    3  A    between atoms: C_2  and  C_9
REMARK    4  A    between atoms: N_13  and  C_14
REMARK    5  A    between atoms: C_14  and  N_15
REMARK    6  A    between atoms: N_18  and  C_19
REMARK                            x       y       z     vdW  Elec       q    Type
REMARK                         _______ _______ _______ _____ _____    ______ ____
ROOT
ATOM      1  C   UNL     1       2.725   5.158  18.993  0.00  0.00    +0.000 C 
ATOM      2  C   UNL     1       2.551   6.124  17.816  0.00  0.00    +0.000 C 
ATOM      3  C   UNL     1       2.569   7.478  18.465  0.00  0.00    +0.000 C 
ATOM      4  O   UNL     1       2.753   8.527  17.868  0.00  0.00    +0.000 OA
ATOM      5  N   UNL     1       2.281   7.322  19.787  0.00  0.00    +0.000 N 
ATOM      6  C   UNL     1       2.211   6.004  20.144  0.00  0.00    +0.000 C 
ATOM      7  O   UNL     1       1.744   5.547  21.176  0.00  0.00    +0.000 OA
ENDROOT
BRANCH   1   9
ATOM      8  C   UNL     1       4.335   3.205  19.627  0.00  0.00    +0.000 C 
ATOM      9  C   UNL     1       4.176   4.634  19.085  0.00  0.00    +0.000 C 
BRANCH   9  10
ATOM     10  C   UNL     1       5.020   4.796  17.829  0.00  0.00    +0.000 A 
ATOM     11  C   UNL     1       4.872   3.941  16.728  0.00  0.00    +0.000 A 
ATOM     12  C   UNL     1       5.797   3.959  15.682  0.00  0.00    +0.000 A 
ATOM     13  C   UNL     1       6.867   4.850  15.707  0.00  0.00    +0.000 A 
ATOM     14  C   UNL     1       6.991   5.750  16.761  0.00  0.00    +0.000 A 
ATOM     15  C   UNL     1       6.073   5.727  17.813  0.00  0.00    +0.000 A 
ENDBRANCH   9  10
ENDBRANCH   1   9
BRANCH   5  16
ATOM     16  C   UNL     1       1.775   8.411  20.594  0.00  0.00    +0.000 C 
BRANCH  16  17
ATOM     17  N   UNL     1       0.323   8.515  20.461  0.00  0.00    +0.000 NA
ATOM     18  C   UNL     1      -0.362   8.689  21.757  0.00  0.00    +0.000 C 
ATOM     19  C   UNL     1      -0.167  10.062  22.444  0.00  0.00    +0.000 C 
ATOM     20  N   UNL     1      -0.456  11.185  21.526  0.00  0.00    +0.000 N 
ATOM     21  C   UNL     1       0.173  11.069  20.185  0.00  0.00    +0.000 C 
ATOM     22  C   UNL     1      -0.053   9.654  19.591  0.00  0.00    +0.000 C 
BRANCH  20  23
ATOM     23  C   UNL     1      -0.452  12.486  22.066  0.00  0.00    +0.000 A 
ATOM     24  C   UNL     1       0.433  13.453  21.557  0.00  0.00    +0.000 A 
ATOM     25  C   UNL     1       0.456  14.767  22.038  0.00  0.00    +0.000 A 
ATOM     26  C   UNL     1      -0.416  15.151  23.048  0.00  0.00    +0.000 A 
ATOM     27  C   UNL     1      -1.305  14.219  23.567  0.00  0.00    +0.000 A 
ATOM     28 CL   UNL     1      -2.393  14.683  24.820  0.00  0.00    +0.000 Cl
ATOM     29  C   UNL     1      -1.330  12.907  23.079  0.00  0.00    +0.000 A 
ENDBRANCH  20  23
ENDBRANCH  16  17
ENDBRANCH   5  16
TORSDOF 5
ENDMDL
MODEL 5
REMARK VINA RESULT:      -7.5      2.684      4.209
REMARK  Name = 
REMARK  6 active torsions:
REMARK  status: ('A' for Active; 'I' for Inactive)
REMARK    1  A    between atoms: C_1  and  C_2
REMARK    2  A    between atoms: C_2  and  C_3
REMARK    3  A    between atoms: C_2  and  C_9
REMARK    4  A    between atoms: N_13  and  C_14
REMARK    5  A    between atoms: C_14  and  N_15
REMARK    6  A    between atoms: N_18  and  C_19
REMARK                            x       y       z     vdW  Elec       q    Type
REMARK                         _______ _______ _______ _____ _____    ______ ____
ROOT
ATOM      1  C   UNL     1       6.897   5.332  16.557  0.00  0.00    +0.000 C 
ATOM      2  C   UNL     1       7.190   4.980  18.020  0.00  0.00    +0.000 C 
ATOM      3  C   UNL     1       5.934   5.382  18.738  0.00  0.00    +0.000 C 
ATOM      4  O   UNL     1       5.630   5.009  19.860  0.00  0.00    +0.000 OA
ATOM      5  N   UNL     1       5.257   6.267  17.953  0.00  0.00    +0.000 N 
ATOM      6  C   UNL     1       5.834   6.403  16.722  0.00  0.00    +0.000 C 
ATOM      7  O   UNL     1       5.611   7.280  15.900  0.00  0.00    +0.000 OA
ENDROOT
BRANCH   1   9
ATOM      8  C   UNL     1       5.185   3.416  16.105  0.00  0.00    +0.000 C 
ATOM      9  C   UNL     1       6.523   4.076  15.738  0.00  0.00    +0.000 C 
BRANCH   9  10
ATOM     10  C   UNL     1       6.621   4.217  14.226  0.00  0.00    +0.000 A 
ATOM     11  C   UNL     1       5.938   3.351  13.360  0.00  0.00    +0.000 A 
ATOM     12  C   UNL     1       6.212   3.350  11.991  0.00  0.00    +0.000 A 
ATOM     13  C   UNL     1       7.150   4.233  11.463  0.00  0.00    +0.000 A 
ATOM     14  C   UNL     1       7.789   5.144  12.299  0.00  0.00    +0.000 A 
ATOM     15  C   UNL     1       7.524   5.140  13.670  0.00  0.00    +0.000 A 
ENDBRANCH   9  10
ENDBRANCH   1   9
BRANCH   5  16
ATOM     16  C   UNL     1       4.278   7.181  18.499  0.00  0.00    +0.000 C 
BRANCH  16  17
ATOM     17  N   UNL     1       2.927   6.774  18.115  0.00  0.00    +0.000 NA
ATOM     18  C   UNL     1       2.185   6.132  19.218  0.00  0.00    +0.000 C 
ATOM     19  C   UNL     1       1.747   7.067  20.370  0.00  0.00    +0.000 C 
ATOM     20  N   UNL     1       1.040   8.267  19.870  0.00  0.00    +0.000 N 
ATOM     21  C   UNL     1       1.708   8.954  18.735  0.00  0.00    +0.000 C 
ATOM     22  C   UNL     1       2.133   7.934  17.646  0.00  0.00    +0.000 C 
BRANCH  20  23
ATOM     23  C   UNL     1       0.466   9.130  20.823  0.00  0.00    +0.000 A 
ATOM     24  C   UNL     1       0.592   8.842  22.194  0.00  0.00    +0.000 A 
ATOM     25  C   UNL     1       0.066   9.683  23.183  0.00  0.00    +0.000 A 
ATOM     26  C   UNL     1      -0.603  10.844  22.820  0.00  0.00    +0.000 A 
ATOM     27  C   UNL     1      -0.738  11.157  21.474  0.00  0.00    +0.000 A 
ATOM     28 CL   UNL     1      -1.565  12.596  21.012  0.00  0.00    +0.000 Cl
ATOM     29  C   UNL     1      -0.205  10.318  20.488  0.00  0.00    +0.000 A 
ENDBRANCH  20  23
ENDBRANCH  16  17
ENDBRANCH   5  16
TORSDOF 5
ENDMDL
MODEL 6
REMARK VINA RESULT:      -7.4      3.304      4.481
REMARK  Name = 
REMARK  6 active torsions:
REMARK  status: ('A' for Active; 'I' for Inactive)
REMARK    1  A    between atoms: C_1  and  C_2
REMARK    2  A    between atoms: C_2  and  C_3
REMARK    3  A    between atoms: C_2  and  C_9
REMARK    4  A    between atoms: N_13  and  C_14
REMARK    5  A    between atoms: C_14  and  N_15
REMARK    6  A    between atoms: N_18  and  C_19
REMARK                            x       y       z     vdW  Elec       q    Type
REMARK                         _______ _______ _______ _____ _____    ______ ____
ROOT
ATOM      1  C   UNL     1       2.466   5.457  19.032  0.00  0.00    +0.000 C 
ATOM      2  C   UNL     1       2.344   6.468  17.886  0.00  0.00    +0.000 C 
ATOM      3  C   UNL     1       2.385   7.797  18.581  0.00  0.00    +0.000 C 
ATOM      4  O   UNL     1       2.611   8.861  18.025  0.00  0.00    +0.000 OA
ATOM      5  N   UNL     1       2.065   7.605  19.891  0.00  0.00    +0.000 N 
ATOM      6  C   UNL     1       1.952   6.278  20.200  0.00  0.00    +0.000 C 
ATOM      7  O   UNL     1       1.450   5.799  21.206  0.00  0.00    +0.000 OA
ENDROOT
BRANCH   1   9
ATOM      8  C   UNL     1       4.013   3.467  19.705  0.00  0.00    +0.000 C 
ATOM      9  C   UNL     1       3.900   4.890  19.134  0.00  0.00    +0.000 C 
BRANCH   9  10
ATOM     10  C   UNL     1       4.748   4.999  17.876  0.00  0.00    +0.000 A 
ATOM     11  C   UNL     1       5.568   6.111  17.636  0.00  0.00    +0.000 A 
ATOM     12  C   UNL     1       6.162   6.303  16.386  0.00  0.00    +0.000 A 
ATOM     13  C   UNL     1       5.968   5.373  15.368  0.00  0.00    +0.000 A 
ATOM     14  C   UNL     1       5.210   4.231  15.610  0.00  0.00    +0.000 A 
ATOM     15  C   UNL     1       4.607   4.042  16.856  0.00  0.00    +0.000 A 
ENDBRANCH   9  10
ENDBRANCH   1   9
BRANCH   5  16
ATOM     16  C   UNL     1       1.573   8.680  20.725  0.00  0.00    +0.000 C 
BRANCH  16  17
ATOM     17  N   UNL     1       0.112   8.724  20.694  0.00  0.00    +0.000 NA
ATOM     18  C   UNL     1      -0.487   8.860  22.036  0.00  0.00    +0.000 C 
ATOM     19  C   UNL     1      -0.302  10.236  22.720  0.00  0.00    +0.000 C 
ATOM     20  N   UNL     1      -0.701  11.352  21.834  0.00  0.00    +0.000 N 
ATOM     21  C   UNL     1      -0.163  11.270  20.452  0.00  0.00    +0.000 C 
ATOM     22  C   UNL     1      -0.371   9.851  19.862  0.00  0.00    +0.000 C 
BRANCH  20  23
ATOM     23  C   UNL     1      -0.713  12.648  22.385  0.00  0.00    +0.000 A 
ATOM     24  C   UNL     1       0.171  13.626  21.894  0.00  0.00    +0.000 A 
ATOM     25  C   UNL     1       0.179  14.936  22.386  0.00  0.00    +0.000 A 
ATOM     26  C   UNL     1      -0.709  15.306  23.387  0.00  0.00    +0.000 A 
ATOM     27  C   UNL     1      -1.598  14.363  23.888  0.00  0.00    +0.000 A 
ATOM     28 CL   UNL     1      -2.705  14.810  25.130  0.00  0.00    +0.000 Cl
ATOM     29  C   UNL     1      -1.608  13.055  23.389  0.00  0.00    +0.000 A 
ENDBRANCH  20  23
ENDBRANCH  16  17
ENDBRANCH   5  16
TORSDOF 5
ENDMDL
MODEL 7
REMARK VINA RESULT:      -7.3      2.791      4.193
REMARK  Name = 
REMARK  6 active torsions:
REMARK  status: ('A' for Active; 'I' for Inactive)
REMARK    1  A    between atoms: C_1  and  C_2
REMARK    2  A    between atoms: C_2  and  C_3
REMARK    3  A    between atoms: C_2  and  C_9
REMARK    4  A    between atoms: N_13  and  C_14
REMARK    5  A    between atoms: C_14  and  N_15
REMARK    6  A    between atoms: N_18  and  C_19
REMARK                            x       y       z     vdW  Elec       q    Type
REMARK                         _______ _______ _______ _____ _____    ______ ____
ROOT
ATOM      1  C   UNL     1       6.820   5.316  16.504  0.00  0.00    +0.000 C 
ATOM      2  C   UNL     1       7.321   4.892  17.889  0.00  0.00    +0.000 C 
ATOM      3  C   UNL     1       6.154   5.182  18.789  0.00  0.00    +0.000 C 
ATOM      4  O   UNL     1       6.020   4.725  19.914  0.00  0.00    +0.000 OA
ATOM      5  N   UNL     1       5.341   6.076  18.160  0.00  0.00    +0.000 N 
ATOM      6  C   UNL     1       5.742   6.317  16.876  0.00  0.00    +0.000 C 
ATOM      7  O   UNL     1       5.374   7.229  16.151  0.00  0.00    +0.000 OA
ENDROOT
BRANCH   1   9
ATOM      8  C   UNL     1       4.929   3.663  15.798  0.00  0.00    +0.000 C 
ATOM      9  C   UNL     1       6.398   4.094  15.657  0.00  0.00    +0.000 C 
BRANCH   9  10
ATOM     10  C   UNL     1       6.771   4.148  14.183  0.00  0.00    +0.000 A 
ATOM     11  C   UNL     1       7.640   5.127  13.679  0.00  0.00    +0.000 A 
ATOM     12  C   UNL     1       7.795   5.302  12.303  0.00  0.00    +0.000 A 
ATOM     13  C   UNL     1       7.107   4.484  11.410  0.00  0.00    +0.000 A 
ATOM     14  C   UNL     1       6.291   3.466  11.893  0.00  0.00    +0.000 A 
ATOM     15  C   UNL     1       6.127   3.295  13.270  0.00  0.00    +0.000 A 
ENDBRANCH   9  10
ENDBRANCH   1   9
BRANCH   5  16
ATOM     16  C   UNL     1       4.403   6.902  18.889  0.00  0.00    +0.000 C 
BRANCH  16  17
ATOM     17  N   UNL     1       3.030   6.492  18.604  0.00  0.00    +0.000 NA
ATOM     18  C   UNL     1       2.209   6.346  19.822  0.00  0.00    +0.000 C 
ATOM     19  C   UNL     1       1.834   7.663  20.543  0.00  0.00    +0.000 C 
ATOM     20  N   UNL     1       1.250   8.655  19.614  0.00  0.00    +0.000 N 
ATOM     21  C   UNL     1       2.003   8.837  18.346  0.00  0.00    +0.000 C 
ATOM     22  C   UNL     1       2.355   7.465  17.713  0.00  0.00    +0.000 C 
BRANCH  20  23
ATOM     23  C   UNL     1       0.738   9.845  20.168  0.00  0.00    +0.000 A 
ATOM     24  C   UNL     1       0.986  11.076  19.535  0.00  0.00    +0.000 A 
ATOM     25  C   UNL     1       0.476  12.283  20.029  0.00  0.00    +0.000 A 
ATOM     26  C   UNL     1      -0.307  12.287  21.176  0.00  0.00    +0.000 A 
ATOM     27  C   UNL     1      -0.573  11.085  21.819  0.00  0.00    +0.000 A 
ATOM     28 CL   UNL     1      -1.544  11.076  23.242  0.00  0.00    +0.000 Cl
ATOM     29  C   UNL     1      -0.067   9.879  21.320  0.00  0.00    +0.000 A 
ENDBRANCH  20  23
ENDBRANCH  16  17
ENDBRANCH   5  16
TORSDOF 5
ENDMDL
MODEL 8
REMARK VINA RESULT:      -7.3      4.868      9.778
REMARK  Name = 
REMARK  6 active torsions:
REMARK  status: ('A' for Active; 'I' for Inactive)
REMARK    1  A    between atoms: C_1  and  C_2
REMARK    2  A    between atoms: C_2  and  C_3
REMARK    3  A    between atoms: C_2  and  C_9
REMARK    4  A    between atoms: N_13  and  C_14
REMARK    5  A    between atoms: C_14  and  N_15
REMARK    6  A    between atoms: N_18  and  C_19
REMARK                            x       y       z     vdW  Elec       q    Type
REMARK                         _______ _______ _______ _____ _____    ______ ____
ROOT
ATOM      1  C   UNL     1      -0.774  15.011  19.798  0.00  0.00    +0.000 C 
ATOM      2  C   UNL     1      -1.362  14.442  21.094  0.00  0.00    +0.000 C 
ATOM      3  C   UNL     1      -0.408  13.343  21.463  0.00  0.00    +0.000 C 
ATOM      4  O   UNL     1      -0.338  12.831  22.569  0.00  0.00    +0.000 OA
ATOM      5  N   UNL     1       0.290  12.991  20.347  0.00  0.00    +0.000 N 
ATOM      6  C   UNL     1       0.025  13.822  19.295  0.00  0.00    +0.000 C 
ATOM      7  O   UNL     1       0.300  13.630  18.120  0.00  0.00    +0.000 OA
ENDROOT
BRANCH   1   9
ATOM      8  C   UNL     1       1.334  16.186  20.787  0.00  0.00    +0.000 C 
ATOM      9  C   UNL     1      -0.009  16.328  20.054  0.00  0.00    +0.000 C 
BRANCH   9  10
ATOM     10  C   UNL     1       0.165  17.239  18.848  0.00  0.00    +0.000 A 
ATOM     11  C   UNL     1      -0.918  17.929  18.284  0.00  0.00    +0.000 A 
ATOM     12  C   UNL     1      -0.788  18.576  17.053  0.00  0.00    +0.000 A 
ATOM     13  C   UNL     1       0.433  18.569  16.383  0.00  0.00    +0.000 A 
ATOM     14  C   UNL     1       1.535  17.945  16.960  0.00  0.00    +0.000 A 
ATOM     15  C   UNL     1       1.404  17.287  18.186  0.00  0.00    +0.000 A 
ENDBRANCH   9  10
ENDBRANCH   1   9
BRANCH   5  16
ATOM     16  C   UNL     1       0.940  11.705  20.224  0.00  0.00    +0.000 C 
BRANCH  16  17
ATOM     17  N   UNL     1      -0.035  10.670  19.882  0.00  0.00    +0.000 NA
ATOM     18  C   UNL     1       0.076  10.219  18.480  0.00  0.00    +0.000 C 
ATOM     19  C   UNL     1       1.328   9.376  18.140  0.00  0.00    +0.000 C 
ATOM     20  N   UNL     1       1.511   8.252  19.085  0.00  0.00    +0.000 N 
ATOM     21  C   UNL     1       1.383   8.620  20.519  0.00  0.00    +0.000 C 
ATOM     22  C   UNL     1       0.117   9.483  20.756  0.00  0.00    +0.000 C 
BRANCH  20  23
ATOM     23  C   UNL     1       2.534   7.326  18.805  0.00  0.00    +0.000 A 
ATOM     24  C   UNL     1       2.775   6.260  19.691  0.00  0.00    +0.000 A 
ATOM     25  C   UNL     1       3.760   5.296  19.445  0.00  0.00    +0.000 A 
ATOM     26  C   UNL     1       4.532   5.372  18.293  0.00  0.00    +0.000 A 
ATOM     27  C   UNL     1       4.313   6.411  17.398  0.00  0.00    +0.000 A 
ATOM     28 CL   UNL     1       5.264   6.516  15.965  0.00  0.00    +0.000 Cl
ATOM     29  C   UNL     1       3.323   7.370  17.644  0.00  0.00    +0.000 A 
ENDBRANCH  20  23
ENDBRANCH  16  17
ENDBRANCH   5  16
TORSDOF 5
ENDMDL
MODEL 9
REMARK VINA RESULT:      -7.3      2.908      4.581
REMARK  Name = 
REMARK  6 active torsions:
REMARK  status: ('A' for Active; 'I' for Inactive)
REMARK    1  A    between atoms: C_1  and  C_2
REMARK    2  A    between atoms: C_2  and  C_3
REMARK    3  A    between atoms: C_2  and  C_9
REMARK    4  A    between atoms: N_13  and  C_14
REMARK    5  A    between atoms: C_14  and  N_15
REMARK    6  A    between atoms: N_18  and  C_19
REMARK                            x       y       z     vdW  Elec       q    Type
REMARK                         _______ _______ _______ _____ _____    ______ ____
ROOT
ATOM      1  C   UNL     1       3.778   6.570  18.201  0.00  0.00    +0.000 C 
ATOM      2  C   UNL     1       3.549   6.116  19.646  0.00  0.00    +0.000 C 
ATOM      3  C   UNL     1       2.190   6.661  19.976  0.00  0.00    +0.000 C 
ATOM      4  O   UNL     1       1.504   6.286  20.914  0.00  0.00    +0.000 OA
ATOM      5  N   UNL     1       1.909   7.668  19.102  0.00  0.00    +0.000 N 
ATOM      6  C   UNL     1       2.858   7.775  18.124  0.00  0.00    +0.000 C 
ATOM      7  O   UNL     1       3.015   8.710  17.353  0.00  0.00    +0.000 OA
ENDROOT
BRANCH   1   9
ATOM      8  C   UNL     1       4.727   5.045  16.309  0.00  0.00    +0.000 C 
ATOM      9  C   UNL     1       3.532   5.419  17.200  0.00  0.00    +0.000 C 
BRANCH   9  10
ATOM     10  C   UNL     1       2.919   4.154  17.783  0.00  0.00    +0.000 A 
ATOM     11  C   UNL     1       1.532   4.009  17.932  0.00  0.00    +0.000 A 
ATOM     12  C   UNL     1       1.000   2.948  18.668  0.00  0.00    +0.000 A 
ATOM     13  C   UNL     1       1.845   2.001  19.241  0.00  0.00    +0.000 A 
ATOM     14  C   UNL     1       3.220   2.093  19.048  0.00  0.00    +0.000 A 
ATOM     15  C   UNL     1       3.754   3.160  18.321  0.00  0.00    +0.000 A 
ENDBRANCH   9  10
ENDBRANCH   1   9
BRANCH   5  16
ATOM     16  C   UNL     1       0.928   8.689  19.399  0.00  0.00    +0.000 C 
BRANCH  16  17
ATOM     17  N   UNL     1       1.552   9.812  20.094  0.00  0.00    +0.000 NA
ATOM     18  C   UNL     1       1.199  11.120  19.506  0.00  0.00    +0.000 C 
ATOM     19  C   UNL     1      -0.260  11.587  19.729  0.00  0.00    +0.000 C 
ATOM     20  N   UNL     1      -0.653  11.511  21.153  0.00  0.00    +0.000 N 
ATOM     21  C   UNL     1      -0.302  10.235  21.827  0.00  0.00    +0.000 C 
ATOM     22  C   UNL     1       1.167   9.837  21.525  0.00  0.00    +0.000 C 
BRANCH  20  23
ATOM     23  C   UNL     1      -1.909  12.039  21.511  0.00  0.00    +0.000 A 
ATOM     24  C   UNL     1      -2.737  12.605  20.525  0.00  0.00    +0.000 A 
ATOM     25  C   UNL     1      -4.006  13.116  20.824  0.00  0.00    +0.000 A 
ATOM     26  C   UNL     1      -4.483  13.070  22.127  0.00  0.00    +0.000 A 
ATOM     27  C   UNL     1      -3.689  12.512  23.120  0.00  0.00    +0.000 A 
ATOM     28 CL   UNL     1      -4.270  12.448  24.741  0.00  0.00    +0.000 Cl
ATOM     29  C   UNL     1      -2.423  11.996  22.818  0.00  0.00    +0.000 A 
ENDBRANCH  20  23
ENDBRANCH  16  17
ENDBRANCH   5  16
TORSDOF 5
ENDMDL
