MODEL 1
REMARK VINA RESULT:      -5.7      0.000      0.000
REMARK  Name = 
REMARK  12 active torsions:
REMARK  status: ('A' for Active; 'I' for Inactive)
REMARK    1  A    between atoms: C_1  and  O_2
REMARK    2  A    between atoms: O_2  and  C_3
REMARK    3  A    between atoms: C_5  and  C_6
REMARK    4  A    between atoms: C_11  and  O_12
REMARK    5  A    between atoms: C_13  and  O_14
REMARK    6  A    between atoms: C_15  and  C_16
REMARK    7  A    between atoms: C_16  and  N_17
REMARK    8  A    between atoms: N_17  and  C_18
REMARK    9  A    between atoms: N_17  and  C_19
REMARK   10  A    between atoms: C_20  and  C_21
REMARK   11  A    between atoms: C_27  and  C_28
REMARK   12  A    between atoms: C_31  and  C_32
REMARK                            x       y       z     vdW  Elec       q    Type
REMARK                         _______ _______ _______ _____ _____    ______ ____
ROOT
ATOM      1  C   UNL     1      -3.236  15.461  22.346  0.00  0.00    +0.000 A 
ATOM      2  N   UNL     1      -4.588  15.513  22.188  0.00  0.00    +0.000 NA
ATOM      3  C   UNL     1      -5.303  14.358  22.269  0.00  0.00    +0.000 A 
ATOM      4  C   UNL     1      -4.728  13.136  22.517  0.00  0.00    +0.000 A 
ATOM      5  C   UNL     1      -3.355  13.146  22.612  0.00  0.00    +0.000 A 
ATOM      6  C   UNL     1      -2.560  14.283  22.554  0.00  0.00    +0.000 A 
ATOM      7  C   UNL     1      -1.109  13.837  22.530  0.00  0.00    +0.000 C 
ATOM      8  C   UNL     1      -0.097  14.478  21.561  0.00  0.00    +0.000 C 
ATOM      9  C   UNL     1      -0.354  13.878  20.150  0.00  0.00    +0.000 C 
ATOM     10  C   UNL     1      -1.515  12.854  20.383  0.00  0.00    +0.000 C 
ATOM     11  C   UNL     1      -1.359  12.402  21.918  0.00  0.00    +0.000 C 
ATOM     12  O   UNL     1      -2.645  11.986  22.486  0.00  0.00    +0.000 OA
ENDROOT
BRANCH  10  13
ATOM     13  C   UNL     1      -1.850  11.787  19.366  0.00  0.00    +0.000 A 
ATOM     14  C   UNL     1      -0.885  11.024  18.711  0.00  0.00    +0.000 A 
ATOM     15  C   UNL     1      -1.222  10.320  17.554  0.00  0.00    +0.000 A 
ATOM     16  C   UNL     1      -2.529  10.342  17.064  0.00  0.00    +0.000 A 
ATOM     17  C   UNL     1      -3.521  11.005  17.772  0.00  0.00    +0.000 A 
ATOM     18  C   UNL     1      -3.185  11.708  18.922  0.00  0.00    +0.000 A 
ENDBRANCH  10  13
BRANCH  11  19
ATOM     19  C   UNL     1      -0.432  11.159  21.994  0.00  0.00    +0.000 A 
ATOM     20  C   UNL     1       0.843  11.085  21.412  0.00  0.00    +0.000 A 
ATOM     21  C   UNL     1       1.441   9.839  21.116  0.00  0.00    +0.000 A 
ATOM     22  C   UNL     1       0.804   8.637  21.440  0.00  0.00    +0.000 A 
ATOM     23  C   UNL     1      -0.396   8.689  22.138  0.00  0.00    +0.000 A 
ATOM     24  C   UNL     1      -0.991   9.925  22.415  0.00  0.00    +0.000 A 
BRANCH  22  25
ATOM     25  C   UNL     1       1.348   7.369  21.025  0.00  0.00    +0.000 C 
ATOM     26  N   UNL     1       1.767   6.343  20.694  0.00  0.00    +0.000 NA
ENDBRANCH  22  25
ENDBRANCH  11  19
BRANCH   1  28
ATOM     27  C   UNL     1      -3.330  17.789  22.198  0.00  0.00    +0.000 C 
ATOM     28  O   UNL     1      -2.524  16.611  22.109  0.00  0.00    +0.000 OA
ENDBRANCH   1  28
BRANCH   3  29
ATOM     29  C   UNL     1      -6.700  14.438  21.922  0.00  0.00    +0.000 C 
ATOM     30  N   UNL     1      -7.806  14.550  21.600  0.00  0.00    +0.000 NA
ENDBRANCH   3  29
BRANCH   7  31
ATOM     31  O   UNL     1      -0.640  13.887  23.870  0.00  0.00    +0.000 OA
ATOM     32  H   UNL     1      -0.303  14.798  23.991  0.00  0.00    +0.000 HD
ENDBRANCH   7  31
BRANCH   8  33
ATOM     33  O   UNL     1      -0.026  15.884  21.705  0.00  0.00    +0.000 OA
ATOM     34  H   UNL     1      -0.699  16.308  21.141  0.00  0.00    +0.000 HD
ENDBRANCH   8  33
BRANCH   9  35
ATOM     35  C   UNL     1      -0.609  14.896  19.018  0.00  0.00    +0.000 C 
BRANCH  35  36
ATOM     36  N   UNL     1       0.358  16.007  18.969  0.00  0.00    +0.000 NA
ATOM     37  C   UNL     1       1.686  15.603  18.502  0.00  0.00    +0.000 C 
ATOM     38  C   UNL     1      -0.135  17.105  18.132  0.00  0.00    +0.000 C 
ENDBRANCH  35  36
ENDBRANCH   9  35
TORSDOF 9
ENDMDL
MODEL 2
REMARK VINA RESULT:      -5.7      1.696      1.870
REMARK  Name = 
REMARK  12 active torsions:
REMARK  status: ('A' for Active; 'I' for Inactive)
REMARK    1  A    between atoms: C_1  and  O_2
REMARK    2  A    between atoms: O_2  and  C_3
REMARK    3  A    between atoms: C_5  and  C_6
REMARK    4  A    between atoms: C_11  and  O_12
REMARK    5  A    between atoms: C_13  and  O_14
REMARK    6  A    between atoms: C_15  and  C_16
REMARK    7  A    between atoms: C_16  and  N_17
REMARK    8  A    between atoms: N_17  and  C_18
REMARK    9  A    between atoms: N_17  and  C_19
REMARK   10  A    between atoms: C_20  and  C_21
REMARK   11  A    between atoms: C_27  and  C_28
REMARK   12  A    between atoms: C_31  and  C_32
REMARK                            x       y       z     vdW  Elec       q    Type
REMARK                         _______ _______ _______ _____ _____    ______ ____
ROOT
ATOM      1  C   UNL     1      -3.662  15.023  23.712  0.00  0.00    +0.000 A 
ATOM      2  N   UNL     1      -4.960  14.730  24.002  0.00  0.00    +0.000 NA
ATOM      3  C   UNL     1      -5.359  13.428  23.983  0.00  0.00    +0.000 A 
ATOM      4  C   UNL     1      -4.510  12.388  23.697  0.00  0.00    +0.000 A 
ATOM      5  C   UNL     1      -3.227  12.758  23.359  0.00  0.00    +0.000 A 
ATOM      6  C   UNL     1      -2.745  14.059  23.369  0.00  0.00    +0.000 A 
ATOM      7  C   UNL     1      -1.347  14.043  22.774  0.00  0.00    +0.000 C 
ATOM      8  C   UNL     1      -0.907  15.108  21.751  0.00  0.00    +0.000 C 
ATOM      9  C   UNL     1      -1.545  14.738  20.383  0.00  0.00    +0.000 C 
ATOM     10  C   UNL     1      -2.320  13.409  20.678  0.00  0.00    +0.000 C 
ATOM     11  C   UNL     1      -1.525  12.737  21.903  0.00  0.00    +0.000 C 
ATOM     12  O   UNL     1      -2.405  11.883  22.707  0.00  0.00    +0.000 OA
ENDROOT
BRANCH  10  13
ATOM     13  C   UNL     1      -2.793  12.502  19.565  0.00  0.00    +0.000 A 
ATOM     14  C   UNL     1      -1.975  12.084  18.517  0.00  0.00    +0.000 A 
ATOM     15  C   UNL     1      -2.545  11.551  17.359  0.00  0.00    +0.000 A 
ATOM     16  C   UNL     1      -3.929  11.400  17.254  0.00  0.00    +0.000 A 
ATOM     17  C   UNL     1      -4.742  11.706  18.335  0.00  0.00    +0.000 A 
ATOM     18  C   UNL     1      -4.176  12.238  19.486  0.00  0.00    +0.000 A 
ENDBRANCH  10  13
BRANCH  11  19
ATOM     19  C   UNL     1      -0.415  11.806  21.345  0.00  0.00    +0.000 A 
ATOM     20  C   UNL     1       0.699  12.250  20.616  0.00  0.00    +0.000 A 
ATOM     21  C   UNL     1       1.412  11.376  19.764  0.00  0.00    +0.000 A 
ATOM     22  C   UNL     1       1.063  10.026  19.658  0.00  0.00    +0.000 A 
ATOM     23  C   UNL     1       0.050   9.537  20.474  0.00  0.00    +0.000 A 
ATOM     24  C   UNL     1      -0.663  10.409  21.303  0.00  0.00    +0.000 A 
BRANCH  22  25
ATOM     25  C   UNL     1       1.702   9.164  18.697  0.00  0.00    +0.000 C 
ATOM     26  N   UNL     1       2.211   8.485  17.911  0.00  0.00    +0.000 NA
ENDBRANCH  22  25
ENDBRANCH  11  19
BRANCH   1  28
ATOM     27  C   UNL     1      -3.793  17.145  24.678  0.00  0.00    +0.000 C 
ATOM     28  O   UNL     1      -3.323  16.347  23.587  0.00  0.00    +0.000 OA
ENDBRANCH   1  28
BRANCH   3  29
ATOM     29  C   UNL     1      -6.772  13.185  24.124  0.00  0.00    +0.000 C 
ATOM     30  N   UNL     1      -7.917  13.016  24.178  0.00  0.00    +0.000 NA
ENDBRANCH   3  29
BRANCH   7  31
ATOM     31  O   UNL     1      -0.437  13.967  23.861  0.00  0.00    +0.000 OA
ATOM     32  H   UNL     1      -0.876  13.396  24.526  0.00  0.00    +0.000 HD
ENDBRANCH   7  31
BRANCH   8  33
ATOM     33  O   UNL     1      -1.059  16.426  22.244  0.00  0.00    +0.000 OA
ATOM     34  H   UNL     1      -1.948  16.760  22.023  0.00  0.00    +0.000 HD
ENDBRANCH   8  33
BRANCH   9  35
ATOM     35  C   UNL     1      -2.390  15.840  19.710  0.00  0.00    +0.000 C 
BRANCH  35  36
ATOM     36  N   UNL     1      -1.691  17.127  19.545  0.00  0.00    +0.000 NA
ATOM     37  C   UNL     1      -0.763  17.144  18.412  0.00  0.00    +0.000 C 
ATOM     38  C   UNL     1      -2.641  18.235  19.407  0.00  0.00    +0.000 C 
ENDBRANCH  35  36
ENDBRANCH   9  35
TORSDOF 9
ENDMDL
MODEL 3
REMARK VINA RESULT:      -5.7      7.916     10.850
REMARK  Name = 
REMARK  12 active torsions:
REMARK  status: ('A' for Active; 'I' for Inactive)
REMARK    1  A    between atoms: C_1  and  O_2
REMARK    2  A    between atoms: O_2  and  C_3
REMARK    3  A    between atoms: C_5  and  C_6
REMARK    4  A    between atoms: C_11  and  O_12
REMARK    5  A    between atoms: C_13  and  O_14
REMARK    6  A    between atoms: C_15  and  C_16
REMARK    7  A    between atoms: C_16  and  N_17
REMARK    8  A    between atoms: N_17  and  C_18
REMARK    9  A    between atoms: N_17  and  C_19
REMARK   10  A    between atoms: C_20  and  C_21
REMARK   11  A    between atoms: C_27  and  C_28
REMARK   12  A    between atoms: C_31  and  C_32
REMARK                            x       y       z     vdW  Elec       q    Type
REMARK                         _______ _______ _______ _____ _____    ______ ____
ROOT
ATOM      1  C   UNL     1       6.352  14.950  18.418  0.00  0.00    +0.000 A 
ATOM      2  N   UNL     1       5.100  14.472  18.174  0.00  0.00    +0.000 NA
ATOM      3  C   UNL     1       4.164  14.551  19.160  0.00  0.00    +0.000 A 
ATOM      4  C   UNL     1       4.415  15.104  20.391  0.00  0.00    +0.000 A 
ATOM      5  C   UNL     1       5.713  15.517  20.590  0.00  0.00    +0.000 A 
ATOM      6  C   UNL     1       6.717  15.482  19.632  0.00  0.00    +0.000 A 
ATOM      7  C   UNL     1       8.021  15.866  20.308  0.00  0.00    +0.000 C 
ATOM      8  C   UNL     1       9.318  15.080  20.037  0.00  0.00    +0.000 C 
ATOM      9  C   UNL     1       9.238  13.752  20.841  0.00  0.00    +0.000 C 
ATOM     10  C   UNL     1       7.870  13.852  21.596  0.00  0.00    +0.000 C 
ATOM     11  C   UNL     1       7.615  15.430  21.771  0.00  0.00    +0.000 C 
ATOM     12  O   UNL     1       6.183  15.734  21.855  0.00  0.00    +0.000 OA
ENDROOT
BRANCH  10  13
ATOM     13  C   UNL     1       7.540  12.953  22.766  0.00  0.00    +0.000 A 
ATOM     14  C   UNL     1       6.239  12.704  23.198  0.00  0.00    +0.000 A 
ATOM     15  C   UNL     1       6.017  12.165  24.466  0.00  0.00    +0.000 A 
ATOM     16  C   UNL     1       7.091  11.838  25.296  0.00  0.00    +0.000 A 
ATOM     17  C   UNL     1       8.391  11.976  24.832  0.00  0.00    +0.000 A 
ATOM     18  C   UNL     1       8.611  12.514  23.570  0.00  0.00    +0.000 A 
ENDBRANCH  10  13
BRANCH  11  19
ATOM     19  C   UNL     1       8.235  15.904  23.113  0.00  0.00    +0.000 A 
ATOM     20  C   UNL     1       9.613  15.988  23.363  0.00  0.00    +0.000 A 
ATOM     21  C   UNL     1      10.120  15.979  24.683  0.00  0.00    +0.000 A 
ATOM     22  C   UNL     1       9.261  15.937  25.785  0.00  0.00    +0.000 A 
ATOM     23  C   UNL     1       7.891  15.991  25.562  0.00  0.00    +0.000 A 
ATOM     24  C   UNL     1       7.395  15.984  24.254  0.00  0.00    +0.000 A 
BRANCH  22  25
ATOM     25  C   UNL     1       9.773  15.797  27.125  0.00  0.00    +0.000 C 
ATOM     26  N   UNL     1      10.202  15.676  28.193  0.00  0.00    +0.000 NA
ENDBRANCH  22  25
ENDBRANCH  11  19
BRANCH   1  28
ATOM     27  C   UNL     1       7.468  13.333  17.157  0.00  0.00    +0.000 C 
ATOM     28  O   UNL     1       7.315  14.721  17.468  0.00  0.00    +0.000 OA
ENDBRANCH   1  28
BRANCH   3  29
ATOM     29  C   UNL     1       2.913  13.877  18.916  0.00  0.00    +0.000 C 
ATOM     30  N   UNL     1       1.882  13.370  18.769  0.00  0.00    +0.000 NA
ENDBRANCH   3  29
BRANCH   7  31
ATOM     31  O   UNL     1       8.207  17.256  20.085  0.00  0.00    +0.000 OA
ATOM     32  H   UNL     1       8.242  17.359  19.111  0.00  0.00    +0.000 HD
ENDBRANCH   7  31
BRANCH   8  33
ATOM     33  O   UNL     1       9.643  15.029  18.660  0.00  0.00    +0.000 OA
ATOM     34  H   UNL     1       9.723  14.100  18.375  0.00  0.00    +0.000 HD
ENDBRANCH   8  33
BRANCH   9  35
ATOM     35  C   UNL     1       9.431  12.454  20.027  0.00  0.00    +0.000 C 
BRANCH  35  36
ATOM     36  N   UNL     1      10.654  12.428  19.204  0.00  0.00    +0.000 NA
ATOM     37  C   UNL     1      11.852  12.045  19.955  0.00  0.00    +0.000 C 
ATOM     38  C   UNL     1      10.500  11.537  18.052  0.00  0.00    +0.000 C 
ENDBRANCH  35  36
ENDBRANCH   9  35
TORSDOF 9
ENDMDL
MODEL 4
REMARK VINA RESULT:      -5.6      2.324      3.883
REMARK  Name = 
REMARK  12 active torsions:
REMARK  status: ('A' for Active; 'I' for Inactive)
REMARK    1  A    between atoms: C_1  and  O_2
REMARK    2  A    between atoms: O_2  and  C_3
REMARK    3  A    between atoms: C_5  and  C_6
REMARK    4  A    between atoms: C_11  and  O_12
REMARK    5  A    between atoms: C_13  and  O_14
REMARK    6  A    between atoms: C_15  and  C_16
REMARK    7  A    between atoms: C_16  and  N_17
REMARK    8  A    between atoms: N_17  and  C_18
REMARK    9  A    between atoms: N_17  and  C_19
REMARK   10  A    between atoms: C_20  and  C_21
REMARK   11  A    between atoms: C_27  and  C_28
REMARK   12  A    between atoms: C_31  and  C_32
REMARK                            x       y       z     vdW  Elec       q    Type
REMARK                         _______ _______ _______ _____ _____    ______ ____
ROOT
ATOM      1  C   UNL     1      -5.384  14.912  22.900  0.00  0.00    +0.000 A 
ATOM      2  N   UNL     1      -6.056  15.634  21.959  0.00  0.00    +0.000 NA
ATOM      3  C   UNL     1      -5.888  15.317  20.646  0.00  0.00    +0.000 A 
ATOM      4  C   UNL     1      -5.081  14.292  20.218  0.00  0.00    +0.000 A 
ATOM      5  C   UNL     1      -4.390  13.640  21.215  0.00  0.00    +0.000 A 
ATOM      6  C   UNL     1      -4.519  13.896  22.573  0.00  0.00    +0.000 A 
ATOM      7  C   UNL     1      -3.465  13.081  23.303  0.00  0.00    +0.000 C 
ATOM      8  C   UNL     1      -2.625  13.701  24.436  0.00  0.00    +0.000 C 
ATOM      9  C   UNL     1      -1.541  14.600  23.777  0.00  0.00    +0.000 C 
ATOM     10  C   UNL     1      -1.788  14.422  22.241  0.00  0.00    +0.000 C 
ATOM     11  C   UNL     1      -2.448  12.962  22.101  0.00  0.00    +0.000 C 
ATOM     12  O   UNL     1      -3.300  12.874  20.912  0.00  0.00    +0.000 OA
ENDROOT
BRANCH  10  13
ATOM     13  C   UNL     1      -0.751  14.826  21.218  0.00  0.00    +0.000 A 
ATOM     14  C   UNL     1      -1.057  15.107  19.888  0.00  0.00    +0.000 A 
ATOM     15  C   UNL     1      -0.042  15.129  18.930  0.00  0.00    +0.000 A 
ATOM     16  C   UNL     1       1.287  14.906  19.297  0.00  0.00    +0.000 A 
ATOM     17  C   UNL     1       1.615  14.739  20.635  0.00  0.00    +0.000 A 
ATOM     18  C   UNL     1       0.605  14.715  21.588  0.00  0.00    +0.000 A 
ENDBRANCH  10  13
BRANCH  11  19
ATOM     19  C   UNL     1      -1.324  11.909  21.905  0.00  0.00    +0.000 A 
ATOM     20  C   UNL     1      -0.794  11.538  20.660  0.00  0.00    +0.000 A 
ATOM     21  C   UNL     1      -0.132  10.302  20.484  0.00  0.00    +0.000 A 
ATOM     22  C   UNL     1       0.062   9.429  21.559  0.00  0.00    +0.000 A 
ATOM     23  C   UNL     1      -0.334   9.837  22.826  0.00  0.00    +0.000 A 
ATOM     24  C   UNL     1      -1.003  11.054  22.992  0.00  0.00    +0.000 A 
BRANCH  22  25
ATOM     25  C   UNL     1       0.620   8.115  21.360  0.00  0.00    +0.000 C 
ATOM     26  N   UNL     1       1.086   7.068  21.200  0.00  0.00    +0.000 NA
ENDBRANCH  22  25
ENDBRANCH  11  19
BRANCH   1  28
ATOM     27  C   UNL     1      -5.423  16.772  24.310  0.00  0.00    +0.000 C 
ATOM     28  O   UNL     1      -5.450  15.346  24.200  0.00  0.00    +0.000 OA
ENDBRANCH   1  28
BRANCH   3  29
ATOM     29  C   UNL     1      -6.478  16.216  19.686  0.00  0.00    +0.000 C 
ATOM     30  N   UNL     1      -6.903  16.979  18.925  0.00  0.00    +0.000 NA
ENDBRANCH   3  29
BRANCH   7  31
ATOM     31  O   UNL     1      -4.095  11.881  23.728  0.00  0.00    +0.000 OA
ATOM     32  H   UNL     1      -3.854  11.211  23.056  0.00  0.00    +0.000 HD
ENDBRANCH   7  31
BRANCH   8  33
ATOM     33  O   UNL     1      -3.427  14.241  25.471  0.00  0.00    +0.000 OA
ATOM     34  H   UNL     1      -3.883  15.041  25.151  0.00  0.00    +0.000 HD
ENDBRANCH   8  33
BRANCH   9  35
ATOM     35  C   UNL     1      -1.496  16.067  24.256  0.00  0.00    +0.000 C 
BRANCH  35  36
ATOM     36  N   UNL     1      -0.351  16.387  25.129  0.00  0.00    +0.000 NA
ATOM     37  C   UNL     1       0.295  17.659  24.798  0.00  0.00    +0.000 C 
ATOM     38  C   UNL     1      -0.746  16.399  26.540  0.00  0.00    +0.000 C 
ENDBRANCH  35  36
ENDBRANCH   9  35
TORSDOF 9
ENDMDL
MODEL 5
REMARK VINA RESULT:      -5.6      2.698      6.184
REMARK  Name = 
REMARK  12 active torsions:
REMARK  status: ('A' for Active; 'I' for Inactive)
REMARK    1  A    between atoms: C_1  and  O_2
REMARK    2  A    between atoms: O_2  and  C_3
REMARK    3  A    between atoms: C_5  and  C_6
REMARK    4  A    between atoms: C_11  and  O_12
REMARK    5  A    between atoms: C_13  and  O_14
REMARK    6  A    between atoms: C_15  and  C_16
REMARK    7  A    between atoms: C_16  and  N_17
REMARK    8  A    between atoms: N_17  and  C_18
REMARK    9  A    between atoms: N_17  and  C_19
REMARK   10  A    between atoms: C_20  and  C_21
REMARK   11  A    between atoms: C_27  and  C_28
REMARK   12  A    between atoms: C_31  and  C_32
REMARK                            x       y       z     vdW  Elec       q    Type
REMARK                         _______ _______ _______ _____ _____    ______ ____
ROOT
ATOM      1  C   UNL     1       1.166  16.745  20.562  0.00  0.00    +0.000 A 
ATOM      2  N   UNL     1       2.497  16.597  20.308  0.00  0.00    +0.000 NA
ATOM      3  C   UNL     1       2.907  15.545  19.549  0.00  0.00    +0.000 A 
ATOM      4  C   UNL     1       2.041  14.626  19.010  0.00  0.00    +0.000 A 
ATOM      5  C   UNL     1       0.718  14.801  19.350  0.00  0.00    +0.000 A 
ATOM      6  C   UNL     1       0.223  15.855  20.107  0.00  0.00    +0.000 A 
ATOM      7  C   UNL     1      -1.244  15.579  20.386  0.00  0.00    +0.000 C 
ATOM      8  C   UNL     1      -1.840  15.799  21.790  0.00  0.00    +0.000 C 
ATOM      9  C   UNL     1      -1.397  14.605  22.680  0.00  0.00    +0.000 C 
ATOM     10  C   UNL     1      -0.570  13.698  21.708  0.00  0.00    +0.000 C 
ATOM     11  C   UNL     1      -1.173  14.007  20.250  0.00  0.00    +0.000 C 
ATOM     12  O   UNL     1      -0.175  13.779  19.200  0.00  0.00    +0.000 OA
ENDROOT
BRANCH  10  13
ATOM     13  C   UNL     1      -0.246  12.261  22.045  0.00  0.00    +0.000 A 
ATOM     14  C   UNL     1       0.664  11.491  21.323  0.00  0.00    +0.000 A 
ATOM     15  C   UNL     1       0.660  10.101  21.456  0.00  0.00    +0.000 A 
ATOM     16  C   UNL     1      -0.225   9.474  22.335  0.00  0.00    +0.000 A 
ATOM     17  C   UNL     1      -1.055  10.239  23.142  0.00  0.00    +0.000 A 
ATOM     18  C   UNL     1      -1.053  11.621  23.008  0.00  0.00    +0.000 A 
ENDBRANCH  10  13
BRANCH  11  19
ATOM     19  C   UNL     1      -2.338  13.023  19.958  0.00  0.00    +0.000 A 
ATOM     20  C   UNL     1      -2.356  12.110  18.893  0.00  0.00    +0.000 A 
ATOM     21  C   UNL     1      -3.571  11.579  18.404  0.00  0.00    +0.000 A 
ATOM     22  C   UNL     1      -4.793  11.906  19.000  0.00  0.00    +0.000 A 
ATOM     23  C   UNL     1      -4.784  12.700  20.140  0.00  0.00    +0.000 A 
ATOM     24  C   UNL     1      -3.581  13.235  20.610  0.00  0.00    +0.000 A 
BRANCH  22  25
ATOM     25  C   UNL     1      -6.042  11.471  18.426  0.00  0.00    +0.000 C 
ATOM     26  N   UNL     1      -7.044  11.106  17.979  0.00  0.00    +0.000 NA
ENDBRANCH  22  25
ENDBRANCH  11  19
BRANCH   1  28
ATOM     27  C   UNL     1       1.784  17.961  22.456  0.00  0.00    +0.000 C 
ATOM     28  O   UNL     1       0.794  17.721  21.452  0.00  0.00    +0.000 OA
ENDBRANCH   1  28
BRANCH   3  29
ATOM     29  C   UNL     1       4.330  15.333  19.456  0.00  0.00    +0.000 C 
ATOM     30  N   UNL     1       5.481  15.224  19.402  0.00  0.00    +0.000 NA
ENDBRANCH   3  29
BRANCH   7  31
ATOM     31  O   UNL     1      -1.989  16.273  19.396  0.00  0.00    +0.000 OA
ATOM     32  H   UNL     1      -2.230  17.129  19.807  0.00  0.00    +0.000 HD
ENDBRANCH   7  31
BRANCH   8  33
ATOM     33  O   UNL     1      -1.638  17.119  22.262  0.00  0.00    +0.000 OA
ATOM     34  H   UNL     1      -0.688  17.335  22.237  0.00  0.00    +0.000 HD
ENDBRANCH   8  33
BRANCH   9  35
ATOM     35  C   UNL     1      -0.672  14.971  23.993  0.00  0.00    +0.000 C 
BRANCH  35  36
ATOM     36  N   UNL     1      -1.502  15.713  24.960  0.00  0.00    +0.000 NA
ATOM     37  C   UNL     1      -2.730  15.008  25.335  0.00  0.00    +0.000 C 
ATOM     38  C   UNL     1      -0.744  16.040  26.171  0.00  0.00    +0.000 C 
ENDBRANCH  35  36
ENDBRANCH   9  35
TORSDOF 9
ENDMDL
MODEL 6
REMARK VINA RESULT:      -5.5      2.590      5.948
REMARK  Name = 
REMARK  12 active torsions:
REMARK  status: ('A' for Active; 'I' for Inactive)
REMARK    1  A    between atoms: C_1  and  O_2
REMARK    2  A    between atoms: O_2  and  C_3
REMARK    3  A    between atoms: C_5  and  C_6
REMARK    4  A    between atoms: C_11  and  O_12
REMARK    5  A    between atoms: C_13  and  O_14
REMARK    6  A    between atoms: C_15  and  C_16
REMARK    7  A    between atoms: C_16  and  N_17
REMARK    8  A    between atoms: N_17  and  C_18
REMARK    9  A    between atoms: N_17  and  C_19
REMARK   10  A    between atoms: C_20  and  C_21
REMARK   11  A    between atoms: C_27  and  C_28
REMARK   12  A    between atoms: C_31  and  C_32
REMARK                            x       y       z     vdW  Elec       q    Type
REMARK                         _______ _______ _______ _____ _____    ______ ____
ROOT
ATOM      1  C   UNL     1       1.255  15.948  21.369  0.00  0.00    +0.000 A 
ATOM      2  N   UNL     1       2.573  15.977  21.714  0.00  0.00    +0.000 NA
ATOM      3  C   UNL     1       3.414  15.057  21.167  0.00  0.00    +0.000 A 
ATOM      4  C   UNL     1       3.001  14.103  20.269  0.00  0.00    +0.000 A 
ATOM      5  C   UNL     1       1.649  14.094  20.008  0.00  0.00    +0.000 A 
ATOM      6  C   UNL     1       0.734  15.007  20.515  0.00  0.00    +0.000 A 
ATOM      7  C   UNL     1      -0.656  14.541  20.118  0.00  0.00    +0.000 C 
ATOM      8  C   UNL     1      -1.818  14.554  21.130  0.00  0.00    +0.000 C 
ATOM      9  C   UNL     1      -1.629  13.336  22.077  0.00  0.00    +0.000 C 
ATOM     10  C   UNL     1      -0.346  12.628  21.525  0.00  0.00    +0.000 C 
ATOM     11  C   UNL     1      -0.309  13.008  19.964  0.00  0.00    +0.000 C 
ATOM     12  O   UNL     1       1.062  12.998  19.443  0.00  0.00    +0.000 OA
ENDROOT
BRANCH  10  13
ATOM     13  C   UNL     1       0.007  11.210  21.912  0.00  0.00    +0.000 A 
ATOM     14  C   UNL     1       1.084  10.512  21.367  0.00  0.00    +0.000 A 
ATOM     15  C   UNL     1       1.150   9.124  21.493  0.00  0.00    +0.000 A 
ATOM     16  C   UNL     1       0.163   8.427  22.193  0.00  0.00    +0.000 A 
ATOM     17  C   UNL     1      -0.850   9.122  22.836  0.00  0.00    +0.000 A 
ATOM     18  C   UNL     1      -0.917  10.504  22.709  0.00  0.00    +0.000 A 
ENDBRANCH  10  13
BRANCH  11  19
ATOM     19  C   UNL     1      -1.084  11.932  19.156  0.00  0.00    +0.000 A 
ATOM     20  C   UNL     1      -0.482  10.847  18.501  0.00  0.00    +0.000 A 
ATOM     21  C   UNL     1      -1.134  10.180  17.439  0.00  0.00    +0.000 A 
ATOM     22  C   UNL     1      -2.423  10.546  17.039  0.00  0.00    +0.000 A 
ATOM     23  C   UNL     1      -3.089  11.527  17.763  0.00  0.00    +0.000 A 
ATOM     24  C   UNL     1      -2.433  12.195  18.802  0.00  0.00    +0.000 A 
BRANCH  22  25
ATOM     25  C   UNL     1      -3.038   9.957  15.877  0.00  0.00    +0.000 C 
ATOM     26  N   UNL     1      -3.530   9.466  14.952  0.00  0.00    +0.000 NA
ENDBRANCH  22  25
ENDBRANCH  11  19
BRANCH   1  28
ATOM     27  C   UNL     1       0.708  16.873  23.442  0.00  0.00    +0.000 C 
ATOM     28  O   UNL     1       0.403  16.783  22.048  0.00  0.00    +0.000 OA
ENDBRANCH   1  28
BRANCH   3  29
ATOM     29  C   UNL     1       4.755  15.017  21.693  0.00  0.00    +0.000 C 
ATOM     30  N   UNL     1       5.854  15.010  22.059  0.00  0.00    +0.000 NA
ENDBRANCH   3  29
BRANCH   7  31
ATOM     31  O   UNL     1      -1.001  15.241  18.931  0.00  0.00    +0.000 OA
ATOM     32  H   UNL     1      -1.233  16.147  19.223  0.00  0.00    +0.000 HD
ENDBRANCH   7  31
BRANCH   8  33
ATOM     33  O   UNL     1      -2.028  15.835  21.696  0.00  0.00    +0.000 OA
ATOM     34  H   UNL     1      -2.618  15.761  22.468  0.00  0.00    +0.000 HD
ENDBRANCH   8  33
BRANCH   9  35
ATOM     35  C   UNL     1      -1.592  13.651  23.587  0.00  0.00    +0.000 C 
BRANCH  35  36
ATOM     36  N   UNL     1      -2.829  14.255  24.113  0.00  0.00    +0.000 NA
ATOM     37  C   UNL     1      -3.869  13.273  24.427  0.00  0.00    +0.000 C 
ATOM     38  C   UNL     1      -2.559  15.070  25.302  0.00  0.00    +0.000 C 
ENDBRANCH  35  36
ENDBRANCH   9  35
TORSDOF 9
ENDMDL
MODEL 7
REMARK VINA RESULT:      -5.4      2.264      3.820
REMARK  Name = 
REMARK  12 active torsions:
REMARK  status: ('A' for Active; 'I' for Inactive)
REMARK    1  A    between atoms: C_1  and  O_2
REMARK    2  A    between atoms: O_2  and  C_3
REMARK    3  A    between atoms: C_5  and  C_6
REMARK    4  A    between atoms: C_11  and  O_12
REMARK    5  A    between atoms: C_13  and  O_14
REMARK    6  A    between atoms: C_15  and  C_16
REMARK    7  A    between atoms: C_16  and  N_17
REMARK    8  A    between atoms: N_17  and  C_18
REMARK    9  A    between atoms: N_17  and  C_19
REMARK   10  A    between atoms: C_20  and  C_21
REMARK   11  A    between atoms: C_27  and  C_28
REMARK   12  A    between atoms: C_31  and  C_32
REMARK                            x       y       z     vdW  Elec       q    Type
REMARK                         _______ _______ _______ _____ _____    ______ ____
ROOT
ATOM      1  C   UNL     1      -5.384  14.829  22.716  0.00  0.00    +0.000 A 
ATOM      2  N   UNL     1      -6.053  15.502  21.738  0.00  0.00    +0.000 NA
ATOM      3  C   UNL     1      -5.840  15.154  20.439  0.00  0.00    +0.000 A 
ATOM      4  C   UNL     1      -4.991  14.144  20.062  0.00  0.00    +0.000 A 
ATOM      5  C   UNL     1      -4.306  13.543  21.094  0.00  0.00    +0.000 A 
ATOM      6  C   UNL     1      -4.479  13.832  22.441  0.00  0.00    +0.000 A 
ATOM      7  C   UNL     1      -3.420  13.073  23.220  0.00  0.00    +0.000 C 
ATOM      8  C   UNL     1      -2.630  13.751  24.356  0.00  0.00    +0.000 C 
ATOM      9  C   UNL     1      -1.557  14.665  23.699  0.00  0.00    +0.000 C 
ATOM     10  C   UNL     1      -1.758  14.436  22.164  0.00  0.00    +0.000 C 
ATOM     11  C   UNL     1      -2.368  12.952  22.049  0.00  0.00    +0.000 C 
ATOM     12  O   UNL     1      -3.186  12.803  20.842  0.00  0.00    +0.000 OA
ENDROOT
BRANCH  10  13
ATOM     13  C   UNL     1      -0.708  14.844  21.156  0.00  0.00    +0.000 A 
ATOM     14  C   UNL     1      -0.986  15.073  19.809  0.00  0.00    +0.000 A 
ATOM     15  C   UNL     1       0.054  15.100  18.879  0.00  0.00    +0.000 A 
ATOM     16  C   UNL     1       1.379  14.935  19.288  0.00  0.00    +0.000 A 
ATOM     17  C   UNL     1       1.676  14.821  20.639  0.00  0.00    +0.000 A 
ATOM     18  C   UNL     1       0.641  14.792  21.564  0.00  0.00    +0.000 A 
ENDBRANCH  10  13
BRANCH  11  19
ATOM     19  C   UNL     1      -1.207  11.930  21.912  0.00  0.00    +0.000 A 
ATOM     20  C   UNL     1      -0.530  11.656  20.714  0.00  0.00    +0.000 A 
ATOM     21  C   UNL     1       0.174  10.444  20.532  0.00  0.00    +0.000 A 
ATOM     22  C   UNL     1       0.262   9.499  21.559  0.00  0.00    +0.000 A 
ATOM     23  C   UNL     1      -0.285   9.811  22.797  0.00  0.00    +0.000 A 
ATOM     24  C   UNL     1      -0.994  11.005  22.967  0.00  0.00    +0.000 A 
BRANCH  22  25
ATOM     25  C   UNL     1       0.867   8.210  21.336  0.00  0.00    +0.000 C 
ATOM     26  N   UNL     1       1.366   7.184  21.145  0.00  0.00    +0.000 NA
ENDBRANCH  22  25
ENDBRANCH  11  19
BRANCH   1  28
ATOM     27  C   UNL     1      -6.454  16.355  24.122  0.00  0.00    +0.000 C 
ATOM     28  O   UNL     1      -5.498  15.297  24.000  0.00  0.00    +0.000 OA
ENDBRANCH   1  28
BRANCH   3  29
ATOM     29  C   UNL     1      -6.433  16.006  19.438  0.00  0.00    +0.000 C 
ATOM     30  N   UNL     1      -6.849  16.702  18.611  0.00  0.00    +0.000 NA
ENDBRANCH   3  29
BRANCH   7  31
ATOM     31  O   UNL     1      -4.022  11.865  23.664  0.00  0.00    +0.000 OA
ATOM     32  H   UNL     1      -4.088  11.952  24.638  0.00  0.00    +0.000 HD
ENDBRANCH   7  31
BRANCH   8  33
ATOM     33  O   UNL     1      -3.475  14.294  25.354  0.00  0.00    +0.000 OA
ATOM     34  H   UNL     1      -2.983  14.950  25.881  0.00  0.00    +0.000 HD
ENDBRANCH   8  33
BRANCH   9  35
ATOM     35  C   UNL     1      -1.570  16.146  24.136  0.00  0.00    +0.000 C 
BRANCH  35  36
ATOM     36  N   UNL     1      -2.861  16.829  23.934  0.00  0.00    +0.000 NA
ATOM     37  C   UNL     1      -3.220  17.732  25.030  0.00  0.00    +0.000 C 
ATOM     38  C   UNL     1      -2.877  17.572  22.671  0.00  0.00    +0.000 C 
ENDBRANCH  35  36
ENDBRANCH   9  35
TORSDOF 9
ENDMDL
MODEL 8
REMARK VINA RESULT:      -5.4      2.295      3.100
REMARK  Name = 
REMARK  12 active torsions:
REMARK  status: ('A' for Active; 'I' for Inactive)
REMARK    1  A    between atoms: C_1  and  O_2
REMARK    2  A    between atoms: O_2  and  C_3
REMARK    3  A    between atoms: C_5  and  C_6
REMARK    4  A    between atoms: C_11  and  O_12
REMARK    5  A    between atoms: C_13  and  O_14
REMARK    6  A    between atoms: C_15  and  C_16
REMARK    7  A    between atoms: C_16  and  N_17
REMARK    8  A    between atoms: N_17  and  C_18
REMARK    9  A    between atoms: N_17  and  C_19
REMARK   10  A    between atoms: C_20  and  C_21
REMARK   11  A    between atoms: C_27  and  C_28
REMARK   12  A    between atoms: C_31  and  C_32
REMARK                            x       y       z     vdW  Elec       q    Type
REMARK                         _______ _______ _______ _____ _____    ______ ____
ROOT
ATOM      1  C   UNL     1       0.336  15.346  22.335  0.00  0.00    +0.000 A 
ATOM      2  N   UNL     1      -0.650  15.673  23.217  0.00  0.00    +0.000 NA
ATOM      3  C   UNL     1      -1.424  14.679  23.734  0.00  0.00    +0.000 A 
ATOM      4  C   UNL     1      -1.251  13.354  23.420  0.00  0.00    +0.000 A 
ATOM      5  C   UNL     1      -0.275  13.099  22.483  0.00  0.00    +0.000 A 
ATOM      6  C   UNL     1       0.561  14.055  21.923  0.00  0.00    +0.000 A 
ATOM      7  C   UNL     1       1.366  13.383  20.824  0.00  0.00    +0.000 C 
ATOM      8  C   UNL     1       1.570  14.067  19.458  0.00  0.00    +0.000 C 
ATOM      9  C   UNL     1       0.250  13.908  18.652  0.00  0.00    +0.000 C 
ATOM     10  C   UNL     1      -0.674  13.079  19.606  0.00  0.00    +0.000 C 
ATOM     11  C   UNL     1       0.340  12.224  20.515  0.00  0.00    +0.000 C 
ATOM     12  O   UNL     1      -0.250  11.905  21.819  0.00  0.00    +0.000 OA
ENDROOT
BRANCH  10  13
ATOM     13  C   UNL     1      -1.920  12.388  19.101  0.00  0.00    +0.000 A 
ATOM     14  C   UNL     1      -2.014  11.803  17.840  0.00  0.00    +0.000 A 
ATOM     15  C   UNL     1      -3.267  11.499  17.305  0.00  0.00    +0.000 A 
ATOM     16  C   UNL     1      -4.430  11.743  18.037  0.00  0.00    +0.000 A 
ATOM     17  C   UNL     1      -4.341  12.218  19.338  0.00  0.00    +0.000 A 
ATOM     18  C   UNL     1      -3.095  12.522  19.869  0.00  0.00    +0.000 A 
ENDBRANCH  10  13
BRANCH  11  19
ATOM     19  C   UNL     1       0.621  10.861  19.825  0.00  0.00    +0.000 A 
ATOM     20  C   UNL     1       0.540   9.617  20.468  0.00  0.00    +0.000 A 
ATOM     21  C   UNL     1       1.220   8.486  19.961  0.00  0.00    +0.000 A 
ATOM     22  C   UNL     1       1.956   8.558  18.774  0.00  0.00    +0.000 A 
ATOM     23  C   UNL     1       1.936   9.744  18.052  0.00  0.00    +0.000 A 
ATOM     24  C   UNL     1       1.275  10.865  18.565  0.00  0.00    +0.000 A 
BRANCH  22  25
ATOM     25  C   UNL     1       2.755   7.446  18.324  0.00  0.00    +0.000 C 
ATOM     26  N   UNL     1       3.379   6.543  17.959  0.00  0.00    +0.000 NA
ENDBRANCH  22  25
ENDBRANCH  11  19
BRANCH   1  28
ATOM     27  C   UNL     1       0.920  17.604  22.441  0.00  0.00    +0.000 C 
ATOM     28  O   UNL     1       0.999  16.375  21.714  0.00  0.00    +0.000 OA
ENDBRANCH   1  28
BRANCH   3  29
ATOM     29  C   UNL     1      -2.559  15.090  24.521  0.00  0.00    +0.000 C 
ATOM     30  N   UNL     1      -3.445  15.479  25.158  0.00  0.00    +0.000 NA
ENDBRANCH   3  29
BRANCH   7  31
ATOM     31  O   UNL     1       2.608  13.001  21.398  0.00  0.00    +0.000 OA
ATOM     32  H   UNL     1       2.831  13.716  22.029  0.00  0.00    +0.000 HD
ENDBRANCH   7  31
BRANCH   8  33
ATOM     33  O   UNL     1       2.150  15.353  19.578  0.00  0.00    +0.000 OA
ATOM     34  H   UNL     1       2.137  15.634  20.511  0.00  0.00    +0.000 HD
ENDBRANCH   8  33
BRANCH   9  35
ATOM     35  C   UNL     1      -0.379  15.214  18.120  0.00  0.00    +0.000 C 
BRANCH  35  36
ATOM     36  N   UNL     1      -0.456  16.301  19.113  0.00  0.00    +0.000 NA
ATOM     37  C   UNL     1      -0.093  17.612  18.569  0.00  0.00    +0.000 C 
ATOM     38  C   UNL     1      -1.791  16.380  19.713  0.00  0.00    +0.000 C 
ENDBRANCH  35  36
ENDBRANCH   9  35
TORSDOF 9
ENDMDL
MODEL 9
REMARK VINA RESULT:      -5.3      3.509      6.469
REMARK  Name = 
REMARK  12 active torsions:
REMARK  status: ('A' for Active; 'I' for Inactive)
REMARK    1  A    between atoms: C_1  and  O_2
REMARK    2  A    between atoms: O_2  and  C_3
REMARK    3  A    between atoms: C_5  and  C_6
REMARK    4  A    between atoms: C_11  and  O_12
REMARK    5  A    between atoms: C_13  and  O_14
REMARK    6  A    between atoms: C_15  and  C_16
REMARK    7  A    between atoms: C_16  and  N_17
REMARK    8  A    between atoms: N_17  and  C_18
REMARK    9  A    between atoms: N_17  and  C_19
REMARK   10  A    between atoms: C_20  and  C_21
REMARK   11  A    between atoms: C_27  and  C_28
REMARK   12  A    between atoms: C_31  and  C_32
REMARK                            x       y       z     vdW  Elec       q    Type
REMARK                         _______ _______ _______ _____ _____    ______ ____
ROOT
ATOM      1  C   UNL     1      -5.883  12.261  18.536  0.00  0.00    +0.000 A 
ATOM      2  N   UNL     1      -5.221  11.811  17.433  0.00  0.00    +0.000 NA
ATOM      3  C   UNL     1      -3.919  11.432  17.559  0.00  0.00    +0.000 A 
ATOM      4  C   UNL     1      -3.239  11.467  18.751  0.00  0.00    +0.000 A 
ATOM      5  C   UNL     1      -3.949  11.984  19.812  0.00  0.00    +0.000 A 
ATOM      6  C   UNL     1      -5.279  12.377  19.764  0.00  0.00    +0.000 A 
ATOM      7  C   UNL     1      -5.617  13.038  21.090  0.00  0.00    +0.000 C 
ATOM      8  C   UNL     1      -6.426  14.348  21.141  0.00  0.00    +0.000 C 
ATOM      9  C   UNL     1      -5.465  15.507  20.755  0.00  0.00    +0.000 C 
ATOM     10  C   UNL     1      -4.089  14.795  20.529  0.00  0.00    +0.000 C 
ATOM     11  C   UNL     1      -4.150  13.486  21.461  0.00  0.00    +0.000 C 
ATOM     12  O   UNL     1      -3.299  12.415  20.934  0.00  0.00    +0.000 OA
ENDROOT
BRANCH  10  13
ATOM     13  C   UNL     1      -2.791  15.568  20.487  0.00  0.00    +0.000 A 
ATOM     14  C   UNL     1      -1.614  15.061  19.939  0.00  0.00    +0.000 A 
ATOM     15  C   UNL     1      -0.391  15.664  20.238  0.00  0.00    +0.000 A 
ATOM     16  C   UNL     1      -0.337  16.796  21.053  0.00  0.00    +0.000 A 
ATOM     17  C   UNL     1      -1.512  17.375  21.509  0.00  0.00    +0.000 A 
ATOM     18  C   UNL     1      -2.729  16.774  21.214  0.00  0.00    +0.000 A 
ENDBRANCH  10  13
BRANCH  11  19
ATOM     19  C   UNL     1      -3.585  13.831  22.866  0.00  0.00    +0.000 A 
ATOM     20  C   UNL     1      -4.236  14.649  23.802  0.00  0.00    +0.000 A 
ATOM     21  C   UNL     1      -3.519  15.290  24.838  0.00  0.00    +0.000 A 
ATOM     22  C   UNL     1      -2.144  15.089  24.995  0.00  0.00    +0.000 A 
ATOM     23  C   UNL     1      -1.507  14.178  24.163  0.00  0.00    +0.000 A 
ATOM     24  C   UNL     1      -2.218  13.558  23.130  0.00  0.00    +0.000 A 
BRANCH  22  25
ATOM     25  C   UNL     1      -1.388  15.839  25.967  0.00  0.00    +0.000 C 
ATOM     26  N   UNL     1      -0.764  16.431  26.740  0.00  0.00    +0.000 NA
ENDBRANCH  22  25
ENDBRANCH  11  19
BRANCH   1  28
ATOM     27  C   UNL     1      -7.243  13.581  17.173  0.00  0.00    +0.000 C 
ATOM     28  O   UNL     1      -7.140  12.780  18.353  0.00  0.00    +0.000 OA
ENDBRANCH   1  28
BRANCH   3  29
ATOM     29  C   UNL     1      -3.215  11.131  16.338  0.00  0.00    +0.000 C 
ATOM     30  N   UNL     1      -2.679  10.941  15.329  0.00  0.00    +0.000 NA
ENDBRANCH   3  29
BRANCH   7  31
ATOM     31  O   UNL     1      -6.207  12.038  21.909  0.00  0.00    +0.000 OA
ATOM     32  H   UNL     1      -6.599  11.392  21.287  0.00  0.00    +0.000 HD
ENDBRANCH   7  31
BRANCH   8  33
ATOM     33  O   UNL     1      -7.672  14.241  20.478  0.00  0.00    +0.000 OA
ATOM     34  H   UNL     1      -7.614  13.568  19.775  0.00  0.00    +0.000 HD
ENDBRANCH   8  33
BRANCH   9  35
ATOM     35  C   UNL     1      -5.924  16.407  19.588  0.00  0.00    +0.000 C 
BRANCH  35  36
ATOM     36  N   UNL     1      -5.912  17.850  19.890  0.00  0.00    +0.000 NA
ATOM     37  C   UNL     1      -5.079  18.630  18.972  0.00  0.00    +0.000 C 
ATOM     38  C   UNL     1      -7.269  18.403  19.900  0.00  0.00    +0.000 C 
ENDBRANCH  35  36
ENDBRANCH   9  35
TORSDOF 9
ENDMDL
