MODEL 1
REMARK VINA RESULT:      -8.1      0.000      0.000
REMARK  Name = 
REMARK  8 active torsions:
REMARK  status: ('A' for Active; 'I' for Inactive)
REMARK    1  A    between atoms: C_1  and  C_2
REMARK    2  A    between atoms: C_2  and  O_4
REMARK    3  A    between atoms: O_4  and  C_5
REMARK    4  A    between atoms: C_5  and  C_6
REMARK    5  A    between atoms: C_6  and  C_8
REMARK    6  A    between atoms: C_9  and  C_10
REMARK    7  A    between atoms: C_22  and  C_23
REMARK    8  A    between atoms: C_29  and  C_30
REMARK                            x       y       z     vdW  Elec       q    Type
REMARK                         _______ _______ _______ _____ _____    ______ ____
ROOT
ATOM      1  C   UNL     1       6.232   5.703  15.758  0.00  0.00    +0.000 C 
ATOM      2  C   UNL     1       6.817   6.974  16.388  0.00  0.00    +0.000 C 
ATOM      3  C   UNL     1       7.525   6.863  17.839  0.00  0.00    +0.000 C 
ATOM      4  C   UNL     1       5.452   7.585  16.639  0.00  0.00    +0.000 C 
ATOM      5  C   UNL     1       5.014   6.343  17.586  0.00  0.00    +0.000 C 
ATOM      6  C   UNL     1       3.568   5.987  17.764  0.00  0.00    +0.000 C 
ATOM      7  C   UNL     1       2.872   6.811  18.901  0.00  0.00    +0.000 C 
ATOM      8  C   UNL     1       1.607   6.024  18.917  0.00  0.00    +0.000 C 
ATOM      9  C   UNL     1       2.104   4.943  19.828  0.00  0.00    +0.000 C 
ATOM     10  C   UNL     1       2.056   5.034  21.158  0.00  0.00    +0.000 C 
ATOM     11  C   UNL     1       1.926   3.648  21.568  0.00  0.00    +0.000 C 
ATOM     12  O   UNL     1       2.591   3.092  22.427  0.00  0.00    +0.000 OA
ATOM     13  C   UNL     1       0.636   3.011  20.726  0.00  0.00    +0.000 C 
ATOM     14  C   UNL     1       0.943   3.288  19.410  0.00  0.00    +0.000 C 
ATOM     15  C   UNL     1       2.385   3.633  19.110  0.00  0.00    +0.000 C 
ATOM     16  C   UNL     1       2.827   2.090  19.461  0.00  0.00    +0.000 C 
ATOM     17  C   UNL     1       3.525   4.276  18.215  0.00  0.00    +0.000 C 
ATOM     18 CL   UNL     1       4.969   4.334  19.698  0.00  0.00    +0.000 Cl
ATOM     19  C   UNL     1       4.128   3.183  17.298  0.00  0.00    +0.000 C 
ATOM     20 CL   UNL     1       3.006   2.205  16.271  0.00  0.00    +0.000 Cl
ATOM     21  C   UNL     1       5.151   3.683  16.379  0.00  0.00    +0.000 C 
ATOM     22  C   UNL     1       5.902   4.887  16.953  0.00  0.00    +0.000 C 
ATOM     23  C   UNL     1       7.157   4.065  17.562  0.00  0.00    +0.000 C 
ENDROOT
BRANCH   1  24
ATOM     24  C   UNL     1       6.778   5.176  14.478  0.00  0.00    +0.000 C 
ATOM     25  O   UNL     1       7.921   5.461  14.139  0.00  0.00    +0.000 OA
BRANCH  24  26
ATOM     26  C   UNL     1       5.837   4.284  13.653  0.00  0.00    +0.000 C 
BRANCH  26  27
ATOM     27  O   UNL     1       6.646   3.675  12.666  0.00  0.00    +0.000 OA
BRANCH  27  29
ATOM     28  C   UNL     1       4.574   3.334  11.707  0.00  0.00    +0.000 C 
ATOM     29  C   UNL     1       5.962   2.821  11.872  0.00  0.00    +0.000 C 
ATOM     30  O   UNL     1       6.401   1.789  11.391  0.00  0.00    +0.000 OA
ENDBRANCH  27  29
ENDBRANCH  26  27
ENDBRANCH  24  26
ENDBRANCH   1  24
TORSDOF 4
ENDMDL
MODEL 2
REMARK VINA RESULT:      -6.8      9.422     12.287
REMARK  Name = 
REMARK  8 active torsions:
REMARK  status: ('A' for Active; 'I' for Inactive)
REMARK    1  A    between atoms: C_1  and  C_2
REMARK    2  A    between atoms: C_2  and  O_4
REMARK    3  A    between atoms: O_4  and  C_5
REMARK    4  A    between atoms: C_5  and  C_6
REMARK    5  A    between atoms: C_6  and  C_8
REMARK    6  A    between atoms: C_9  and  C_10
REMARK    7  A    between atoms: C_22  and  C_23
REMARK    8  A    between atoms: C_29  and  C_30
REMARK                            x       y       z     vdW  Elec       q    Type
REMARK                         _______ _______ _______ _____ _____    ______ ____
ROOT
ATOM      1  C   UNL     1      -0.218  12.206  20.105  0.00  0.00    +0.000 C 
ATOM      2  C   UNL     1      -0.140  12.691  18.652  0.00  0.00    +0.000 C 
ATOM      3  C   UNL     1      -0.416  14.255  18.343  0.00  0.00    +0.000 C 
ATOM      4  C   UNL     1      -1.404  11.959  18.245  0.00  0.00    +0.000 C 
ATOM      5  C   UNL     1      -2.290  12.784  19.325  0.00  0.00    +0.000 C 
ATOM      6  C   UNL     1      -3.557  12.205  19.880  0.00  0.00    +0.000 C 
ATOM      7  C   UNL     1      -4.804  12.488  18.972  0.00  0.00    +0.000 C 
ATOM      8  C   UNL     1      -5.822  11.997  19.944  0.00  0.00    +0.000 C 
ATOM      9  C   UNL     1      -5.933  13.277  20.717  0.00  0.00    +0.000 C 
ATOM     10  C   UNL     1      -6.754  14.269  20.366  0.00  0.00    +0.000 C 
ATOM     11  C   UNL     1      -7.073  14.884  21.641  0.00  0.00    +0.000 C 
ATOM     12  O   UNL     1      -7.028  16.078  21.889  0.00  0.00    +0.000 OA
ATOM     13  C   UNL     1      -7.610  13.668  22.647  0.00  0.00    +0.000 C 
ATOM     14  C   UNL     1      -6.595  12.736  22.595  0.00  0.00    +0.000 C 
ATOM     15  C   UNL     1      -5.259  13.219  22.078  0.00  0.00    +0.000 C 
ATOM     16  C   UNL     1      -5.076  14.152  23.417  0.00  0.00    +0.000 C 
ATOM     17  C   UNL     1      -3.823  12.988  21.444  0.00  0.00    +0.000 C 
ATOM     18 CL   UNL     1      -3.526  14.946  20.840  0.00  0.00    +0.000 Cl
ATOM     19  C   UNL     1      -2.776  12.898  22.582  0.00  0.00    +0.000 C 
ATOM     20 CL   UNL     1      -3.061  11.723  23.925  0.00  0.00    +0.000 Cl
ATOM     21  C   UNL     1      -1.418  12.620  22.112  0.00  0.00    +0.000 C 
ATOM     22  C   UNL     1      -1.171  13.173  20.706  0.00  0.00    +0.000 C 
ATOM     23  C   UNL     1      -0.496  14.573  21.160  0.00  0.00    +0.000 C 
ENDROOT
BRANCH   1  24
ATOM     24  C   UNL     1       0.985  11.649  20.781  0.00  0.00    +0.000 C 
ATOM     25  O   UNL     1       1.819  12.407  21.264  0.00  0.00    +0.000 OA
BRANCH  24  26
ATOM     26  C   UNL     1       1.094  10.117  20.825  0.00  0.00    +0.000 C 
BRANCH  26  27
ATOM     27  O   UNL     1       1.423   9.789  22.160  0.00  0.00    +0.000 OA
BRANCH  27  29
ATOM     28  C   UNL     1      -0.564   8.621  22.037  0.00  0.00    +0.000 C 
ATOM     29  C   UNL     1       0.352   9.421  22.897  0.00  0.00    +0.000 C 
ATOM     30  O   UNL     1       0.154   9.717  24.065  0.00  0.00    +0.000 OA
ENDBRANCH  27  29
ENDBRANCH  26  27
ENDBRANCH  24  26
ENDBRANCH   1  24
TORSDOF 4
ENDMDL
MODEL 3
REMARK VINA RESULT:      -6.5      9.603     12.310
REMARK  Name = 
REMARK  8 active torsions:
REMARK  status: ('A' for Active; 'I' for Inactive)
REMARK    1  A    between atoms: C_1  and  C_2
REMARK    2  A    between atoms: C_2  and  O_4
REMARK    3  A    between atoms: O_4  and  C_5
REMARK    4  A    between atoms: C_5  and  C_6
REMARK    5  A    between atoms: C_6  and  C_8
REMARK    6  A    between atoms: C_9  and  C_10
REMARK    7  A    between atoms: C_22  and  C_23
REMARK    8  A    between atoms: C_29  and  C_30
REMARK                            x       y       z     vdW  Elec       q    Type
REMARK                         _______ _______ _______ _____ _____    ______ ____
ROOT
ATOM      1  C   UNL     1       0.818  12.285  19.936  0.00  0.00    +0.000 C 
ATOM      2  C   UNL     1       0.703  10.762  20.083  0.00  0.00    +0.000 C 
ATOM      3  C   UNL     1      -0.541  10.008  19.376  0.00  0.00    +0.000 C 
ATOM      4  C   UNL     1       0.356  10.840  21.557  0.00  0.00    +0.000 C 
ATOM      5  C   UNL     1      -0.970  11.723  21.250  0.00  0.00    +0.000 C 
ATOM      6  C   UNL     1      -1.536  12.645  22.288  0.00  0.00    +0.000 C 
ATOM      7  C   UNL     1      -2.517  11.922  23.275  0.00  0.00    +0.000 C 
ATOM      8  C   UNL     1      -3.013  13.160  23.941  0.00  0.00    +0.000 C 
ATOM      9  C   UNL     1      -4.067  13.476  22.922  0.00  0.00    +0.000 C 
ATOM     10  C   UNL     1      -5.298  12.964  22.967  0.00  0.00    +0.000 C 
ATOM     11  C   UNL     1      -6.097  14.001  22.339  0.00  0.00    +0.000 C 
ATOM     12  O   UNL     1      -6.920  13.831  21.454  0.00  0.00    +0.000 OA
ATOM     13  C   UNL     1      -5.752  15.426  23.132  0.00  0.00    +0.000 C 
ATOM     14  C   UNL     1      -4.378  15.511  23.058  0.00  0.00    +0.000 C 
ATOM     15  C   UNL     1      -3.701  14.644  22.020  0.00  0.00    +0.000 C 
ATOM     16  C   UNL     1      -4.370  15.550  20.825  0.00  0.00    +0.000 C 
ATOM     17  C   UNL     1      -2.445  13.886  21.415  0.00  0.00    +0.000 C 
ATOM     18 CL   UNL     1      -3.520  12.631  20.168  0.00  0.00    +0.000 Cl
ATOM     19  C   UNL     1      -1.767  14.794  20.359  0.00  0.00    +0.000 C 
ATOM     20 CL   UNL     1      -1.310  16.477  20.836  0.00  0.00    +0.000 Cl
ATOM     21  C   UNL     1      -0.553  14.217  19.779  0.00  0.00    +0.000 C 
ATOM     22  C   UNL     1      -0.599  12.687  19.752  0.00  0.00    +0.000 C 
ATOM     23  C   UNL     1      -1.140  12.534  18.233  0.00  0.00    +0.000 C 
ENDROOT
BRANCH   1  24
ATOM     24  C   UNL     1       1.983  12.890  19.237  0.00  0.00    +0.000 C 
ATOM     25  O   UNL     1       2.151  12.685  18.040  0.00  0.00    +0.000 OA
BRANCH  24  26
ATOM     26  C   UNL     1       2.918  13.756  20.096  0.00  0.00    +0.000 C 
BRANCH  26  27
ATOM     27  O   UNL     1       2.407  13.692  21.412  0.00  0.00    +0.000 OA
BRANCH  27  29
ATOM     28  C   UNL     1       3.138  15.882  21.436  0.00  0.00    +0.000 C 
ATOM     29  C   UNL     1       2.127  14.908  21.932  0.00  0.00    +0.000 C 
ATOM     30  O   UNL     1       1.212  15.161  22.700  0.00  0.00    +0.000 OA
ENDBRANCH  27  29
ENDBRANCH  26  27
ENDBRANCH  24  26
ENDBRANCH   1  24
TORSDOF 4
ENDMDL
MODEL 4
REMARK VINA RESULT:      -6.5      9.560     11.506
REMARK  Name = 
REMARK  8 active torsions:
REMARK  status: ('A' for Active; 'I' for Inactive)
REMARK    1  A    between atoms: C_1  and  C_2
REMARK    2  A    between atoms: C_2  and  O_4
REMARK    3  A    between atoms: O_4  and  C_5
REMARK    4  A    between atoms: C_5  and  C_6
REMARK    5  A    between atoms: C_6  and  C_8
REMARK    6  A    between atoms: C_9  and  C_10
REMARK    7  A    between atoms: C_22  and  C_23
REMARK    8  A    between atoms: C_29  and  C_30
REMARK                            x       y       z     vdW  Elec       q    Type
REMARK                         _______ _______ _______ _____ _____    ______ ____
ROOT
ATOM      1  C   UNL     1       9.609  16.044  19.821  0.00  0.00    +0.000 C 
ATOM      2  C   UNL     1       9.055  17.462  20.011  0.00  0.00    +0.000 C 
ATOM      3  C   UNL     1       9.254  18.185  21.444  0.00  0.00    +0.000 C 
ATOM      4  C   UNL     1       7.611  17.000  19.977  0.00  0.00    +0.000 C 
ATOM      5  C   UNL     1       7.835  16.042  21.267  0.00  0.00    +0.000 C 
ATOM      6  C   UNL     1       6.969  14.838  21.488  0.00  0.00    +0.000 C 
ATOM      7  C   UNL     1       5.639  15.175  22.247  0.00  0.00    +0.000 C 
ATOM      8  C   UNL     1       5.220  13.762  22.469  0.00  0.00    +0.000 C 
ATOM      9  C   UNL     1       6.028  13.552  23.715  0.00  0.00    +0.000 C 
ATOM     10  C   UNL     1       5.584  13.869  24.932  0.00  0.00    +0.000 C 
ATOM     11  C   UNL     1       6.265  12.907  25.780  0.00  0.00    +0.000 C 
ATOM     12  O   UNL     1       6.873  13.165  26.806  0.00  0.00    +0.000 OA
ATOM     13  C   UNL     1       5.959  11.397  25.144  0.00  0.00    +0.000 C 
ATOM     14  C   UNL     1       6.353  11.517  23.828  0.00  0.00    +0.000 C 
ATOM     15  C   UNL     1       7.256  12.683  23.495  0.00  0.00    +0.000 C 
ATOM     16  C   UNL     1       8.466  11.995  24.367  0.00  0.00    +0.000 C 
ATOM     17  C   UNL     1       7.909  13.721  22.488  0.00  0.00    +0.000 C 
ATOM     18 CL   UNL     1       8.525  15.074  23.929  0.00  0.00    +0.000 Cl
ATOM     19  C   UNL     1       9.284  13.181  22.025  0.00  0.00    +0.000 C 
ATOM     20 CL   UNL     1       9.367  11.511  21.338  0.00  0.00    +0.000 Cl
ATOM     21  C   UNL     1       9.949  14.034  21.038  0.00  0.00    +0.000 C 
ATOM     22  C   UNL     1       9.573  15.509  21.205  0.00  0.00    +0.000 C 
ATOM     23  C   UNL     1      10.845  15.934  22.114  0.00  0.00    +0.000 C 
ENDROOT
BRANCH   1  24
ATOM     24  C   UNL     1      10.678  15.779  18.822  0.00  0.00    +0.000 C 
ATOM     25  O   UNL     1      11.791  16.269  18.975  0.00  0.00    +0.000 OA
BRANCH  24  26
ATOM     26  C   UNL     1      10.294  14.880  17.636  0.00  0.00    +0.000 C 
BRANCH  26  27
ATOM     27  O   UNL     1      10.981  13.660  17.834  0.00  0.00    +0.000 OA
BRANCH  27  29
ATOM     28  C   UNL     1       8.772  12.991  17.787  0.00  0.00    +0.000 C 
ATOM     29  C   UNL     1      10.196  12.574  17.658  0.00  0.00    +0.000 C 
ATOM     30  O   UNL     1      10.589  11.437  17.452  0.00  0.00    +0.000 OA
ENDBRANCH  27  29
ENDBRANCH  26  27
ENDBRANCH  24  26
ENDBRANCH   1  24
TORSDOF 4
ENDMDL
MODEL 5
REMARK VINA RESULT:      -6.5      9.420     12.112
REMARK  Name = 
REMARK  8 active torsions:
REMARK  status: ('A' for Active; 'I' for Inactive)
REMARK    1  A    between atoms: C_1  and  C_2
REMARK    2  A    between atoms: C_2  and  O_4
REMARK    3  A    between atoms: O_4  and  C_5
REMARK    4  A    between atoms: C_5  and  C_6
REMARK    5  A    between atoms: C_6  and  C_8
REMARK    6  A    between atoms: C_9  and  C_10
REMARK    7  A    between atoms: C_22  and  C_23
REMARK    8  A    between atoms: C_29  and  C_30
REMARK                            x       y       z     vdW  Elec       q    Type
REMARK                         _______ _______ _______ _____ _____    ______ ____
ROOT
ATOM      1  C   UNL     1      -0.806  11.420  20.411  0.00  0.00    +0.000 C 
ATOM      2  C   UNL     1      -0.635  11.703  18.913  0.00  0.00    +0.000 C 
ATOM      3  C   UNL     1      -0.577  13.242  18.418  0.00  0.00    +0.000 C 
ATOM      4  C   UNL     1      -2.027  11.209  18.570  0.00  0.00    +0.000 C 
ATOM      5  C   UNL     1      -2.714  12.324  19.528  0.00  0.00    +0.000 C 
ATOM      6  C   UNL     1      -4.071  12.094  20.121  0.00  0.00    +0.000 C 
ATOM      7  C   UNL     1      -5.236  12.522  19.162  0.00  0.00    +0.000 C 
ATOM      8  C   UNL     1      -6.329  12.375  20.164  0.00  0.00    +0.000 C 
ATOM      9  C   UNL     1      -6.164  13.732  20.780  0.00  0.00    +0.000 C 
ATOM     10  C   UNL     1      -6.759  14.825  20.299  0.00  0.00    +0.000 C 
ATOM     11  C   UNL     1      -6.934  15.640  21.488  0.00  0.00    +0.000 C 
ATOM     12  O   UNL     1      -6.638  16.819  21.595  0.00  0.00    +0.000 OA
ATOM     13  C   UNL     1      -7.711  14.692  22.617  0.00  0.00    +0.000 C 
ATOM     14  C   UNL     1      -6.915  13.568  22.695  0.00  0.00    +0.000 C 
ATOM     15  C   UNL     1      -5.510  13.695  22.151  0.00  0.00    +0.000 C 
ATOM     16  C   UNL     1      -5.128  14.720  23.376  0.00  0.00    +0.000 C 
ATOM     17  C   UNL     1      -4.158  13.094  21.578  0.00  0.00    +0.000 C 
ATOM     18 CL   UNL     1      -3.458  14.861  20.755  0.00  0.00    +0.000 Cl
ATOM     19  C   UNL     1      -3.148  12.922  22.739  0.00  0.00    +0.000 C 
ATOM     20 CL   UNL     1      -3.667  12.000  24.204  0.00  0.00    +0.000 Cl
ATOM     21  C   UNL     1      -1.881  12.311  22.332  0.00  0.00    +0.000 C 
ATOM     22  C   UNL     1      -1.531  12.630  20.875  0.00  0.00    +0.000 C 
ATOM     23  C   UNL     1      -0.574  13.901  21.177  0.00  0.00    +0.000 C 
ENDROOT
BRANCH   1  24
ATOM     24  C   UNL     1       0.256  10.707  21.171  0.00  0.00    +0.000 C 
ATOM     25  O   UNL     1       1.224  11.328  21.595  0.00  0.00    +0.000 OA
BRANCH  24  26
ATOM     26  C   UNL     1       0.052   9.198  21.375  0.00  0.00    +0.000 C 
BRANCH  26  27
ATOM     27  O   UNL     1       1.347   8.641  21.485  0.00  0.00    +0.000 OA
BRANCH  27  29
ATOM     28  C   UNL     1       1.901   8.285  19.272  0.00  0.00    +0.000 C 
ATOM     29  C   UNL     1       1.581   7.660  20.586  0.00  0.00    +0.000 C 
ATOM     30  O   UNL     1       1.517   6.461  20.807  0.00  0.00    +0.000 OA
ENDBRANCH  27  29
ENDBRANCH  26  27
ENDBRANCH  24  26
ENDBRANCH   1  24
TORSDOF 4
ENDMDL
MODEL 6
REMARK VINA RESULT:      -6.4     10.028     12.455
REMARK  Name = 
REMARK  8 active torsions:
REMARK  status: ('A' for Active; 'I' for Inactive)
REMARK    1  A    between atoms: C_1  and  C_2
REMARK    2  A    between atoms: C_2  and  O_4
REMARK    3  A    between atoms: O_4  and  C_5
REMARK    4  A    between atoms: C_5  and  C_6
REMARK    5  A    between atoms: C_6  and  C_8
REMARK    6  A    between atoms: C_9  and  C_10
REMARK    7  A    between atoms: C_22  and  C_23
REMARK    8  A    between atoms: C_29  and  C_30
REMARK                            x       y       z     vdW  Elec       q    Type
REMARK                         _______ _______ _______ _____ _____    ______ ____
ROOT
ATOM      1  C   UNL     1      -1.205  12.249  18.850  0.00  0.00    +0.000 C 
ATOM      2  C   UNL     1       0.218  12.749  18.573  0.00  0.00    +0.000 C 
ATOM      3  C   UNL     1       1.330  12.604  19.739  0.00  0.00    +0.000 C 
ATOM      4  C   UNL     1      -0.197  14.207  18.575  0.00  0.00    +0.000 C 
ATOM      5  C   UNL     1      -0.733  14.105  20.103  0.00  0.00    +0.000 C 
ATOM      6  C   UNL     1      -1.794  15.036  20.607  0.00  0.00    +0.000 C 
ATOM      7  C   UNL     1      -1.214  16.393  21.136  0.00  0.00    +0.000 C 
ATOM      8  C   UNL     1      -2.486  16.888  21.735  0.00  0.00    +0.000 C 
ATOM      9  C   UNL     1      -2.336  16.167  23.041  0.00  0.00    +0.000 C 
ATOM     10  C   UNL     1      -1.660  16.669  24.076  0.00  0.00    +0.000 C 
ATOM     11  C   UNL     1      -2.343  16.085  25.216  0.00  0.00    +0.000 C 
ATOM     12  O   UNL     1      -1.807  15.529  26.161  0.00  0.00    +0.000 OA
ATOM     13  C   UNL     1      -3.966  16.419  25.034  0.00  0.00    +0.000 C 
ATOM     14  C   UNL     1      -4.253  15.942  23.772  0.00  0.00    +0.000 C 
ATOM     15  C   UNL     1      -3.262  14.968  23.175  0.00  0.00    +0.000 C 
ATOM     16  C   UNL     1      -3.689  13.845  24.295  0.00  0.00    +0.000 C 
ATOM     17  C   UNL     1      -2.586  14.210  21.956  0.00  0.00    +0.000 C 
ATOM     18 CL   UNL     1      -0.882  13.622  22.974  0.00  0.00    +0.000 Cl
ATOM     19  C   UNL     1      -3.274  12.835  21.771  0.00  0.00    +0.000 C 
ATOM     20 CL   UNL     1      -5.075  12.786  21.616  0.00  0.00    +0.000 Cl
ATOM     21  C   UNL     1      -2.771  12.074  20.627  0.00  0.00    +0.000 C 
ATOM     22  C   UNL     1      -1.304  12.392  20.324  0.00  0.00    +0.000 C 
ATOM     23  C   UNL     1      -0.660  11.160  21.154  0.00  0.00    +0.000 C 
ENDROOT
BRANCH   1  24
ATOM     24  C   UNL     1      -1.783  11.135  18.052  0.00  0.00    +0.000 C 
ATOM     25  O   UNL     1      -1.250  10.031  18.071  0.00  0.00    +0.000 OA
BRANCH  24  26
ATOM     26  C   UNL     1      -3.046  11.461  17.239  0.00  0.00    +0.000 C 
BRANCH  26  27
ATOM     27  O   UNL     1      -4.001  10.482  17.595  0.00  0.00    +0.000 OA
BRANCH  27  29
ATOM     28  C   UNL     1      -5.455  12.211  17.117  0.00  0.00    +0.000 C 
ATOM     29  C   UNL     1      -5.192  11.010  17.957  0.00  0.00    +0.000 C 
ATOM     30  O   UNL     1      -5.919  10.586  18.842  0.00  0.00    +0.000 OA
ENDBRANCH  27  29
ENDBRANCH  26  27
ENDBRANCH  24  26
ENDBRANCH   1  24
TORSDOF 4
ENDMDL
MODEL 7
REMARK VINA RESULT:      -6.4     10.019     12.119
REMARK  Name = 
REMARK  8 active torsions:
REMARK  status: ('A' for Active; 'I' for Inactive)
REMARK    1  A    between atoms: C_1  and  C_2
REMARK    2  A    between atoms: C_2  and  O_4
REMARK    3  A    between atoms: O_4  and  C_5
REMARK    4  A    between atoms: C_5  and  C_6
REMARK    5  A    between atoms: C_6  and  C_8
REMARK    6  A    between atoms: C_9  and  C_10
REMARK    7  A    between atoms: C_22  and  C_23
REMARK    8  A    between atoms: C_29  and  C_30
REMARK                            x       y       z     vdW  Elec       q    Type
REMARK                         _______ _______ _______ _____ _____    ______ ____
ROOT
ATOM      1  C   UNL     1      -0.712  12.359  19.163  0.00  0.00    +0.000 C 
ATOM      2  C   UNL     1       0.634  13.026  18.851  0.00  0.00    +0.000 C 
ATOM      3  C   UNL     1       1.728  13.153  20.037  0.00  0.00    +0.000 C 
ATOM      4  C   UNL     1       0.019  14.405  18.706  0.00  0.00    +0.000 C 
ATOM      5  C   UNL     1      -0.532  14.375  20.232  0.00  0.00    +0.000 C 
ATOM      6  C   UNL     1      -1.725  15.191  20.632  0.00  0.00    +0.000 C 
ATOM      7  C   UNL     1      -1.351  16.661  21.031  0.00  0.00    +0.000 C 
ATOM      8  C   UNL     1      -2.693  17.026  21.566  0.00  0.00    +0.000 C 
ATOM      9  C   UNL     1      -2.475  16.462  22.938  0.00  0.00    +0.000 C 
ATOM     10  C   UNL     1      -1.899  17.152  23.924  0.00  0.00    +0.000 C 
ATOM     11  C   UNL     1      -2.520  16.589  25.110  0.00  0.00    +0.000 C 
ATOM     12  O   UNL     1      -1.933  16.208  26.110  0.00  0.00    +0.000 OA
ATOM     13  C   UNL     1      -4.169  16.672  24.881  0.00  0.00    +0.000 C 
ATOM     14  C   UNL     1      -4.357  16.040  23.670  0.00  0.00    +0.000 C 
ATOM     15  C   UNL     1      -3.226  15.163  23.181  0.00  0.00    +0.000 C 
ATOM     16  C   UNL     1      -3.518  14.104  24.402  0.00  0.00    +0.000 C 
ATOM     17  C   UNL     1      -2.424  14.394  22.049  0.00  0.00    +0.000 C 
ATOM     18 CL   UNL     1      -0.678  14.154  23.135  0.00  0.00    +0.000 Cl
ATOM     19  C   UNL     1      -2.909  12.925  21.994  0.00  0.00    +0.000 C 
ATOM     20 CL   UNL     1      -4.681  12.607  21.827  0.00  0.00    +0.000 Cl
ATOM     21  C   UNL     1      -2.277  12.136  20.935  0.00  0.00    +0.000 C 
ATOM     22  C   UNL     1      -0.863  12.628  20.615  0.00  0.00    +0.000 C 
ATOM     23  C   UNL     1      -0.072  11.585  21.569  0.00  0.00    +0.000 C 
ENDROOT
BRANCH   1  24
ATOM     24  C   UNL     1      -1.109  11.103  18.473  0.00  0.00    +0.000 C 
ATOM     25  O   UNL     1      -0.462  10.077  18.653  0.00  0.00    +0.000 OA
BRANCH  24  26
ATOM     26  C   UNL     1      -2.342  11.188  17.560  0.00  0.00    +0.000 C 
BRANCH  26  27
ATOM     27  O   UNL     1      -2.065  10.352  16.454  0.00  0.00    +0.000 OA
BRANCH  27  29
ATOM     28  C   UNL     1      -4.209  11.093  16.024  0.00  0.00    +0.000 C 
ATOM     29  C   UNL     1      -2.984  10.453  15.468  0.00  0.00    +0.000 C 
ATOM     30  O   UNL     1      -2.844  10.063  14.320  0.00  0.00    +0.000 OA
ENDBRANCH  27  29
ENDBRANCH  26  27
ENDBRANCH  24  26
ENDBRANCH   1  24
TORSDOF 4
ENDMDL
MODEL 8
REMARK VINA RESULT:      -6.4      9.550     12.028
REMARK  Name = 
REMARK  8 active torsions:
REMARK  status: ('A' for Active; 'I' for Inactive)
REMARK    1  A    between atoms: C_1  and  C_2
REMARK    2  A    between atoms: C_2  and  O_4
REMARK    3  A    between atoms: O_4  and  C_5
REMARK    4  A    between atoms: C_5  and  C_6
REMARK    5  A    between atoms: C_6  and  C_8
REMARK    6  A    between atoms: C_9  and  C_10
REMARK    7  A    between atoms: C_22  and  C_23
REMARK    8  A    between atoms: C_29  and  C_30
REMARK                            x       y       z     vdW  Elec       q    Type
REMARK                         _______ _______ _______ _____ _____    ______ ____
ROOT
ATOM      1  C   UNL     1      -1.194  11.092  20.045  0.00  0.00    +0.000 C 
ATOM      2  C   UNL     1      -1.139  11.431  18.549  0.00  0.00    +0.000 C 
ATOM      3  C   UNL     1      -0.824  12.956  18.113  0.00  0.00    +0.000 C 
ATOM      4  C   UNL     1      -2.632  11.246  18.361  0.00  0.00    +0.000 C 
ATOM      5  C   UNL     1      -2.964  12.411  19.441  0.00  0.00    +0.000 C 
ATOM      6  C   UNL     1      -4.264  12.417  20.188  0.00  0.00    +0.000 C 
ATOM      7  C   UNL     1      -5.416  13.129  19.398  0.00  0.00    +0.000 C 
ATOM      8  C   UNL     1      -6.397  13.136  20.521  0.00  0.00    +0.000 C 
ATOM      9  C   UNL     1      -5.889  14.392  21.165  0.00  0.00    +0.000 C 
ATOM     10  C   UNL     1      -6.298  15.610  20.806  0.00  0.00    +0.000 C 
ATOM     11  C   UNL     1      -6.168  16.365  22.039  0.00  0.00    +0.000 C 
ATOM     12  O   UNL     1      -5.626  17.452  22.156  0.00  0.00    +0.000 OA
ATOM     13  C   UNL     1      -6.989  15.519  23.217  0.00  0.00    +0.000 C 
ATOM     14  C   UNL     1      -6.437  14.257  23.150  0.00  0.00    +0.000 C 
ATOM     15  C   UNL     1      -5.105  14.138  22.443  0.00  0.00    +0.000 C 
ATOM     16  C   UNL     1      -4.386  14.986  23.651  0.00  0.00    +0.000 C 
ATOM     17  C   UNL     1      -3.978  13.319  21.683  0.00  0.00    +0.000 C 
ATOM     18 CL   UNL     1      -3.030  14.961  20.852  0.00  0.00    +0.000 Cl
ATOM     19  C   UNL     1      -2.900  12.876  22.702  0.00  0.00    +0.000 C 
ATOM     20 CL   UNL     1      -3.429  11.982  24.183  0.00  0.00    +0.000 Cl
ATOM     21  C   UNL     1      -1.840  12.053  22.117  0.00  0.00    +0.000 C 
ATOM     22  C   UNL     1      -1.598  12.389  20.643  0.00  0.00    +0.000 C 
ATOM     23  C   UNL     1      -0.374  13.423  20.875  0.00  0.00    +0.000 C 
ENDROOT
BRANCH   1  24
ATOM     24  C   UNL     1      -0.221  10.135  20.638  0.00  0.00    +0.000 C 
ATOM     25  O   UNL     1      -0.570   9.399  21.554  0.00  0.00    +0.000 OA
BRANCH  24  26
ATOM     26  C   UNL     1       1.194  10.141  20.037  0.00  0.00    +0.000 C 
BRANCH  26  27
ATOM     27  O   UNL     1       1.405   8.840  19.528  0.00  0.00    +0.000 OA
BRANCH  27  29
ATOM     28  C   UNL     1       2.597   7.512  18.063  0.00  0.00    +0.000 C 
ATOM     29  C   UNL     1       1.954   8.835  18.293  0.00  0.00    +0.000 C 
ATOM     30  O   UNL     1       1.946   9.769  17.506  0.00  0.00    +0.000 OA
ENDBRANCH  27  29
ENDBRANCH  26  27
ENDBRANCH  24  26
ENDBRANCH   1  24
TORSDOF 4
ENDMDL
MODEL 9
REMARK VINA RESULT:      -6.4      9.474     12.037
REMARK  Name = 
REMARK  8 active torsions:
REMARK  status: ('A' for Active; 'I' for Inactive)
REMARK    1  A    between atoms: C_1  and  C_2
REMARK    2  A    between atoms: C_2  and  O_4
REMARK    3  A    between atoms: O_4  and  C_5
REMARK    4  A    between atoms: C_5  and  C_6
REMARK    5  A    between atoms: C_6  and  C_8
REMARK    6  A    between atoms: C_9  and  C_10
REMARK    7  A    between atoms: C_22  and  C_23
REMARK    8  A    between atoms: C_29  and  C_30
REMARK                            x       y       z     vdW  Elec       q    Type
REMARK                         _______ _______ _______ _____ _____    ______ ____
ROOT
ATOM      1  C   UNL     1      -0.390  12.063  20.358  0.00  0.00    +0.000 C 
ATOM      2  C   UNL     1      -0.246  12.430  18.876  0.00  0.00    +0.000 C 
ATOM      3  C   UNL     1      -0.471  13.970  18.435  0.00  0.00    +0.000 C 
ATOM      4  C   UNL     1      -1.513  11.697  18.479  0.00  0.00    +0.000 C 
ATOM      5  C   UNL     1      -2.417  12.625  19.455  0.00  0.00    +0.000 C 
ATOM      6  C   UNL     1      -3.718  12.121  20.004  0.00  0.00    +0.000 C 
ATOM      7  C   UNL     1      -4.923  12.359  19.030  0.00  0.00    +0.000 C 
ATOM      8  C   UNL     1      -5.988  11.970  19.997  0.00  0.00    +0.000 C 
ATOM      9  C   UNL     1      -6.095  13.309  20.662  0.00  0.00    +0.000 C 
ATOM     10  C   UNL     1      -6.877  14.288  20.203  0.00  0.00    +0.000 C 
ATOM     11  C   UNL     1      -7.226  15.010  21.413  0.00  0.00    +0.000 C 
ATOM     12  O   UNL     1      -7.160  16.218  21.568  0.00  0.00    +0.000 OA
ATOM     13  C   UNL     1      -7.831  13.890  22.489  0.00  0.00    +0.000 C 
ATOM     14  C   UNL     1      -6.839  12.934  22.550  0.00  0.00    +0.000 C 
ATOM     15  C   UNL     1      -5.473  13.344  22.048  0.00  0.00    +0.000 C 
ATOM     16  C   UNL     1      -5.316  14.375  23.317  0.00  0.00    +0.000 C 
ATOM     17  C   UNL     1      -4.021  13.031  21.491  0.00  0.00    +0.000 C 
ATOM     18 CL   UNL     1      -3.652  14.928  20.748  0.00  0.00    +0.000 Cl
ATOM     19  C   UNL     1      -3.019  13.008  22.672  0.00  0.00    +0.000 C 
ATOM     20 CL   UNL     1      -3.384  11.949  24.091  0.00  0.00    +0.000 Cl
ATOM     21  C   UNL     1      -1.652  12.662  22.278  0.00  0.00    +0.000 C 
ATOM     22  C   UNL     1      -1.340  13.096  20.844  0.00  0.00    +0.000 C 
ATOM     23  C   UNL     1      -0.647  14.512  21.213  0.00  0.00    +0.000 C 
ENDROOT
BRANCH   1  24
ATOM     24  C   UNL     1       0.772  11.535  21.121  0.00  0.00    +0.000 C 
ATOM     25  O   UNL     1       1.727  12.265  21.362  0.00  0.00    +0.000 OA
BRANCH  24  26
ATOM     26  C   UNL     1       0.684  10.066  21.567  0.00  0.00    +0.000 C 
BRANCH  26  27
ATOM     27  O   UNL     1       0.205   9.349  20.447  0.00  0.00    +0.000 OA
BRANCH  27  29
ATOM     28  C   UNL     1       1.839   7.722  20.350  0.00  0.00    +0.000 C 
ATOM     29  C   UNL     1       1.193   8.872  19.659  0.00  0.00    +0.000 C 
ATOM     30  O   UNL     1       1.519   9.324  18.573  0.00  0.00    +0.000 OA
ENDBRANCH  27  29
ENDBRANCH  26  27
ENDBRANCH  24  26
ENDBRANCH   1  24
TORSDOF 4
ENDMDL
