MODEL 1
REMARK VINA RESULT:      -7.0      0.000      0.000
REMARK  Name = 
REMARK  11 active torsions:
REMARK  status: ('A' for Active; 'I' for Inactive)
REMARK    1  A    between atoms: C_1  and  N_2
REMARK    2  A    between atoms: N_2  and  C_3
REMARK    3  A    between atoms: N_2  and  C_4
REMARK    4  A    between atoms: C_4  and  C_5
REMARK    5  A    between atoms: C_5  and  N_6
REMARK    6  A    between atoms: C_5  and  C_17
REMARK    7  A    between atoms: C_7  and  O_9
REMARK    8  A    between atoms: O_9  and  C_10
REMARK    9  A    between atoms: C_10  and  C_11
REMARK   10  A    between atoms: N_19  and  C_20
REMARK   11  A    between atoms: C_20  and  C_21
REMARK                            x       y       z     vdW  Elec       q    Type
REMARK                         _______ _______ _______ _____ _____    ______ ____
ROOT
ATOM      1  C   UNL     1       6.325   4.922  15.937  0.00  0.00    +0.000 C 
ENDROOT
BRANCH   1   2
ATOM      2  N   UNL     1       5.165   4.038  16.098  0.00  0.00    +0.000 N 
ATOM      3  C   UNL     1       4.474   3.860  17.258  0.00  0.00    +0.000 C 
ATOM      4  O   UNL     1       4.196   2.748  17.683  0.00  0.00    +0.000 OA
ATOM      5  H   UNL     1       4.845   3.498  15.301  0.00  0.00    +0.000 HD
BRANCH   3   6
ATOM      6  O   UNL     1       4.105   5.036  17.817  0.00  0.00    +0.000 OA
BRANCH   6   7
ATOM      7  C   UNL     1       2.687   5.253  17.918  0.00  0.00    +0.000 C 
BRANCH   7   8
ATOM      8  C   UNL     1       2.174   4.425  19.066  0.00  0.00    +0.000 A 
ATOM      9  C   UNL     1       1.159   3.473  18.898  0.00  0.00    +0.000 A 
ATOM     10  C   UNL     1       0.658   2.778  20.002  0.00  0.00    +0.000 A 
ATOM     11  C   UNL     1       1.168   3.027  21.277  0.00  0.00    +0.000 A 
ATOM     12  C   UNL     1       2.194   3.952  21.447  0.00  0.00    +0.000 A 
ATOM     13  C   UNL     1       2.695   4.648  20.348  0.00  0.00    +0.000 A 
ENDBRANCH   7   8
ENDBRANCH   6   7
ENDBRANCH   3   6
ENDBRANCH   1   2
BRANCH   1  14
ATOM     14  C   UNL     1       6.805   4.782  14.457  0.00  0.00    +0.000 C 
ATOM     15  O   UNL     1       7.749   5.459  14.033  0.00  0.00    +0.000 OA
ATOM     16  N   UNL     1       6.216   3.831  13.660  0.00  0.00    +0.000 N 
ATOM     17  H   UNL     1       5.514   3.209  14.076  0.00  0.00    +0.000 HD
BRANCH  16  18
ATOM     18  C   UNL     1       6.695   3.587  12.300  0.00  0.00    +0.000 C 
BRANCH  18  19
ATOM     19  C   UNL     1       6.179   2.312  11.690  0.00  0.00    +0.000 C 
ATOM     20  N   UNL     1       5.798   1.342  11.205  0.00  0.00    +0.000 NA
ENDBRANCH  18  19
ENDBRANCH  16  18
ENDBRANCH   1  14
BRANCH   1  21
ATOM     21  C   UNL     1       7.417   4.610  17.003  0.00  0.00    +0.000 C 
BRANCH  21  23
ATOM     22  C   UNL     1       7.351   7.035  17.354  0.00  0.00    +0.000 C 
ATOM     23  N   UNL     1       7.801   5.744  17.888  0.00  0.00    +0.000 NA
ATOM     24  C   UNL     1       7.215   5.558  19.225  0.00  0.00    +0.000 C 
ENDBRANCH  21  23
ENDBRANCH   1  21
TORSDOF 9
ENDMDL
MODEL 2
REMARK VINA RESULT:      -7.0      0.966      1.570
REMARK  Name = 
REMARK  11 active torsions:
REMARK  status: ('A' for Active; 'I' for Inactive)
REMARK    1  A    between atoms: C_1  and  N_2
REMARK    2  A    between atoms: N_2  and  C_3
REMARK    3  A    between atoms: N_2  and  C_4
REMARK    4  A    between atoms: C_4  and  C_5
REMARK    5  A    between atoms: C_5  and  N_6
REMARK    6  A    between atoms: C_5  and  C_17
REMARK    7  A    between atoms: C_7  and  O_9
REMARK    8  A    between atoms: O_9  and  C_10
REMARK    9  A    between atoms: C_10  and  C_11
REMARK   10  A    between atoms: N_19  and  C_20
REMARK   11  A    between atoms: C_20  and  C_21
REMARK                            x       y       z     vdW  Elec       q    Type
REMARK                         _______ _______ _______ _____ _____    ______ ____
ROOT
ATOM      1  C   UNL     1       6.377   5.256  15.974  0.00  0.00    +0.000 C 
ENDROOT
BRANCH   1   2
ATOM      2  N   UNL     1       5.974   4.031  16.675  0.00  0.00    +0.000 N 
ATOM      3  C   UNL     1       4.944   3.942  17.562  0.00  0.00    +0.000 C 
ATOM      4  O   UNL     1       5.072   3.401  18.651  0.00  0.00    +0.000 OA
ATOM      5  H   UNL     1       6.497   3.177  16.511  0.00  0.00    +0.000 HD
BRANCH   3   6
ATOM      6  O   UNL     1       3.797   4.463  17.067  0.00  0.00    +0.000 OA
BRANCH   6   7
ATOM      7  C   UNL     1       3.132   5.411  17.919  0.00  0.00    +0.000 C 
BRANCH   7   8
ATOM      8  C   UNL     1       2.360   4.638  18.955  0.00  0.00    +0.000 A 
ATOM      9  C   UNL     1       2.560   4.833  20.328  0.00  0.00    +0.000 A 
ATOM     10  C   UNL     1       1.878   4.044  21.257  0.00  0.00    +0.000 A 
ATOM     11  C   UNL     1       0.992   3.057  20.822  0.00  0.00    +0.000 A 
ATOM     12  C   UNL     1       0.768   2.876  19.460  0.00  0.00    +0.000 A 
ATOM     13  C   UNL     1       1.448   3.661  18.531  0.00  0.00    +0.000 A 
ENDBRANCH   7   8
ENDBRANCH   6   7
ENDBRANCH   3   6
ENDBRANCH   1   2
BRANCH   1  14
ATOM     14  C   UNL     1       6.646   4.864  14.486  0.00  0.00    +0.000 C 
ATOM     15  O   UNL     1       7.622   5.321  13.881  0.00  0.00    +0.000 OA
ATOM     16  N   UNL     1       5.827   3.937  13.890  0.00  0.00    +0.000 N 
ATOM     17  H   UNL     1       5.096   3.493  14.456  0.00  0.00    +0.000 HD
BRANCH  16  18
ATOM     18  C   UNL     1       6.095   3.457  12.535  0.00  0.00    +0.000 C 
BRANCH  18  19
ATOM     19  C   UNL     1       4.856   3.204  11.720  0.00  0.00    +0.000 C 
ATOM     20  N   UNL     1       3.915   3.028  11.084  0.00  0.00    +0.000 NA
ENDBRANCH  18  19
ENDBRANCH  16  18
ENDBRANCH   1  14
BRANCH   1  21
ATOM     21  C   UNL     1       7.580   5.939  16.691  0.00  0.00    +0.000 C 
BRANCH  21  23
ATOM     22  C   UNL     1       7.786   6.046  19.131  0.00  0.00    +0.000 C 
ATOM     23  N   UNL     1       7.252   6.697  17.928  0.00  0.00    +0.000 NA
ATOM     24  C   UNL     1       7.805   8.058  17.845  0.00  0.00    +0.000 C 
ENDBRANCH  21  23
ENDBRANCH   1  21
TORSDOF 9
ENDMDL
MODEL 3
REMARK VINA RESULT:      -6.8      1.782      2.576
REMARK  Name = 
REMARK  11 active torsions:
REMARK  status: ('A' for Active; 'I' for Inactive)
REMARK    1  A    between atoms: C_1  and  N_2
REMARK    2  A    between atoms: N_2  and  C_3
REMARK    3  A    between atoms: N_2  and  C_4
REMARK    4  A    between atoms: C_4  and  C_5
REMARK    5  A    between atoms: C_5  and  N_6
REMARK    6  A    between atoms: C_5  and  C_17
REMARK    7  A    between atoms: C_7  and  O_9
REMARK    8  A    between atoms: O_9  and  C_10
REMARK    9  A    between atoms: C_10  and  C_11
REMARK   10  A    between atoms: N_19  and  C_20
REMARK   11  A    between atoms: C_20  and  C_21
REMARK                            x       y       z     vdW  Elec       q    Type
REMARK                         _______ _______ _______ _____ _____    ______ ____
ROOT
ATOM      1  C   UNL     1       6.290   4.779  16.271  0.00  0.00    +0.000 C 
ENDROOT
BRANCH   1   2
ATOM      2  N   UNL     1       5.268   3.797  16.653  0.00  0.00    +0.000 N 
ATOM      3  C   UNL     1       4.538   3.836  17.802  0.00  0.00    +0.000 C 
ATOM      4  O   UNL     1       4.404   2.855  18.518  0.00  0.00    +0.000 OA
ATOM      5  H   UNL     1       5.086   3.013  16.035  0.00  0.00    +0.000 HD
BRANCH   3   6
ATOM      6  O   UNL     1       3.961   5.044  17.998  0.00  0.00    +0.000 OA
BRANCH   6   7
ATOM      7  C   UNL     1       2.710   5.022  18.708  0.00  0.00    +0.000 C 
BRANCH   7   8
ATOM      8  C   UNL     1       2.332   6.445  19.023  0.00  0.00    +0.000 A 
ATOM      9  C   UNL     1       1.906   6.834  20.300  0.00  0.00    +0.000 A 
ATOM     10  C   UNL     1       1.493   8.149  20.533  0.00  0.00    +0.000 A 
ATOM     11  C   UNL     1       1.505   9.081  19.495  0.00  0.00    +0.000 A 
ATOM     12  C   UNL     1       1.953   8.708  18.230  0.00  0.00    +0.000 A 
ATOM     13  C   UNL     1       2.364   7.398  17.995  0.00  0.00    +0.000 A 
ENDBRANCH   7   8
ENDBRANCH   6   7
ENDBRANCH   3   6
ENDBRANCH   1   2
BRANCH   1  14
ATOM     14  C   UNL     1       6.537   4.608  14.738  0.00  0.00    +0.000 C 
ATOM     15  O   UNL     1       7.310   5.364  14.136  0.00  0.00    +0.000 OA
ATOM     16  N   UNL     1       5.947   3.552  14.088  0.00  0.00    +0.000 N 
ATOM     17  H   UNL     1       5.404   2.879  14.640  0.00  0.00    +0.000 HD
BRANCH  16  18
ATOM     18  C   UNL     1       6.226   3.285  12.678  0.00  0.00    +0.000 C 
BRANCH  18  19
ATOM     19  C   UNL     1       4.996   3.204  11.816  0.00  0.00    +0.000 C 
ATOM     20  N   UNL     1       4.047   3.125  11.173  0.00  0.00    +0.000 NA
ENDBRANCH  18  19
ENDBRANCH  16  18
ENDBRANCH   1  14
BRANCH   1  21
ATOM     21  C   UNL     1       7.566   4.629  17.153  0.00  0.00    +0.000 C 
BRANCH  21  23
ATOM     22  C   UNL     1       7.339   7.052  17.443  0.00  0.00    +0.000 C 
ATOM     23  N   UNL     1       7.929   5.816  17.973  0.00  0.00    +0.000 NA
ATOM     24  C   UNL     1       7.468   5.631  19.358  0.00  0.00    +0.000 C 
ENDBRANCH  21  23
ENDBRANCH   1  21
TORSDOF 9
ENDMDL
MODEL 4
REMARK VINA RESULT:      -6.7      2.039      2.860
REMARK  Name = 
REMARK  11 active torsions:
REMARK  status: ('A' for Active; 'I' for Inactive)
REMARK    1  A    between atoms: C_1  and  N_2
REMARK    2  A    between atoms: N_2  and  C_3
REMARK    3  A    between atoms: N_2  and  C_4
REMARK    4  A    between atoms: C_4  and  C_5
REMARK    5  A    between atoms: C_5  and  N_6
REMARK    6  A    between atoms: C_5  and  C_17
REMARK    7  A    between atoms: C_7  and  O_9
REMARK    8  A    between atoms: O_9  and  C_10
REMARK    9  A    between atoms: C_10  and  C_11
REMARK   10  A    between atoms: N_19  and  C_20
REMARK   11  A    between atoms: C_20  and  C_21
REMARK                            x       y       z     vdW  Elec       q    Type
REMARK                         _______ _______ _______ _____ _____    ______ ____
ROOT
ATOM      1  C   UNL     1       5.903   4.911  16.465  0.00  0.00    +0.000 C 
ENDROOT
BRANCH   1   2
ATOM      2  N   UNL     1       4.860   3.912  16.727  0.00  0.00    +0.000 N 
ATOM      3  C   UNL     1       3.985   3.953  17.770  0.00  0.00    +0.000 C 
ATOM      4  O   UNL     1       3.778   2.979  18.480  0.00  0.00    +0.000 OA
ATOM      5  H   UNL     1       4.776   3.116  16.105  0.00  0.00    +0.000 HD
BRANCH   3   6
ATOM      6  O   UNL     1       3.363   5.150  17.868  0.00  0.00    +0.000 OA
BRANCH   6   7
ATOM      7  C   UNL     1       3.246   5.677  19.201  0.00  0.00    +0.000 C 
BRANCH   7   8
ATOM      8  C   UNL     1       2.498   6.981  19.118  0.00  0.00    +0.000 A 
ATOM      9  C   UNL     1       2.422   7.718  17.928  0.00  0.00    +0.000 A 
ATOM     10  C   UNL     1       1.782   8.960  17.910  0.00  0.00    +0.000 A 
ATOM     11  C   UNL     1       1.214   9.472  19.077  0.00  0.00    +0.000 A 
ATOM     12  C   UNL     1       1.263   8.734  20.256  0.00  0.00    +0.000 A 
ATOM     13  C   UNL     1       1.902   7.496  20.278  0.00  0.00    +0.000 A 
ENDBRANCH   7   8
ENDBRANCH   6   7
ENDBRANCH   3   6
ENDBRANCH   1   2
BRANCH   1  14
ATOM     14  C   UNL     1       6.380   4.698  14.993  0.00  0.00    +0.000 C 
ATOM     15  O   UNL     1       7.412   5.240  14.580  0.00  0.00    +0.000 OA
ATOM     16  N   UNL     1       5.678   3.831  14.191  0.00  0.00    +0.000 N 
ATOM     17  H   UNL     1       4.893   3.312  14.600  0.00  0.00    +0.000 HD
BRANCH  16  18
ATOM     18  C   UNL     1       6.139   3.516  12.839  0.00  0.00    +0.000 C 
BRANCH  18  19
ATOM     19  C   UNL     1       5.027   3.268  11.857  0.00  0.00    +0.000 C 
ATOM     20  N   UNL     1       4.163   3.072  11.125  0.00  0.00    +0.000 NA
ENDBRANCH  18  19
ENDBRANCH  16  18
ENDBRANCH   1  14
BRANCH   1  21
ATOM     21  C   UNL     1       7.037   4.828  17.530  0.00  0.00    +0.000 C 
BRANCH  21  23
ATOM     22  C   UNL     1       8.014   5.696  19.603  0.00  0.00    +0.000 C 
ATOM     23  N   UNL     1       7.134   5.983  18.463  0.00  0.00    +0.000 NA
ATOM     24  C   UNL     1       7.654   7.161  17.752  0.00  0.00    +0.000 C 
ENDBRANCH  21  23
ENDBRANCH   1  21
TORSDOF 9
ENDMDL
MODEL 5
REMARK VINA RESULT:      -6.7      1.846      2.588
REMARK  Name = 
REMARK  11 active torsions:
REMARK  status: ('A' for Active; 'I' for Inactive)
REMARK    1  A    between atoms: C_1  and  N_2
REMARK    2  A    between atoms: N_2  and  C_3
REMARK    3  A    between atoms: N_2  and  C_4
REMARK    4  A    between atoms: C_4  and  C_5
REMARK    5  A    between atoms: C_5  and  N_6
REMARK    6  A    between atoms: C_5  and  C_17
REMARK    7  A    between atoms: C_7  and  O_9
REMARK    8  A    between atoms: O_9  and  C_10
REMARK    9  A    between atoms: C_10  and  C_11
REMARK   10  A    between atoms: N_19  and  C_20
REMARK   11  A    between atoms: C_20  and  C_21
REMARK                            x       y       z     vdW  Elec       q    Type
REMARK                         _______ _______ _______ _____ _____    ______ ____
ROOT
ATOM      1  C   UNL     1       5.394   5.299  16.615  0.00  0.00    +0.000 C 
ENDROOT
BRANCH   1   2
ATOM      2  N   UNL     1       6.368   5.119  17.698  0.00  0.00    +0.000 N 
ATOM      3  C   UNL     1       6.080   4.618  18.931  0.00  0.00    +0.000 C 
ATOM      4  O   UNL     1       6.452   5.169  19.957  0.00  0.00    +0.000 OA
ATOM      5  H   UNL     1       7.332   5.393  17.541  0.00  0.00    +0.000 HD
BRANCH   3   6
ATOM      6  O   UNL     1       5.403   3.448  18.862  0.00  0.00    +0.000 OA
BRANCH   6   7
ATOM      7  C   UNL     1       4.837   2.989  20.102  0.00  0.00    +0.000 C 
BRANCH   7   8
ATOM      8  C   UNL     1       3.348   2.876  19.916  0.00  0.00    +0.000 A 
ATOM      9  C   UNL     1       2.786   2.252  18.794  0.00  0.00    +0.000 A 
ATOM     10  C   UNL     1       1.399   2.233  18.620  0.00  0.00    +0.000 A 
ATOM     11  C   UNL     1       0.567   2.834  19.565  0.00  0.00    +0.000 A 
ATOM     12  C   UNL     1       1.117   3.433  20.695  0.00  0.00    +0.000 A 
ATOM     13  C   UNL     1       2.500   3.454  20.870  0.00  0.00    +0.000 A 
ENDBRANCH   7   8
ENDBRANCH   6   7
ENDBRANCH   3   6
ENDBRANCH   1   2
BRANCH   1  14
ATOM     14  C   UNL     1       6.143   5.013  15.274  0.00  0.00    +0.000 C 
ATOM     15  O   UNL     1       7.292   5.431  15.093  0.00  0.00    +0.000 OA
ATOM     16  N   UNL     1       5.534   4.218  14.334  0.00  0.00    +0.000 N 
ATOM     17  H   UNL     1       4.628   3.794  14.564  0.00  0.00    +0.000 HD
BRANCH  16  18
ATOM     18  C   UNL     1       6.230   3.834  13.107  0.00  0.00    +0.000 C 
BRANCH  18  19
ATOM     19  C   UNL     1       5.339   3.215  12.066  0.00  0.00    +0.000 C 
ATOM     20  N   UNL     1       4.673   2.747  11.254  0.00  0.00    +0.000 NA
ENDBRANCH  18  19
ENDBRANCH  16  18
ENDBRANCH   1  14
BRANCH   1  21
ATOM     21  C   UNL     1       4.724   6.704  16.694  0.00  0.00    +0.000 C 
BRANCH  21  23
ATOM     22  C   UNL     1       3.003   8.149  17.671  0.00  0.00    +0.000 C 
ATOM     23  N   UNL     1       3.762   6.900  17.811  0.00  0.00    +0.000 NA
ATOM     24  C   UNL     1       2.813   5.776  17.861  0.00  0.00    +0.000 C 
ENDBRANCH  21  23
ENDBRANCH   1  21
TORSDOF 9
ENDMDL
MODEL 6
REMARK VINA RESULT:      -6.7      1.465      2.201
REMARK  Name = 
REMARK  11 active torsions:
REMARK  status: ('A' for Active; 'I' for Inactive)
REMARK    1  A    between atoms: C_1  and  N_2
REMARK    2  A    between atoms: N_2  and  C_3
REMARK    3  A    between atoms: N_2  and  C_4
REMARK    4  A    between atoms: C_4  and  C_5
REMARK    5  A    between atoms: C_5  and  N_6
REMARK    6  A    between atoms: C_5  and  C_17
REMARK    7  A    between atoms: C_7  and  O_9
REMARK    8  A    between atoms: O_9  and  C_10
REMARK    9  A    between atoms: C_10  and  C_11
REMARK   10  A    between atoms: N_19  and  C_20
REMARK   11  A    between atoms: C_20  and  C_21
REMARK                            x       y       z     vdW  Elec       q    Type
REMARK                         _______ _______ _______ _____ _____    ______ ____
ROOT
ATOM      1  C   UNL     1       5.543   4.450  16.728  0.00  0.00    +0.000 C 
ENDROOT
BRANCH   1   2
ATOM      2  N   UNL     1       5.044   3.086  16.934  0.00  0.00    +0.000 N 
ATOM      3  C   UNL     1       3.881   2.768  17.570  0.00  0.00    +0.000 C 
ATOM      4  O   UNL     1       3.833   1.910  18.439  0.00  0.00    +0.000 OA
ATOM      5  H   UNL     1       5.596   2.304  16.598  0.00  0.00    +0.000 HD
BRANCH   3   6
ATOM      6  O   UNL     1       2.827   3.463  17.083  0.00  0.00    +0.000 OA
BRANCH   6   7
ATOM      7  C   UNL     1       1.716   3.608  17.985  0.00  0.00    +0.000 C 
BRANCH   7   8
ATOM      8  C   UNL     1       1.904   4.893  18.747  0.00  0.00    +0.000 A 
ATOM      9  C   UNL     1       1.550   5.013  20.097  0.00  0.00    +0.000 A 
ATOM     10  C   UNL     1       1.671   6.243  20.749  0.00  0.00    +0.000 A 
ATOM     11  C   UNL     1       2.147   7.358  20.058  0.00  0.00    +0.000 A 
ATOM     12  C   UNL     1       2.526   7.239  18.724  0.00  0.00    +0.000 A 
ATOM     13  C   UNL     1       2.405   6.014  18.071  0.00  0.00    +0.000 A 
ENDBRANCH   7   8
ENDBRANCH   6   7
ENDBRANCH   3   6
ENDBRANCH   1   2
BRANCH   1  14
ATOM     14  C   UNL     1       5.751   4.633  15.190  0.00  0.00    +0.000 C 
ATOM     15  O   UNL     1       5.703   5.757  14.677  0.00  0.00    +0.000 OA
ATOM     16  N   UNL     1       6.070   3.533  14.432  0.00  0.00    +0.000 N 
ATOM     17  H   UNL     1       6.213   2.635  14.907  0.00  0.00    +0.000 HD
BRANCH  16  18
ATOM     18  C   UNL     1       6.375   3.663  13.008  0.00  0.00    +0.000 C 
BRANCH  18  19
ATOM     19  C   UNL     1       5.215   3.349  12.103  0.00  0.00    +0.000 C 
ATOM     20  N   UNL     1       4.344   3.108  11.393  0.00  0.00    +0.000 NA
ENDBRANCH  18  19
ENDBRANCH  16  18
ENDBRANCH   1  14
BRANCH   1  21
ATOM     21  C   UNL     1       6.816   4.715  17.587  0.00  0.00    +0.000 C 
BRANCH  21  23
ATOM     22  C   UNL     1       8.020   6.110  19.202  0.00  0.00    +0.000 C 
ATOM     23  N   UNL     1       6.807   5.968  18.388  0.00  0.00    +0.000 NA
ATOM     24  C   UNL     1       6.699   7.134  17.497  0.00  0.00    +0.000 C 
ENDBRANCH  21  23
ENDBRANCH   1  21
TORSDOF 9
ENDMDL
MODEL 7
REMARK VINA RESULT:      -6.7      1.773      2.671
REMARK  Name = 
REMARK  11 active torsions:
REMARK  status: ('A' for Active; 'I' for Inactive)
REMARK    1  A    between atoms: C_1  and  N_2
REMARK    2  A    between atoms: N_2  and  C_3
REMARK    3  A    between atoms: N_2  and  C_4
REMARK    4  A    between atoms: C_4  and  C_5
REMARK    5  A    between atoms: C_5  and  N_6
REMARK    6  A    between atoms: C_5  and  C_17
REMARK    7  A    between atoms: C_7  and  O_9
REMARK    8  A    between atoms: O_9  and  C_10
REMARK    9  A    between atoms: C_10  and  C_11
REMARK   10  A    between atoms: N_19  and  C_20
REMARK   11  A    between atoms: C_20  and  C_21
REMARK                            x       y       z     vdW  Elec       q    Type
REMARK                         _______ _______ _______ _____ _____    ______ ____
ROOT
ATOM      1  C   UNL     1       5.420   5.254  16.562  0.00  0.00    +0.000 C 
ENDROOT
BRANCH   1   2
ATOM      2  N   UNL     1       6.339   5.067  17.691  0.00  0.00    +0.000 N 
ATOM      3  C   UNL     1       5.997   4.531  18.895  0.00  0.00    +0.000 C 
ATOM      4  O   UNL     1       6.303   5.065  19.951  0.00  0.00    +0.000 OA
ATOM      5  H   UNL     1       7.304   5.364  17.592  0.00  0.00    +0.000 HD
BRANCH   3   6
ATOM      6  O   UNL     1       5.350   3.350  18.763  0.00  0.00    +0.000 OA
BRANCH   6   7
ATOM      7  C   UNL     1       4.782   2.820  19.974  0.00  0.00    +0.000 C 
BRANCH   7   8
ATOM      8  C   UNL     1       3.284   2.913  19.861  0.00  0.00    +0.000 A 
ATOM      9  C   UNL     1       2.513   3.621  20.793  0.00  0.00    +0.000 A 
ATOM     10  C   UNL     1       1.119   3.622  20.696  0.00  0.00    +0.000 A 
ATOM     11  C   UNL     1       0.488   2.920  19.668  0.00  0.00    +0.000 A 
ATOM     12  C   UNL     1       1.249   2.238  18.723  0.00  0.00    +0.000 A 
ATOM     13  C   UNL     1       2.639   2.233  18.818  0.00  0.00    +0.000 A 
ENDBRANCH   7   8
ENDBRANCH   6   7
ENDBRANCH   3   6
ENDBRANCH   1   2
BRANCH   1  14
ATOM     14  C   UNL     1       6.253   5.049  15.256  0.00  0.00    +0.000 C 
ATOM     15  O   UNL     1       7.405   5.491  15.167  0.00  0.00    +0.000 OA
ATOM     16  N   UNL     1       5.714   4.297  14.241  0.00  0.00    +0.000 N 
ATOM     17  H   UNL     1       4.803   3.851  14.392  0.00  0.00    +0.000 HD
BRANCH  16  18
ATOM     18  C   UNL     1       6.489   3.988  13.040  0.00  0.00    +0.000 C 
BRANCH  18  19
ATOM     19  C   UNL     1       5.840   2.975  12.137  0.00  0.00    +0.000 C 
ATOM     20  N   UNL     1       5.356   2.184  11.459  0.00  0.00    +0.000 NA
ENDBRANCH  18  19
ENDBRANCH  16  18
ENDBRANCH   1  14
BRANCH   1  21
ATOM     21  C   UNL     1       4.693   6.629  16.655  0.00  0.00    +0.000 C 
BRANCH  21  23
ATOM     22  C   UNL     1       3.058   8.080  17.762  0.00  0.00    +0.000 C 
ATOM     23  N   UNL     1       3.742   6.782  17.789  0.00  0.00    +0.000 NA
ATOM     24  C   UNL     1       2.729   5.715  17.744  0.00  0.00    +0.000 C 
ENDBRANCH  21  23
ENDBRANCH   1  21
TORSDOF 9
ENDMDL
MODEL 8
REMARK VINA RESULT:      -6.6      1.534      2.254
REMARK  Name = 
REMARK  11 active torsions:
REMARK  status: ('A' for Active; 'I' for Inactive)
REMARK    1  A    between atoms: C_1  and  N_2
REMARK    2  A    between atoms: N_2  and  C_3
REMARK    3  A    between atoms: N_2  and  C_4
REMARK    4  A    between atoms: C_4  and  C_5
REMARK    5  A    between atoms: C_5  and  N_6
REMARK    6  A    between atoms: C_5  and  C_17
REMARK    7  A    between atoms: C_7  and  O_9
REMARK    8  A    between atoms: O_9  and  C_10
REMARK    9  A    between atoms: C_10  and  C_11
REMARK   10  A    between atoms: N_19  and  C_20
REMARK   11  A    between atoms: C_20  and  C_21
REMARK                            x       y       z     vdW  Elec       q    Type
REMARK                         _______ _______ _______ _____ _____    ______ ____
ROOT
ATOM      1  C   UNL     1       5.638   4.962  17.005  0.00  0.00    +0.000 C 
ENDROOT
BRANCH   1   2
ATOM      2  N   UNL     1       5.695   3.789  17.886  0.00  0.00    +0.000 N 
ATOM      3  C   UNL     1       4.685   3.376  18.702  0.00  0.00    +0.000 C 
ATOM      4  O   UNL     1       4.875   3.095  19.876  0.00  0.00    +0.000 OA
ATOM      5  H   UNL     1       6.546   3.237  17.915  0.00  0.00    +0.000 HD
BRANCH   3   6
ATOM      6  O   UNL     1       3.508   3.270  18.043  0.00  0.00    +0.000 OA
BRANCH   6   7
ATOM      7  C   UNL     1       2.332   3.482  18.844  0.00  0.00    +0.000 C 
BRANCH   7   8
ATOM      8  C   UNL     1       2.188   4.963  19.069  0.00  0.00    +0.000 A 
ATOM      9  C   UNL     1       2.320   5.888  18.025  0.00  0.00    +0.000 A 
ATOM     10  C   UNL     1       2.254   7.259  18.287  0.00  0.00    +0.000 A 
ATOM     11  C   UNL     1       2.055   7.714  19.591  0.00  0.00    +0.000 A 
ATOM     12  C   UNL     1       1.896   6.800  20.629  0.00  0.00    +0.000 A 
ATOM     13  C   UNL     1       1.963   5.432  20.371  0.00  0.00    +0.000 A 
ENDBRANCH   7   8
ENDBRANCH   6   7
ENDBRANCH   3   6
ENDBRANCH   1   2
BRANCH   1  14
ATOM     14  C   UNL     1       6.547   4.652  15.773  0.00  0.00    +0.000 C 
ATOM     15  O   UNL     1       7.717   4.281  15.929  0.00  0.00    +0.000 OA
ATOM     16  N   UNL     1       5.998   4.716  14.516  0.00  0.00    +0.000 N 
ATOM     17  H   UNL     1       4.996   4.916  14.428  0.00  0.00    +0.000 HD
BRANCH  16  18
ATOM     18  C   UNL     1       6.774   4.337  13.335  0.00  0.00    +0.000 C 
BRANCH  18  19
ATOM     19  C   UNL     1       6.086   3.337  12.447  0.00  0.00    +0.000 C 
ATOM     20  N   UNL     1       5.556   2.590  11.753  0.00  0.00    +0.000 NA
ENDBRANCH  18  19
ENDBRANCH  16  18
ENDBRANCH   1  14
BRANCH   1  21
ATOM     21  C   UNL     1       6.019   6.260  17.779  0.00  0.00    +0.000 C 
BRANCH  21  23
ATOM     22  C   UNL     1       7.732   8.009  17.661  0.00  0.00    +0.000 C 
ATOM     23  N   UNL     1       7.472   6.575  17.839  0.00  0.00    +0.000 NA
ATOM     24  C   UNL     1       8.024   6.154  19.136  0.00  0.00    +0.000 C 
ENDBRANCH  21  23
ENDBRANCH   1  21
TORSDOF 9
ENDMDL
MODEL 9
REMARK VINA RESULT:      -6.5      1.549      2.298
REMARK  Name = 
REMARK  11 active torsions:
REMARK  status: ('A' for Active; 'I' for Inactive)
REMARK    1  A    between atoms: C_1  and  N_2
REMARK    2  A    between atoms: N_2  and  C_3
REMARK    3  A    between atoms: N_2  and  C_4
REMARK    4  A    between atoms: C_4  and  C_5
REMARK    5  A    between atoms: C_5  and  N_6
REMARK    6  A    between atoms: C_5  and  C_17
REMARK    7  A    between atoms: C_7  and  O_9
REMARK    8  A    between atoms: O_9  and  C_10
REMARK    9  A    between atoms: C_10  and  C_11
REMARK   10  A    between atoms: N_19  and  C_20
REMARK   11  A    between atoms: C_20  and  C_21
REMARK                            x       y       z     vdW  Elec       q    Type
REMARK                         _______ _______ _______ _____ _____    ______ ____
ROOT
ATOM      1  C   UNL     1       5.018   5.034  17.263  0.00  0.00    +0.000 C 
ENDROOT
BRANCH   1   2
ATOM      2  N   UNL     1       4.983   3.586  17.504  0.00  0.00    +0.000 N 
ATOM      3  C   UNL     1       3.908   2.901  17.985  0.00  0.00    +0.000 C 
ATOM      4  O   UNL     1       4.009   2.103  18.905  0.00  0.00    +0.000 OA
ATOM      5  H   UNL     1       5.815   3.037  17.317  0.00  0.00    +0.000 HD
BRANCH   3   6
ATOM      6  O   UNL     1       2.777   3.176  17.294  0.00  0.00    +0.000 OA
BRANCH   6   7
ATOM      7  C   UNL     1       1.617   3.457  18.097  0.00  0.00    +0.000 C 
BRANCH   7   8
ATOM      8  C   UNL     1       1.829   4.792  18.760  0.00  0.00    +0.000 A 
ATOM      9  C   UNL     1       1.729   4.954  20.149  0.00  0.00    +0.000 A 
ATOM     10  C   UNL     1       1.858   6.223  20.720  0.00  0.00    +0.000 A 
ATOM     11  C   UNL     1       2.089   7.335  19.909  0.00  0.00    +0.000 A 
ATOM     12  C   UNL     1       2.216   7.177  18.532  0.00  0.00    +0.000 A 
ATOM     13  C   UNL     1       2.086   5.913  17.960  0.00  0.00    +0.000 A 
ENDBRANCH   7   8
ENDBRANCH   6   7
ENDBRANCH   3   6
ENDBRANCH   1   2
BRANCH   1  14
ATOM     14  C   UNL     1       5.528   5.241  15.800  0.00  0.00    +0.000 C 
ATOM     15  O   UNL     1       5.309   6.300  15.200  0.00  0.00    +0.000 OA
ATOM     16  N   UNL     1       6.297   4.259  15.224  0.00  0.00    +0.000 N 
ATOM     17  H   UNL     1       6.555   3.444  15.791  0.00  0.00    +0.000 HD
BRANCH  16  18
ATOM     18  C   UNL     1       6.885   4.445  13.899  0.00  0.00    +0.000 C 
BRANCH  18  19
ATOM     19  C   UNL     1       6.252   3.602  12.826  0.00  0.00    +0.000 C 
ATOM     20  N   UNL     1       5.767   2.939  12.021  0.00  0.00    +0.000 NA
ENDBRANCH  18  19
ENDBRANCH  16  18
ENDBRANCH   1  14
BRANCH   1  21
ATOM     21  C   UNL     1       5.864   5.760  18.351  0.00  0.00    +0.000 C 
BRANCH  21  23
ATOM     22  C   UNL     1       7.589   7.354  17.650  0.00  0.00    +0.000 C 
ATOM     23  N   UNL     1       7.301   5.964  18.025  0.00  0.00    +0.000 NA
ATOM     24  C   UNL     1       8.135   5.606  19.183  0.00  0.00    +0.000 C 
ENDBRANCH  21  23
ENDBRANCH   1  21
TORSDOF 9
ENDMDL
