MODEL 1
REMARK VINA RESULT:      -8.8      0.000      0.000
REMARK  Name = 
REMARK  5 active torsions:
REMARK  status: ('A' for Active; 'I' for Inactive)
REMARK    1  A    between atoms: C_1  and  C_2
REMARK    2  A    between atoms: N_4  and  C_5
REMARK    3  A    between atoms: C_8  and  C_9
REMARK    4  A    between atoms: N_14  and  C_15
REMARK    5  A    between atoms: C_24  and  C_25
REMARK                            x       y       z     vdW  Elec       q    Type
REMARK                         _______ _______ _______ _____ _____    ______ ____
ROOT
ATOM      1  C   UNL     1       1.764   7.910  19.945  0.00  0.00    +0.000 C 
ATOM      2  O   UNL     1       1.462   8.741  19.087  0.00  0.00    +0.000 OA
ATOM      3  N   UNL     1       1.616   8.136  21.301  0.00  0.00    +0.000 N 
ATOM      4  C   UNL     1       1.239   9.304  21.927  0.00  0.00    +0.000 C 
ATOM      5  O   UNL     1       1.272   9.352  23.153  0.00  0.00    +0.000 OA
ATOM      6  N   UNL     1       0.847  10.324  21.089  0.00  0.00    +0.000 N 
ATOM      7  H   UNL     1       1.896   7.391  21.928  0.00  0.00    +0.000 HD
ATOM      8  H   UNL     1       0.758  10.063  20.107  0.00  0.00    +0.000 HD
ENDROOT
BRANCH   1  16
ATOM      9  C   UNL     1       4.017   1.604  18.607  0.00  0.00    +0.000 C 
ATOM     10  C   UNL     1       3.969   3.052  18.277  0.00  0.00    +0.000 A 
ATOM     11  N   UNL     1       4.676   3.521  17.243  0.00  0.00    +0.000 NA
ATOM     12  N   UNL     1       4.413   4.843  17.232  0.00  0.00    +0.000 N 
ATOM     13  C   UNL     1       5.026   5.678  16.228  0.00  0.00    +0.000 C 
ATOM     14  C   UNL     1       3.560   5.247  18.228  0.00  0.00    +0.000 A 
ATOM     15  N   UNL     1       3.123   6.509  18.475  0.00  0.00    +0.000 NA
ATOM     16  C   UNL     1       2.287   6.564  19.550  0.00  0.00    +0.000 A 
ATOM     17  C   UNL     1       1.892   5.476  20.323  0.00  0.00    +0.000 A 
ATOM     18  C   UNL     1       2.368   4.188  20.034  0.00  0.00    +0.000 A 
ATOM     19  C   UNL     1       3.244   4.088  18.934  0.00  0.00    +0.000 A 
BRANCH  18  20
ATOM     20  C   UNL     1       1.953   3.021  20.883  0.00  0.00    +0.000 C 
ATOM     21  F   UNL     1       1.046   3.349  21.844  0.00  0.00    +0.000 F 
ATOM     22  F   UNL     1       1.379   2.025  20.157  0.00  0.00    +0.000 F 
ATOM     23  F   UNL     1       3.002   2.458  21.540  0.00  0.00    +0.000 F 
ENDBRANCH  18  20
ENDBRANCH   1  16
BRANCH   6  24
ATOM     24  C   UNL     1       0.491  11.642  21.443  0.00  0.00    +0.000 A 
ATOM     25  C   UNL     1      -0.583  11.942  22.273  0.00  0.00    +0.000 A 
ATOM     26  C   UNL     1      -0.838  13.273  22.555  0.00  0.00    +0.000 A 
ATOM     27 CL   UNL     1      -2.132  13.714  23.593  0.00  0.00    +0.000 Cl
ATOM     28  N   UNL     1      -0.127  14.310  22.081  0.00  0.00    +0.000 NA
ATOM     29  C   UNL     1       0.908  13.986  21.289  0.00  0.00    +0.000 A 
ATOM     30 CL   UNL     1       1.784  15.330  20.683  0.00  0.00    +0.000 Cl
ATOM     31  C   UNL     1       1.270  12.690  20.950  0.00  0.00    +0.000 A 
ENDBRANCH   6  24
TORSDOF 3
ENDMDL
MODEL 2
REMARK VINA RESULT:      -8.8      1.124      2.205
REMARK  Name = 
REMARK  5 active torsions:
REMARK  status: ('A' for Active; 'I' for Inactive)
REMARK    1  A    between atoms: C_1  and  C_2
REMARK    2  A    between atoms: N_4  and  C_5
REMARK    3  A    between atoms: C_8  and  C_9
REMARK    4  A    between atoms: N_14  and  C_15
REMARK    5  A    between atoms: C_24  and  C_25
REMARK                            x       y       z     vdW  Elec       q    Type
REMARK                         _______ _______ _______ _____ _____    ______ ____
ROOT
ATOM      1  C   UNL     1       1.632   7.968  20.349  0.00  0.00    +0.000 C 
ATOM      2  O   UNL     1       1.522   8.088  21.571  0.00  0.00    +0.000 OA
ATOM      3  N   UNL     1       1.322   8.980  19.460  0.00  0.00    +0.000 N 
ATOM      4  C   UNL     1       0.752  10.204  19.737  0.00  0.00    +0.000 C 
ATOM      5  O   UNL     1       0.444  10.934  18.801  0.00  0.00    +0.000 OA
ATOM      6  N   UNL     1       0.590  10.491  21.074  0.00  0.00    +0.000 N 
ATOM      7  H   UNL     1       1.442   8.782  18.473  0.00  0.00    +0.000 HD
ATOM      8  H   UNL     1       1.024   9.824  21.712  0.00  0.00    +0.000 HD
ENDROOT
BRANCH   1  16
ATOM      9  C   UNL     1       3.870   1.934  18.065  0.00  0.00    +0.000 C 
ATOM     10  C   UNL     1       3.829   3.416  17.963  0.00  0.00    +0.000 A 
ATOM     11  N   UNL     1       4.545   4.036  17.018  0.00  0.00    +0.000 NA
ATOM     12  N   UNL     1       4.287   5.345  17.210  0.00  0.00    +0.000 N 
ATOM     13  C   UNL     1       4.910   6.322  16.351  0.00  0.00    +0.000 C 
ATOM     14  C   UNL     1       3.429   5.595  18.252  0.00  0.00    +0.000 A 
ATOM     15  N   UNL     1       2.996   6.804  18.688  0.00  0.00    +0.000 NA
ATOM     16  C   UNL     1       2.152   6.697  19.754  0.00  0.00    +0.000 A 
ATOM     17  C   UNL     1       1.748   5.504  20.348  0.00  0.00    +0.000 A 
ATOM     18  C   UNL     1       2.222   4.274  19.866  0.00  0.00    +0.000 A 
ATOM     19  C   UNL     1       3.104   4.341  18.768  0.00  0.00    +0.000 A 
BRANCH  18  20
ATOM     20  C   UNL     1       1.796   2.992  20.522  0.00  0.00    +0.000 C 
ATOM     21  F   UNL     1       2.829   2.306  21.085  0.00  0.00    +0.000 F 
ATOM     22  F   UNL     1       0.895   3.191  21.520  0.00  0.00    +0.000 F 
ATOM     23  F   UNL     1       1.213   2.130  19.646  0.00  0.00    +0.000 F 
ENDBRANCH  18  20
ENDBRANCH   1  16
BRANCH   6  24
ATOM     24  C   UNL     1      -0.031  11.622  21.643  0.00  0.00    +0.000 A 
ATOM     25  C   UNL     1       0.480  12.909  21.527  0.00  0.00    +0.000 A 
ATOM     26  C   UNL     1      -0.217  13.945  22.124  0.00  0.00    +0.000 A 
ATOM     27 CL   UNL     1       0.343  15.562  21.999  0.00  0.00    +0.000 Cl
ATOM     28  N   UNL     1      -1.357  13.803  22.822  0.00  0.00    +0.000 NA
ATOM     29  C   UNL     1      -1.829  12.549  22.908  0.00  0.00    +0.000 A 
ATOM     30 CL   UNL     1      -3.274  12.398  23.820  0.00  0.00    +0.000 Cl
ATOM     31  C   UNL     1      -1.228  11.437  22.338  0.00  0.00    +0.000 A 
ENDBRANCH   6  24
TORSDOF 3
ENDMDL
MODEL 3
REMARK VINA RESULT:      -8.7      0.110      1.750
REMARK  Name = 
REMARK  5 active torsions:
REMARK  status: ('A' for Active; 'I' for Inactive)
REMARK    1  A    between atoms: C_1  and  C_2
REMARK    2  A    between atoms: N_4  and  C_5
REMARK    3  A    between atoms: C_8  and  C_9
REMARK    4  A    between atoms: N_14  and  C_15
REMARK    5  A    between atoms: C_24  and  C_25
REMARK                            x       y       z     vdW  Elec       q    Type
REMARK                         _______ _______ _______ _____ _____    ______ ____
ROOT
ATOM      1  C   UNL     1       1.788   7.938  19.887  0.00  0.00    +0.000 C 
ATOM      2  O   UNL     1       1.514   8.782  19.031  0.00  0.00    +0.000 OA
ATOM      3  N   UNL     1       1.618   8.153  21.241  0.00  0.00    +0.000 N 
ATOM      4  C   UNL     1       1.246   9.322  21.872  0.00  0.00    +0.000 C 
ATOM      5  O   UNL     1       1.256   9.357  23.098  0.00  0.00    +0.000 OA
ATOM      6  N   UNL     1       0.884  10.355  21.036  0.00  0.00    +0.000 N 
ATOM      7  H   UNL     1       1.876   7.399  21.867  0.00  0.00    +0.000 HD
ATOM      8  H   UNL     1       0.809  10.104  20.050  0.00  0.00    +0.000 HD
ENDROOT
BRANCH   1  16
ATOM      9  C   UNL     1       3.985   1.616  18.533  0.00  0.00    +0.000 C 
ATOM     10  C   UNL     1       3.951   3.066  18.208  0.00  0.00    +0.000 A 
ATOM     11  N   UNL     1       4.666   3.531  17.177  0.00  0.00    +0.000 NA
ATOM     12  N   UNL     1       4.415   4.855  17.170  0.00  0.00    +0.000 N 
ATOM     13  C   UNL     1       5.038   5.688  16.170  0.00  0.00    +0.000 C 
ATOM     14  C   UNL     1       3.564   5.265  18.165  0.00  0.00    +0.000 A 
ATOM     15  N   UNL     1       3.138   6.529  18.415  0.00  0.00    +0.000 NA
ATOM     16  C   UNL     1       2.299   6.589  19.488  0.00  0.00    +0.000 A 
ATOM     17  C   UNL     1       1.892   5.502  20.257  0.00  0.00    +0.000 A 
ATOM     18  C   UNL     1       2.357   4.211  19.965  0.00  0.00    +0.000 A 
ATOM     19  C   UNL     1       3.234   4.106  18.867  0.00  0.00    +0.000 A 
BRANCH  18  20
ATOM     20  C   UNL     1       1.928   3.045  20.810  0.00  0.00    +0.000 C 
ATOM     21  F   UNL     1       2.956   2.464  21.488  0.00  0.00    +0.000 F 
ATOM     22  F   UNL     1       1.011   3.392  21.751  0.00  0.00    +0.000 F 
ATOM     23  F   UNL     1       1.362   2.052  20.073  0.00  0.00    +0.000 F 
ENDBRANCH  18  20
ENDBRANCH   1  16
BRANCH   6  24
ATOM     24  C   UNL     1       0.540  11.674  21.396  0.00  0.00    +0.000 A 
ATOM     25  C   UNL     1       1.256  12.788  20.976  0.00  0.00    +0.000 A 
ATOM     26  C   UNL     1       0.823  14.037  21.389  0.00  0.00    +0.000 A 
ATOM     27 CL   UNL     1       1.646  15.457  20.887  0.00  0.00    +0.000 Cl
ATOM     28  N   UNL     1      -0.241  14.259  22.179  0.00  0.00    +0.000 NA
ATOM     29  C   UNL     1      -0.916  13.163  22.561  0.00  0.00    +0.000 A 
ATOM     30 CL   UNL     1      -2.257  13.477  23.583  0.00  0.00    +0.000 Cl
ATOM     31  C   UNL     1      -0.588  11.865  22.197  0.00  0.00    +0.000 A 
ENDBRANCH   6  24
TORSDOF 3
ENDMDL
MODEL 4
REMARK VINA RESULT:      -8.6      1.066      1.344
REMARK  Name = 
REMARK  5 active torsions:
REMARK  status: ('A' for Active; 'I' for Inactive)
REMARK    1  A    between atoms: C_1  and  C_2
REMARK    2  A    between atoms: N_4  and  C_5
REMARK    3  A    between atoms: C_8  and  C_9
REMARK    4  A    between atoms: N_14  and  C_15
REMARK    5  A    between atoms: C_24  and  C_25
REMARK                            x       y       z     vdW  Elec       q    Type
REMARK                         _______ _______ _______ _____ _____    ______ ____
ROOT
ATOM      1  C   UNL     1       1.628   7.942  20.363  0.00  0.00    +0.000 C 
ATOM      2  O   UNL     1       1.497   8.059  21.583  0.00  0.00    +0.000 OA
ATOM      3  N   UNL     1       1.339   8.957  19.471  0.00  0.00    +0.000 N 
ATOM      4  C   UNL     1       0.771  10.184  19.741  0.00  0.00    +0.000 C 
ATOM      5  O   UNL     1       0.483  10.918  18.801  0.00  0.00    +0.000 OA
ATOM      6  N   UNL     1       0.586  10.468  21.076  0.00  0.00    +0.000 N 
ATOM      7  H   UNL     1       1.475   8.762  18.486  0.00  0.00    +0.000 HD
ATOM      8  H   UNL     1       1.005   9.797  21.720  0.00  0.00    +0.000 HD
ENDROOT
BRANCH   1  16
ATOM      9  C   UNL     1       3.887   1.905  18.109  0.00  0.00    +0.000 C 
ATOM     10  C   UNL     1       3.839   3.386  17.998  0.00  0.00    +0.000 A 
ATOM     11  N   UNL     1       4.550   4.003  17.046  0.00  0.00    +0.000 NA
ATOM     12  N   UNL     1       4.286   5.312  17.231  0.00  0.00    +0.000 N 
ATOM     13  C   UNL     1       4.901   6.287  16.364  0.00  0.00    +0.000 C 
ATOM     14  C   UNL     1       3.430   5.564  18.274  0.00  0.00    +0.000 A 
ATOM     15  N   UNL     1       2.992   6.774  18.704  0.00  0.00    +0.000 NA
ATOM     16  C   UNL     1       2.153   6.670  19.774  0.00  0.00    +0.000 A 
ATOM     17  C   UNL     1       1.756   5.479  20.376  0.00  0.00    +0.000 A 
ATOM     18  C   UNL     1       2.234   4.248  19.900  0.00  0.00    +0.000 A 
ATOM     19  C   UNL     1       3.112   4.312  18.799  0.00  0.00    +0.000 A 
BRANCH  18  20
ATOM     20  C   UNL     1       1.816   2.968  20.565  0.00  0.00    +0.000 C 
ATOM     21  F   UNL     1       0.909   3.150  21.563  0.00  0.00    +0.000 F 
ATOM     22  F   UNL     1       1.243   2.092  19.697  0.00  0.00    +0.000 F 
ATOM     23  F   UNL     1       2.864   2.312  21.132  0.00  0.00    +0.000 F 
ENDBRANCH  18  20
ENDBRANCH   1  16
BRANCH   6  24
ATOM     24  C   UNL     1      -0.039  11.601  21.637  0.00  0.00    +0.000 A 
ATOM     25  C   UNL     1      -1.222  11.534  22.364  0.00  0.00    +0.000 A 
ATOM     26  C   UNL     1      -1.744  12.712  22.871  0.00  0.00    +0.000 A 
ATOM     27 CL   UNL     1      -3.187  12.700  23.799  0.00  0.00    +0.000 Cl
ATOM     28  N   UNL     1      -1.196  13.928  22.708  0.00  0.00    +0.000 NA
ATOM     29  C   UNL     1      -0.050  13.957  22.008  0.00  0.00    +0.000 A 
ATOM     30 CL   UNL     1       0.613  15.525  21.801  0.00  0.00    +0.000 Cl
ATOM     31  C   UNL     1       0.575  12.843  21.468  0.00  0.00    +0.000 A 
ENDBRANCH   6  24
TORSDOF 3
ENDMDL
MODEL 5
REMARK VINA RESULT:      -8.4      5.350      9.352
REMARK  Name = 
REMARK  5 active torsions:
REMARK  status: ('A' for Active; 'I' for Inactive)
REMARK    1  A    between atoms: C_1  and  C_2
REMARK    2  A    between atoms: N_4  and  C_5
REMARK    3  A    between atoms: C_8  and  C_9
REMARK    4  A    between atoms: N_14  and  C_15
REMARK    5  A    between atoms: C_24  and  C_25
REMARK                            x       y       z     vdW  Elec       q    Type
REMARK                         _______ _______ _______ _____ _____    ______ ____
ROOT
ATOM      1  C   UNL     1       1.747   9.058  18.075  0.00  0.00    +0.000 C 
ATOM      2  O   UNL     1       2.594   9.534  17.318  0.00  0.00    +0.000 OA
ATOM      3  N   UNL     1       1.880   7.821  18.675  0.00  0.00    +0.000 N 
ATOM      4  C   UNL     1       2.867   6.881  18.465  0.00  0.00    +0.000 C 
ATOM      5  O   UNL     1       2.760   5.785  19.007  0.00  0.00    +0.000 OA
ATOM      6  N   UNL     1       3.903   7.284  17.653  0.00  0.00    +0.000 N 
ATOM      7  H   UNL     1       1.126   7.514  19.279  0.00  0.00    +0.000 HD
ATOM      8  H   UNL     1       3.891   8.272  17.400  0.00  0.00    +0.000 HD
ENDROOT
BRANCH   1  16
ATOM      9  C   UNL     1      -4.059  12.481  19.177  0.00  0.00    +0.000 C 
ATOM     10  C   UNL     1      -2.654  12.172  19.551  0.00  0.00    +0.000 A 
ATOM     11  N   UNL     1      -2.088  12.807  20.583  0.00  0.00    +0.000 NA
ATOM     12  N   UNL     1      -0.839  12.303  20.639  0.00  0.00    +0.000 N 
ATOM     13  C   UNL     1       0.070  12.776  21.654  0.00  0.00    +0.000 C 
ATOM     14  C   UNL     1      -0.576  11.364  19.674  0.00  0.00    +0.000 A 
ATOM     15  N   UNL     1       0.587  10.693  19.474  0.00  0.00    +0.000 NA
ATOM     16  C   UNL     1       0.513   9.833  18.419  0.00  0.00    +0.000 A 
ATOM     17  C   UNL     1      -0.610   9.627  17.622  0.00  0.00    +0.000 A 
ATOM     18  C   UNL     1      -1.793  10.343  17.862  0.00  0.00    +0.000 A 
ATOM     19  C   UNL     1      -1.756  11.250  18.940  0.00  0.00    +0.000 A 
BRANCH  18  20
ATOM     20  C   UNL     1      -2.996  10.130  16.988  0.00  0.00    +0.000 C 
ATOM     21  F   UNL     1      -2.787   9.218  15.998  0.00  0.00    +0.000 F 
ATOM     22  F   UNL     1      -4.074   9.682  17.684  0.00  0.00    +0.000 F 
ATOM     23  F   UNL     1      -3.392  11.271  16.363  0.00  0.00    +0.000 F 
ENDBRANCH  18  20
ENDBRANCH   1  16
BRANCH   6  24
ATOM     24  C   UNL     1       4.996   6.514  17.206  0.00  0.00    +0.000 A 
ATOM     25  C   UNL     1       5.123   6.062  15.898  0.00  0.00    +0.000 A 
ATOM     26  C   UNL     1       6.243   5.315  15.571  0.00  0.00    +0.000 A 
ATOM     27 CL   UNL     1       6.475   4.746  13.969  0.00  0.00    +0.000 Cl
ATOM     28  N   UNL     1       7.223   4.984  16.428  0.00  0.00    +0.000 NA
ATOM     29  C   UNL     1       7.075   5.444  17.681  0.00  0.00    +0.000 A 
ATOM     30 CL   UNL     1       8.332   4.988  18.755  0.00  0.00    +0.000 Cl
ATOM     31  C   UNL     1       6.008   6.213  18.120  0.00  0.00    +0.000 A 
ENDBRANCH   6  24
TORSDOF 3
ENDMDL
MODEL 6
REMARK VINA RESULT:      -8.4      1.972      2.075
REMARK  Name = 
REMARK  5 active torsions:
REMARK  status: ('A' for Active; 'I' for Inactive)
REMARK    1  A    between atoms: C_1  and  C_2
REMARK    2  A    between atoms: N_4  and  C_5
REMARK    3  A    between atoms: C_8  and  C_9
REMARK    4  A    between atoms: N_14  and  C_15
REMARK    5  A    between atoms: C_24  and  C_25
REMARK                            x       y       z     vdW  Elec       q    Type
REMARK                         _______ _______ _______ _____ _____    ______ ____
ROOT
ATOM      1  C   UNL     1       2.190   8.388  18.238  0.00  0.00    +0.000 C 
ATOM      2  O   UNL     1       2.455   9.167  17.322  0.00  0.00    +0.000 OA
ATOM      3  N   UNL     1       1.513   8.768  19.382  0.00  0.00    +0.000 N 
ATOM      4  C   UNL     1       1.130  10.040  19.754  0.00  0.00    +0.000 C 
ATOM      5  O   UNL     1       0.635  10.203  20.865  0.00  0.00    +0.000 OA
ATOM      6  N   UNL     1       1.343  11.020  18.811  0.00  0.00    +0.000 N 
ATOM      7  H   UNL     1       1.346   8.055  20.081  0.00  0.00    +0.000 HD
ATOM      8  H   UNL     1       1.641  10.680  17.897  0.00  0.00    +0.000 HD
ENDROOT
BRANCH   1  16
ATOM      9  C   UNL     1       3.647   1.716  18.226  0.00  0.00    +0.000 C 
ATOM     10  C   UNL     1       3.914   3.094  17.740  0.00  0.00    +0.000 A 
ATOM     11  N   UNL     1       4.916   3.311  16.880  0.00  0.00    +0.000 NA
ATOM     12  N   UNL     1       4.881   4.640  16.657  0.00  0.00    +0.000 N 
ATOM     13  C   UNL     1       5.844   5.233  15.761  0.00  0.00    +0.000 C 
ATOM     14  C   UNL     1       3.891   5.293  17.347  0.00  0.00    +0.000 A 
ATOM     15  N   UNL     1       3.618   6.622  17.333  0.00  0.00    +0.000 NA
ATOM     16  C   UNL     1       2.568   6.942  18.142  0.00  0.00    +0.000 A 
ATOM     17  C   UNL     1       1.827   6.039  18.900  0.00  0.00    +0.000 A 
ATOM     18  C   UNL     1       2.144   4.672  18.887  0.00  0.00    +0.000 A 
ATOM     19  C   UNL     1       3.230   4.300  18.069  0.00  0.00    +0.000 A 
BRANCH  18  20
ATOM     20  C   UNL     1       1.353   3.706  19.721  0.00  0.00    +0.000 C 
ATOM     21  F   UNL     1       0.384   4.304  20.466  0.00  0.00    +0.000 F 
ATOM     22  F   UNL     1       0.718   2.767  18.970  0.00  0.00    +0.000 F 
ATOM     23  F   UNL     1       2.132   3.024  20.604  0.00  0.00    +0.000 F 
ENDBRANCH  18  20
ENDBRANCH   1  16
BRANCH   6  24
ATOM     24  C   UNL     1       1.125  12.407  18.946  0.00  0.00    +0.000 A 
ATOM     25  C   UNL     1      -0.031  12.944  19.501  0.00  0.00    +0.000 A 
ATOM     26  C   UNL     1      -0.135  14.322  19.585  0.00  0.00    +0.000 A 
ATOM     27 CL   UNL     1      -1.523  15.052  20.282  0.00  0.00    +0.000 Cl
ATOM     28  N   UNL     1       0.798  15.191  19.163  0.00  0.00    +0.000 NA
ATOM     29  C   UNL     1       1.906  14.640  18.639  0.00  0.00    +0.000 A 
ATOM     30 CL   UNL     1       3.069  15.775  18.091  0.00  0.00    +0.000 Cl
ATOM     31  C   UNL     1       2.130  13.277  18.518  0.00  0.00    +0.000 A 
ENDBRANCH   6  24
TORSDOF 3
ENDMDL
MODEL 7
REMARK VINA RESULT:      -8.3      2.596      3.666
REMARK  Name = 
REMARK  5 active torsions:
REMARK  status: ('A' for Active; 'I' for Inactive)
REMARK    1  A    between atoms: C_1  and  C_2
REMARK    2  A    between atoms: N_4  and  C_5
REMARK    3  A    between atoms: C_8  and  C_9
REMARK    4  A    between atoms: N_14  and  C_15
REMARK    5  A    between atoms: C_24  and  C_25
REMARK                            x       y       z     vdW  Elec       q    Type
REMARK                         _______ _______ _______ _____ _____    ______ ____
ROOT
ATOM      1  C   UNL     1       1.156   8.449  20.553  0.00  0.00    +0.000 C 
ATOM      2  O   UNL     1       0.670   9.250  19.753  0.00  0.00    +0.000 OA
ATOM      3  N   UNL     1       1.009   8.565  21.923  0.00  0.00    +0.000 N 
ATOM      4  C   UNL     1       0.429   9.600  22.625  0.00  0.00    +0.000 C 
ATOM      5  O   UNL     1       0.490   9.585  23.851  0.00  0.00    +0.000 OA
ATOM      6  N   UNL     1      -0.182  10.566  21.858  0.00  0.00    +0.000 N 
ATOM      7  H   UNL     1       1.450   7.858  22.498  0.00  0.00    +0.000 HD
ATOM      8  H   UNL     1      -0.249  10.346  20.864  0.00  0.00    +0.000 HD
ENDROOT
BRANCH   1  16
ATOM      9  C   UNL     1       4.729   3.270  17.899  0.00  0.00    +0.000 C 
ATOM     10  C   UNL     1       3.790   3.796  18.923  0.00  0.00    +0.000 A 
ATOM     11  N   UNL     1       3.289   2.971  19.850  0.00  0.00    +0.000 NA
ATOM     12  N   UNL     1       2.489   3.757  20.598  0.00  0.00    +0.000 N 
ATOM     13  C   UNL     1       1.771   3.183  21.709  0.00  0.00    +0.000 C 
ATOM     14  C   UNL     1       2.453   5.065  20.184  0.00  0.00    +0.000 A 
ATOM     15  N   UNL     1       1.735   6.080  20.729  0.00  0.00    +0.000 NA
ATOM     16  C   UNL     1       1.922   7.258  20.067  0.00  0.00    +0.000 A 
ATOM     17  C   UNL     1       2.753   7.443  18.965  0.00  0.00    +0.000 A 
ATOM     18  C   UNL     1       3.476   6.365  18.432  0.00  0.00    +0.000 A 
ATOM     19  C   UNL     1       3.305   5.126  19.082  0.00  0.00    +0.000 A 
BRANCH  18  20
ATOM     20  C   UNL     1       4.357   6.567  17.232  0.00  0.00    +0.000 C 
ATOM     21  F   UNL     1       4.266   5.558  16.322  0.00  0.00    +0.000 F 
ATOM     22  F   UNL     1       4.060   7.707  16.553  0.00  0.00    +0.000 F 
ATOM     23  F   UNL     1       5.673   6.651  17.563  0.00  0.00    +0.000 F 
ENDBRANCH  18  20
ENDBRANCH   1  16
BRANCH   6  24
ATOM     24  C   UNL     1      -0.780  11.765  22.298  0.00  0.00    +0.000 A 
ATOM     25  C   UNL     1      -0.246  13.021  22.037  0.00  0.00    +0.000 A 
ATOM     26  C   UNL     1      -0.922  14.130  22.516  0.00  0.00    +0.000 A 
ATOM     27 CL   UNL     1      -0.333  15.713  22.209  0.00  0.00    +0.000 Cl
ATOM     28  N   UNL     1      -2.062  14.089  23.227  0.00  0.00    +0.000 NA
ATOM     29  C   UNL     1      -2.556  12.861  23.454  0.00  0.00    +0.000 A 
ATOM     30 CL   UNL     1      -4.000  12.839  24.381  0.00  0.00    +0.000 Cl
ATOM     31  C   UNL     1      -1.977  11.681  23.011  0.00  0.00    +0.000 A 
ENDBRANCH   6  24
TORSDOF 3
ENDMDL
MODEL 8
REMARK VINA RESULT:      -8.3      1.842      2.587
REMARK  Name = 
REMARK  5 active torsions:
REMARK  status: ('A' for Active; 'I' for Inactive)
REMARK    1  A    between atoms: C_1  and  C_2
REMARK    2  A    between atoms: N_4  and  C_5
REMARK    3  A    between atoms: C_8  and  C_9
REMARK    4  A    between atoms: N_14  and  C_15
REMARK    5  A    between atoms: C_24  and  C_25
REMARK                            x       y       z     vdW  Elec       q    Type
REMARK                         _______ _______ _______ _____ _____    ______ ____
ROOT
ATOM      1  C   UNL     1       2.065   8.472  18.322  0.00  0.00    +0.000 C 
ATOM      2  O   UNL     1       2.216   9.254  17.381  0.00  0.00    +0.000 OA
ATOM      3  N   UNL     1       1.484   8.838  19.521  0.00  0.00    +0.000 N 
ATOM      4  C   UNL     1       1.094  10.097  19.922  0.00  0.00    +0.000 C 
ATOM      5  O   UNL     1       0.699  10.252  21.074  0.00  0.00    +0.000 OA
ATOM      6  N   UNL     1       1.184  11.078  18.960  0.00  0.00    +0.000 N 
ATOM      7  H   UNL     1       1.408   8.124  20.236  0.00  0.00    +0.000 HD
ATOM      8  H   UNL     1       1.407  10.742  18.023  0.00  0.00    +0.000 HD
ENDROOT
BRANCH   1  16
ATOM      9  C   UNL     1       3.705   1.845  18.175  0.00  0.00    +0.000 C 
ATOM     10  C   UNL     1       3.935   3.240  17.716  0.00  0.00    +0.000 A 
ATOM     11  N   UNL     1       4.930   3.501  16.862  0.00  0.00    +0.000 NA
ATOM     12  N   UNL     1       4.859   4.833  16.666  0.00  0.00    +0.000 N 
ATOM     13  C   UNL     1       5.805   5.470  15.783  0.00  0.00    +0.000 C 
ATOM     14  C   UNL     1       3.851   5.444  17.369  0.00  0.00    +0.000 A 
ATOM     15  N   UNL     1       3.541   6.766  17.381  0.00  0.00    +0.000 NA
ATOM     16  C   UNL     1       2.483   7.040  18.196  0.00  0.00    +0.000 A 
ATOM     17  C   UNL     1       1.767   6.102  18.935  0.00  0.00    +0.000 A 
ATOM     18  C   UNL     1       2.122   4.745  18.894  0.00  0.00    +0.000 A 
ATOM     19  C   UNL     1       3.217   4.419  18.070  0.00  0.00    +0.000 A 
BRANCH  18  20
ATOM     20  C   UNL     1       1.357   3.740  19.708  0.00  0.00    +0.000 C 
ATOM     21  F   UNL     1       0.732   2.796  18.951  0.00  0.00    +0.000 F 
ATOM     22  F   UNL     1       2.153   3.055  20.572  0.00  0.00    +0.000 F 
ATOM     23  F   UNL     1       0.383   4.316  20.462  0.00  0.00    +0.000 F 
ENDBRANCH  18  20
ENDBRANCH   1  16
BRANCH   6  24
ATOM     24  C   UNL     1       0.930  12.457  19.109  0.00  0.00    +0.000 A 
ATOM     25  C   UNL     1       1.833  13.442  18.725  0.00  0.00    +0.000 A 
ATOM     26  C   UNL     1       1.476  14.766  18.916  0.00  0.00    +0.000 A 
ATOM     27 CL   UNL     1       2.531  16.033  18.441  0.00  0.00    +0.000 Cl
ATOM     28  N   UNL     1       0.317  15.179  19.456  0.00  0.00    +0.000 NA
ATOM     29  C   UNL     1      -0.536  14.204  19.809  0.00  0.00    +0.000 A 
ATOM     30 CL   UNL     1      -1.998  14.762  20.513  0.00  0.00    +0.000 Cl
ATOM     31  C   UNL     1      -0.296  12.847  19.650  0.00  0.00    +0.000 A 
ENDBRANCH   6  24
TORSDOF 3
ENDMDL
MODEL 9
REMARK VINA RESULT:      -8.2      2.584      3.299
REMARK  Name = 
REMARK  5 active torsions:
REMARK  status: ('A' for Active; 'I' for Inactive)
REMARK    1  A    between atoms: C_1  and  C_2
REMARK    2  A    between atoms: N_4  and  C_5
REMARK    3  A    between atoms: C_8  and  C_9
REMARK    4  A    between atoms: N_14  and  C_15
REMARK    5  A    between atoms: C_24  and  C_25
REMARK                            x       y       z     vdW  Elec       q    Type
REMARK                         _______ _______ _______ _____ _____    ______ ____
ROOT
ATOM      1  C   UNL     1       1.121   8.436  20.569  0.00  0.00    +0.000 C 
ATOM      2  O   UNL     1       0.621   9.225  19.766  0.00  0.00    +0.000 OA
ATOM      3  N   UNL     1       0.979   8.560  21.938  0.00  0.00    +0.000 N 
ATOM      4  C   UNL     1       0.389   9.591  22.637  0.00  0.00    +0.000 C 
ATOM      5  O   UNL     1       0.456   9.585  23.862  0.00  0.00    +0.000 OA
ATOM      6  N   UNL     1      -0.238  10.544  21.866  0.00  0.00    +0.000 N 
ATOM      7  H   UNL     1       1.433   7.862  22.516  0.00  0.00    +0.000 HD
ATOM      8  H   UNL     1      -0.307  10.317  20.874  0.00  0.00    +0.000 HD
ENDROOT
BRANCH   1  16
ATOM      9  C   UNL     1       4.752   3.288  17.933  0.00  0.00    +0.000 C 
ATOM     10  C   UNL     1       3.805   3.807  18.954  0.00  0.00    +0.000 A 
ATOM     11  N   UNL     1       3.310   2.978  19.880  0.00  0.00    +0.000 NA
ATOM     12  N   UNL     1       2.500   3.757  20.624  0.00  0.00    +0.000 N 
ATOM     13  C   UNL     1       1.784   3.178  21.734  0.00  0.00    +0.000 C 
ATOM     14  C   UNL     1       2.452   5.064  20.209  0.00  0.00    +0.000 A 
ATOM     15  N   UNL     1       1.723   6.073  20.750  0.00  0.00    +0.000 NA
ATOM     16  C   UNL     1       1.900   7.252  20.087  0.00  0.00    +0.000 A 
ATOM     17  C   UNL     1       2.732   7.443  18.987  0.00  0.00    +0.000 A 
ATOM     18  C   UNL     1       3.468   6.372  18.458  0.00  0.00    +0.000 A 
ATOM     19  C   UNL     1       3.307   5.132  19.109  0.00  0.00    +0.000 A 
BRANCH  18  20
ATOM     20  C   UNL     1       4.350   6.580  17.260  0.00  0.00    +0.000 C 
ATOM     21  F   UNL     1       4.241   5.590  16.332  0.00  0.00    +0.000 F 
ATOM     22  F   UNL     1       4.073   7.737  16.603  0.00  0.00    +0.000 F 
ATOM     23  F   UNL     1       5.669   6.636  17.590  0.00  0.00    +0.000 F 
ENDBRANCH  18  20
ENDBRANCH   1  16
BRANCH   6  24
ATOM     24  C   UNL     1      -0.850  11.738  22.301  0.00  0.00    +0.000 A 
ATOM     25  C   UNL     1      -2.020  11.763  23.051  0.00  0.00    +0.000 A 
ATOM     26  C   UNL     1      -2.529  12.995  23.425  0.00  0.00    +0.000 A 
ATOM     27 CL   UNL     1      -3.956  13.100  24.373  0.00  0.00    +0.000 Cl
ATOM     28  N   UNL     1      -1.981  14.181  23.112  0.00  0.00    +0.000 NA
ATOM     29  C   UNL     1      -0.847  14.122  22.394  0.00  0.00    +0.000 A 
ATOM     30 CL   UNL     1      -0.182  15.651  21.993  0.00  0.00    +0.000 Cl
ATOM     31  C   UNL     1      -0.235  12.949  21.977  0.00  0.00    +0.000 A 
ENDBRANCH   6  24
TORSDOF 3
ENDMDL
