MODEL 1
REMARK VINA RESULT:      -8.2      0.000      0.000
REMARK  Name = 
REMARK  8 active torsions:
REMARK  status: ('A' for Active; 'I' for Inactive)
REMARK    1  A    between atoms: C_1  and  C_2
REMARK    2  A    between atoms: C_6  and  C_7
REMARK    3  A    between atoms: C_7  and  N_8
REMARK    4  A    between atoms: C_11  and  N_12
REMARK    5  A    between atoms: C_14  and  C_15
REMARK    6  A    between atoms: C_15  and  C_16
REMARK    7  A    between atoms: C_16  and  O_17
REMARK    8  A    between atoms: C_22  and  C_23
REMARK                            x       y       z     vdW  Elec       q    Type
REMARK                         _______ _______ _______ _____ _____    ______ ____
ROOT
ATOM      1  N   UNL     1       4.693   5.752  17.751  0.00  0.00    +0.000 NA
ATOM      2  C   UNL     1       5.281   4.420  17.594  0.00  0.00    +0.000 C 
ATOM      3  C   UNL     1       6.798   4.427  17.415  0.00  0.00    +0.000 C 
ATOM      4  C   UNL     1       7.258   5.388  16.318  0.00  0.00    +0.000 C 
ATOM      5  C   UNL     1       6.662   6.773  16.571  0.00  0.00    +0.000 C 
ATOM      6  C   UNL     1       5.146   6.732  16.759  0.00  0.00    +0.000 C 
ENDROOT
BRANCH   4   7
ATOM      7  N   UNL     1       7.052   4.882  14.965  0.00  0.00    +0.000 N 
ATOM      8  C   UNL     1       6.108   3.983  14.559  0.00  0.00    +0.000 A 
ATOM      9  C   UNL     1       6.218   3.967  13.186  0.00  0.00    +0.000 A 
ATOM     10  N   UNL     1       7.244   4.792  12.815  0.00  0.00    +0.000 NA
ATOM     11  N   UNL     1       7.754   5.334  13.913  0.00  0.00    +0.000 NA
BRANCH   9  12
ATOM     12  C   UNL     1       5.370   3.284  12.170  0.00  0.00    +0.000 C 
BRANCH  12  13
ATOM     13  C   UNL     1       5.975   1.998  11.615  0.00  0.00    +0.000 C 
BRANCH  13  14
ATOM     14  O   UNL     1       7.395   2.104  11.502  0.00  0.00    +0.000 OA
ATOM     15  H   UNL     1       7.773   1.502  12.173  0.00  0.00    +0.000 HD
ENDBRANCH  13  14
ENDBRANCH  12  13
ENDBRANCH   9  12
ENDBRANCH   4   7
BRANCH   1  16
ATOM     16  C   UNL     1       3.210   5.693  17.849  0.00  0.00    +0.000 C 
BRANCH  16  22
ATOM     17  C   UNL     1       1.248   2.753  21.631  0.00  0.00    +0.000 C 
ATOM     18  C   UNL     1       1.702   2.990  20.213  0.00  0.00    +0.000 A 
ATOM     19  C   UNL     1       1.615   1.922  19.309  0.00  0.00    +0.000 A 
ATOM     20  C   UNL     1       1.955   2.097  17.976  0.00  0.00    +0.000 A 
ATOM     21  C   UNL     1       2.403   3.338  17.535  0.00  0.00    +0.000 A 
ATOM     22  C   UNL     1       2.593   4.417  18.424  0.00  0.00    +0.000 A 
ATOM     23  C   UNL     1       2.225   4.242  19.786  0.00  0.00    +0.000 A 
ATOM     24  C   UNL     1       2.389   5.330  20.819  0.00  0.00    +0.000 C 
ENDBRANCH  16  22
ENDBRANCH   1  16
TORSDOF 6
ENDMDL
MODEL 2
REMARK VINA RESULT:      -8.0      2.173      3.368
REMARK  Name = 
REMARK  8 active torsions:
REMARK  status: ('A' for Active; 'I' for Inactive)
REMARK    1  A    between atoms: C_1  and  C_2
REMARK    2  A    between atoms: C_6  and  C_7
REMARK    3  A    between atoms: C_7  and  N_8
REMARK    4  A    between atoms: C_11  and  N_12
REMARK    5  A    between atoms: C_14  and  C_15
REMARK    6  A    between atoms: C_15  and  C_16
REMARK    7  A    between atoms: C_16  and  O_17
REMARK    8  A    between atoms: C_22  and  C_23
REMARK                            x       y       z     vdW  Elec       q    Type
REMARK                         _______ _______ _______ _____ _____    ______ ____
ROOT
ATOM      1  N   UNL     1       4.320   6.161  18.036  0.00  0.00    +0.000 NA
ATOM      2  C   UNL     1       4.650   4.742  17.886  0.00  0.00    +0.000 C 
ATOM      3  C   UNL     1       6.143   4.436  17.999  0.00  0.00    +0.000 C 
ATOM      4  C   UNL     1       6.997   5.321  17.091  0.00  0.00    +0.000 C 
ATOM      5  C   UNL     1       6.650   6.789  17.337  0.00  0.00    +0.000 C 
ATOM      6  C   UNL     1       5.150   7.062  17.230  0.00  0.00    +0.000 C 
ENDROOT
BRANCH   4   7
ATOM      7  N   UNL     1       6.972   4.924  15.688  0.00  0.00    +0.000 N 
ATOM      8  C   UNL     1       6.188   3.960  15.119  0.00  0.00    +0.000 A 
ATOM      9  C   UNL     1       6.416   4.088  13.766  0.00  0.00    +0.000 A 
ATOM     10  N   UNL     1       7.356   5.061  13.566  0.00  0.00    +0.000 NA
ATOM     11  N   UNL     1       7.698   5.554  14.748  0.00  0.00    +0.000 NA
BRANCH   9  12
ATOM     12  C   UNL     1       5.751   3.407  12.621  0.00  0.00    +0.000 C 
BRANCH  12  13
ATOM     13  C   UNL     1       6.708   2.651  11.704  0.00  0.00    +0.000 C 
BRANCH  13  14
ATOM     14  O   UNL     1       6.197   1.355  11.385  0.00  0.00    +0.000 OA
ATOM     15  H   UNL     1       5.417   1.497  10.813  0.00  0.00    +0.000 HD
ENDBRANCH  13  14
ENDBRANCH  12  13
ENDBRANCH   9  12
ENDBRANCH   4   7
BRANCH   1  16
ATOM     16  C   UNL     1       2.866   6.412  17.845  0.00  0.00    +0.000 C 
BRANCH  16  22
ATOM     17  C   UNL     1       0.740   8.855  21.885  0.00  0.00    +0.000 C 
ATOM     18  C   UNL     1       1.208   8.783  20.453  0.00  0.00    +0.000 A 
ATOM     19  C   UNL     1       1.030   9.916  19.648  0.00  0.00    +0.000 A 
ATOM     20  C   UNL     1       1.500   9.935  18.343  0.00  0.00    +0.000 A 
ATOM     21  C   UNL     1       2.137   8.813  17.823  0.00  0.00    +0.000 A 
ATOM     22  C   UNL     1       2.260   7.619  18.564  0.00  0.00    +0.000 A 
ATOM     23  C   UNL     1       1.797   7.609  19.908  0.00  0.00    +0.000 A 
ATOM     24  C   UNL     1       1.877   6.384  20.787  0.00  0.00    +0.000 C 
ENDBRANCH  16  22
ENDBRANCH   1  16
TORSDOF 6
ENDMDL
MODEL 3
REMARK VINA RESULT:      -7.9      0.732      1.702
REMARK  Name = 
REMARK  8 active torsions:
REMARK  status: ('A' for Active; 'I' for Inactive)
REMARK    1  A    between atoms: C_1  and  C_2
REMARK    2  A    between atoms: C_6  and  C_7
REMARK    3  A    between atoms: C_7  and  N_8
REMARK    4  A    between atoms: C_11  and  N_12
REMARK    5  A    between atoms: C_14  and  C_15
REMARK    6  A    between atoms: C_15  and  C_16
REMARK    7  A    between atoms: C_16  and  O_17
REMARK    8  A    between atoms: C_22  and  C_23
REMARK                            x       y       z     vdW  Elec       q    Type
REMARK                         _______ _______ _______ _____ _____    ______ ____
ROOT
ATOM      1  N   UNL     1       4.905   6.029  18.033  0.00  0.00    +0.000 NA
ATOM      2  C   UNL     1       5.250   4.616  17.858  0.00  0.00    +0.000 C 
ATOM      3  C   UNL     1       6.743   4.362  17.655  0.00  0.00    +0.000 C 
ATOM      4  C   UNL     1       7.347   5.238  16.557  0.00  0.00    +0.000 C 
ATOM      5  C   UNL     1       7.004   6.703  16.828  0.00  0.00    +0.000 C 
ATOM      6  C   UNL     1       5.507   6.924  17.039  0.00  0.00    +0.000 C 
ENDROOT
BRANCH   4   7
ATOM      7  N   UNL     1       7.037   4.788  15.205  0.00  0.00    +0.000 N 
ATOM      8  C   UNL     1       6.063   3.903  14.836  0.00  0.00    +0.000 A 
ATOM      9  C   UNL     1       6.068   3.944  13.459  0.00  0.00    +0.000 A 
ATOM     10  N   UNL     1       7.063   4.786  13.045  0.00  0.00    +0.000 NA
ATOM     11  N   UNL     1       7.656   5.284  14.121  0.00  0.00    +0.000 NA
BRANCH   9  12
ATOM     12  C   UNL     1       5.143   3.301  12.484  0.00  0.00    +0.000 C 
BRANCH  12  13
ATOM     13  C   UNL     1       5.834   2.378  11.485  0.00  0.00    +0.000 C 
BRANCH  13  14
ATOM     14  O   UNL     1       7.241   2.321  11.725  0.00  0.00    +0.000 OA
ATOM     15  H   UNL     1       7.366   1.752  12.510  0.00  0.00    +0.000 HD
ENDBRANCH  13  14
ENDBRANCH  12  13
ENDBRANCH   9  12
ENDBRANCH   4   7
BRANCH   1  16
ATOM     16  C   UNL     1       3.436   6.227  18.153  0.00  0.00    +0.000 C 
BRANCH  16  22
ATOM     17  C   UNL     1       0.481   2.039  18.884  0.00  0.00    +0.000 C 
ATOM     18  C   UNL     1       1.217   3.264  19.365  0.00  0.00    +0.000 A 
ATOM     19  C   UNL     1       1.152   3.574  20.730  0.00  0.00    +0.000 A 
ATOM     20  C   UNL     1       1.861   4.650  21.244  0.00  0.00    +0.000 A 
ATOM     21  C   UNL     1       2.630   5.438  20.394  0.00  0.00    +0.000 A 
ATOM     22  C   UNL     1       2.657   5.220  19.001  0.00  0.00    +0.000 A 
ATOM     23  C   UNL     1       1.945   4.105  18.479  0.00  0.00    +0.000 A 
ATOM     24  C   UNL     1       1.905   3.784  17.005  0.00  0.00    +0.000 C 
ENDBRANCH  16  22
ENDBRANCH   1  16
TORSDOF 6
ENDMDL
MODEL 4
REMARK VINA RESULT:      -7.7      2.357      3.564
REMARK  Name = 
REMARK  8 active torsions:
REMARK  status: ('A' for Active; 'I' for Inactive)
REMARK    1  A    between atoms: C_1  and  C_2
REMARK    2  A    between atoms: C_6  and  C_7
REMARK    3  A    between atoms: C_7  and  N_8
REMARK    4  A    between atoms: C_11  and  N_12
REMARK    5  A    between atoms: C_14  and  C_15
REMARK    6  A    between atoms: C_15  and  C_16
REMARK    7  A    between atoms: C_16  and  O_17
REMARK    8  A    between atoms: C_22  and  C_23
REMARK                            x       y       z     vdW  Elec       q    Type
REMARK                         _______ _______ _______ _____ _____    ______ ____
ROOT
ATOM      1  N   UNL     1       4.369   6.492  18.015  0.00  0.00    +0.000 NA
ATOM      2  C   UNL     1       4.162   5.091  17.645  0.00  0.00    +0.000 C 
ATOM      3  C   UNL     1       5.377   4.197  17.892  0.00  0.00    +0.000 C 
ATOM      4  C   UNL     1       6.661   4.765  17.286  0.00  0.00    +0.000 C 
ATOM      5  C   UNL     1       6.851   6.207  17.757  0.00  0.00    +0.000 C 
ATOM      6  C   UNL     1       5.617   7.072  17.508  0.00  0.00    +0.000 C 
ENDROOT
BRANCH   4   7
ATOM      7  N   UNL     1       6.762   4.586  15.842  0.00  0.00    +0.000 N 
ATOM      8  C   UNL     1       6.116   3.652  15.082  0.00  0.00    +0.000 A 
ATOM      9  C   UNL     1       6.411   4.004  13.784  0.00  0.00    +0.000 A 
ATOM     10  N   UNL     1       7.258   5.078  13.798  0.00  0.00    +0.000 NA
ATOM     11  N   UNL     1       7.475   5.415  15.062  0.00  0.00    +0.000 NA
BRANCH   9  12
ATOM     12  C   UNL     1       5.890   3.447  12.504  0.00  0.00    +0.000 C 
BRANCH  12  13
ATOM     13  C   UNL     1       6.975   3.055  11.506  0.00  0.00    +0.000 C 
BRANCH  13  14
ATOM     14  O   UNL     1       7.079   1.634  11.392  0.00  0.00    +0.000 OA
ATOM     15  H   UNL     1       6.710   1.261  12.217  0.00  0.00    +0.000 HD
ENDBRANCH  13  14
ENDBRANCH  12  13
ENDBRANCH   9  12
ENDBRANCH   4   7
BRANCH   1  16
ATOM     16  C   UNL     1       3.184   7.330  17.686  0.00  0.00    +0.000 C 
BRANCH  16  22
ATOM     17  C   UNL     1       0.122  10.637  20.234  0.00  0.00    +0.000 C 
ATOM     18  C   UNL     1       0.868   9.334  20.093  0.00  0.00    +0.000 A 
ATOM     19  C   UNL     1       0.795   8.419  21.151  0.00  0.00    +0.000 A 
ATOM     20  C   UNL     1       1.405   7.177  21.053  0.00  0.00    +0.000 A 
ATOM     21  C   UNL     1       2.109   6.843  19.900  0.00  0.00    +0.000 A 
ATOM     22  C   UNL     1       2.285   7.763  18.846  0.00  0.00    +0.000 A 
ATOM     23  C   UNL     1       1.643   9.028  18.940  0.00  0.00    +0.000 A 
ATOM     24  C   UNL     1       1.769  10.086  17.870  0.00  0.00    +0.000 C 
ENDBRANCH  16  22
ENDBRANCH   1  16
TORSDOF 6
ENDMDL
MODEL 5
REMARK VINA RESULT:      -7.6      1.171      2.096
REMARK  Name = 
REMARK  8 active torsions:
REMARK  status: ('A' for Active; 'I' for Inactive)
REMARK    1  A    between atoms: C_1  and  C_2
REMARK    2  A    between atoms: C_6  and  C_7
REMARK    3  A    between atoms: C_7  and  N_8
REMARK    4  A    between atoms: C_11  and  N_12
REMARK    5  A    between atoms: C_14  and  C_15
REMARK    6  A    between atoms: C_15  and  C_16
REMARK    7  A    between atoms: C_16  and  O_17
REMARK    8  A    between atoms: C_22  and  C_23
REMARK                            x       y       z     vdW  Elec       q    Type
REMARK                         _______ _______ _______ _____ _____    ______ ____
ROOT
ATOM      1  N   UNL     1       5.449   5.314  18.894  0.00  0.00    +0.000 NA
ATOM      2  C   UNL     1       6.840   5.145  18.469  0.00  0.00    +0.000 C 
ATOM      3  C   UNL     1       7.360   6.276  17.582  0.00  0.00    +0.000 C 
ATOM      4  C   UNL     1       6.434   6.575  16.403  0.00  0.00    +0.000 C 
ATOM      5  C   UNL     1       5.012   6.801  16.917  0.00  0.00    +0.000 C 
ATOM      6  C   UNL     1       4.524   5.661  17.810  0.00  0.00    +0.000 C 
ENDROOT
BRANCH   4   7
ATOM      7  N   UNL     1       6.533   5.609  15.314  0.00  0.00    +0.000 N 
ATOM      8  C   UNL     1       5.548   4.780  14.857  0.00  0.00    +0.000 A 
ATOM      9  C   UNL     1       6.084   4.200  13.729  0.00  0.00    +0.000 A 
ATOM     10  N   UNL     1       7.370   4.639  13.575  0.00  0.00    +0.000 NA
ATOM     11  N   UNL     1       7.637   5.488  14.557  0.00  0.00    +0.000 NA
BRANCH   9  12
ATOM     12  C   UNL     1       5.445   3.308  12.722  0.00  0.00    +0.000 C 
BRANCH  12  13
ATOM     13  C   UNL     1       6.412   2.748  11.682  0.00  0.00    +0.000 C 
BRANCH  13  14
ATOM     14  O   UNL     1       6.197   1.350  11.481  0.00  0.00    +0.000 OA
ATOM     15  H   UNL     1       5.707   1.262  10.640  0.00  0.00    +0.000 HD
ENDBRANCH  13  14
ENDBRANCH  12  13
ENDBRANCH   9  12
ENDBRANCH   4   7
BRANCH   1  16
ATOM     16  C   UNL     1       4.971   4.153  19.692  0.00  0.00    +0.000 C 
BRANCH  16  22
ATOM     17  C   UNL     1       0.462   1.821  18.677  0.00  0.00    +0.000 C 
ATOM     18  C   UNL     1       1.303   2.898  19.313  0.00  0.00    +0.000 A 
ATOM     19  C   UNL     1       0.648   3.883  20.065  0.00  0.00    +0.000 A 
ATOM     20  C   UNL     1       1.373   4.862  20.729  0.00  0.00    +0.000 A 
ATOM     21  C   UNL     1       2.761   4.877  20.634  0.00  0.00    +0.000 A 
ATOM     22  C   UNL     1       3.459   3.962  19.819  0.00  0.00    +0.000 A 
ATOM     23  C   UNL     1       2.716   2.947  19.154  0.00  0.00    +0.000 A 
ATOM     24  C   UNL     1       3.363   1.921  18.257  0.00  0.00    +0.000 C 
ENDBRANCH  16  22
ENDBRANCH   1  16
TORSDOF 6
ENDMDL
MODEL 6
REMARK VINA RESULT:      -7.5      1.234      2.030
REMARK  Name = 
REMARK  8 active torsions:
REMARK  status: ('A' for Active; 'I' for Inactive)
REMARK    1  A    between atoms: C_1  and  C_2
REMARK    2  A    between atoms: C_6  and  C_7
REMARK    3  A    between atoms: C_7  and  N_8
REMARK    4  A    between atoms: C_11  and  N_12
REMARK    5  A    between atoms: C_14  and  C_15
REMARK    6  A    between atoms: C_15  and  C_16
REMARK    7  A    between atoms: C_16  and  O_17
REMARK    8  A    between atoms: C_22  and  C_23
REMARK                            x       y       z     vdW  Elec       q    Type
REMARK                         _______ _______ _______ _____ _____    ______ ____
ROOT
ATOM      1  N   UNL     1       4.602   6.278  18.673  0.00  0.00    +0.000 NA
ATOM      2  C   UNL     1       5.131   4.913  18.684  0.00  0.00    +0.000 C 
ATOM      3  C   UNL     1       6.612   4.817  18.319  0.00  0.00    +0.000 C 
ATOM      4  C   UNL     1       6.947   5.550  17.019  0.00  0.00    +0.000 C 
ATOM      5  C   UNL     1       6.423   6.984  17.094  0.00  0.00    +0.000 C 
ATOM      6  C   UNL     1       4.945   7.048  17.473  0.00  0.00    +0.000 C 
ENDROOT
BRANCH   4   7
ATOM      7  N   UNL     1       6.553   4.827  15.815  0.00  0.00    +0.000 N 
ATOM      8  C   UNL     1       6.888   5.131  14.526  0.00  0.00    +0.000 A 
ATOM      9  C   UNL     1       6.418   4.067  13.789  0.00  0.00    +0.000 A 
ATOM     10  N   UNL     1       5.772   3.200  14.627  0.00  0.00    +0.000 NA
ATOM     11  N   UNL     1       5.849   3.683  15.860  0.00  0.00    +0.000 NA
BRANCH   9  12
ATOM     12  C   UNL     1       6.597   3.756  12.344  0.00  0.00    +0.000 C 
BRANCH  12  13
ATOM     13  C   UNL     1       5.502   2.871  11.756  0.00  0.00    +0.000 C 
BRANCH  13  14
ATOM     14  O   UNL     1       5.894   1.497  11.759  0.00  0.00    +0.000 OA
ATOM     15  H   UNL     1       5.259   1.026  11.184  0.00  0.00    +0.000 HD
ENDBRANCH  13  14
ENDBRANCH  12  13
ENDBRANCH   9  12
ENDBRANCH   4   7
BRANCH   1  16
ATOM     16  C   UNL     1       3.143   6.308  18.964  0.00  0.00    +0.000 C 
BRANCH  16  22
ATOM     17  C   UNL     1       0.482   1.873  18.732  0.00  0.00    +0.000 C 
ATOM     18  C   UNL     1       1.218   2.960  19.474  0.00  0.00    +0.000 A 
ATOM     19  C   UNL     1       1.309   2.857  20.868  0.00  0.00    +0.000 A 
ATOM     20  C   UNL     1       2.030   3.790  21.599  0.00  0.00    +0.000 A 
ATOM     21  C   UNL     1       2.654   4.847  20.944  0.00  0.00    +0.000 A 
ATOM     22  C   UNL     1       2.518   5.042  19.554  0.00  0.00    +0.000 A 
ATOM     23  C   UNL     1       1.795   4.074  18.804  0.00  0.00    +0.000 A 
ATOM     24  C   UNL     1       1.588   4.190  17.313  0.00  0.00    +0.000 C 
ENDBRANCH  16  22
ENDBRANCH   1  16
TORSDOF 6
ENDMDL
MODEL 7
REMARK VINA RESULT:      -7.2      4.402      6.744
REMARK  Name = 
REMARK  8 active torsions:
REMARK  status: ('A' for Active; 'I' for Inactive)
REMARK    1  A    between atoms: C_1  and  C_2
REMARK    2  A    between atoms: C_6  and  C_7
REMARK    3  A    between atoms: C_7  and  N_8
REMARK    4  A    between atoms: C_11  and  N_12
REMARK    5  A    between atoms: C_14  and  C_15
REMARK    6  A    between atoms: C_15  and  C_16
REMARK    7  A    between atoms: C_16  and  O_17
REMARK    8  A    between atoms: C_22  and  C_23
REMARK                            x       y       z     vdW  Elec       q    Type
REMARK                         _______ _______ _______ _____ _____    ______ ____
ROOT
ATOM      1  N   UNL     1       1.509   7.046  20.040  0.00  0.00    +0.000 NA
ATOM      2  C   UNL     1       2.203   7.280  18.772  0.00  0.00    +0.000 C 
ATOM      3  C   UNL     1       2.057   6.140  17.765  0.00  0.00    +0.000 C 
ATOM      4  C   UNL     1       2.404   4.776  18.363  0.00  0.00    +0.000 C 
ATOM      5  C   UNL     1       1.604   4.566  19.650  0.00  0.00    +0.000 C 
ATOM      6  C   UNL     1       1.759   5.727  20.631  0.00  0.00    +0.000 C 
ENDROOT
BRANCH   4   7
ATOM      7  N   UNL     1       3.836   4.537  18.500  0.00  0.00    +0.000 N 
ATOM      8  C   UNL     1       4.837   5.094  17.756  0.00  0.00    +0.000 A 
ATOM      9  C   UNL     1       5.996   4.685  18.379  0.00  0.00    +0.000 A 
ATOM     10  N   UNL     1       5.670   3.861  19.421  0.00  0.00    +0.000 NA
ATOM     11  N   UNL     1       4.348   3.768  19.475  0.00  0.00    +0.000 NA
BRANCH   9  12
ATOM     12  C   UNL     1       7.408   5.075  18.115  0.00  0.00    +0.000 C 
BRANCH  12  13
ATOM     13  C   UNL     1       7.997   6.027  19.151  0.00  0.00    +0.000 C 
BRANCH  13  14
ATOM     14  O   UNL     1       8.003   5.433  20.450  0.00  0.00    +0.000 OA
ATOM     15  H   UNL     1       8.894   5.588  20.822  0.00  0.00    +0.000 HD
ENDBRANCH  13  14
ENDBRANCH  12  13
ENDBRANCH   9  12
ENDBRANCH   4   7
BRANCH   1  16
ATOM     16  C   UNL     1       1.743   8.151  21.009  0.00  0.00    +0.000 C 
BRANCH  16  22
ATOM     17  C   UNL     1      -1.514  11.685  22.933  0.00  0.00    +0.000 C 
ATOM     18  C   UNL     1      -0.761  11.027  21.806  0.00  0.00    +0.000 A 
ATOM     19  C   UNL     1      -0.948  11.529  20.511  0.00  0.00    +0.000 A 
ATOM     20  C   UNL     1      -0.233  11.008  19.442  0.00  0.00    +0.000 A 
ATOM     21  C   UNL     1       0.665   9.967  19.654  0.00  0.00    +0.000 A 
ATOM     22  C   UNL     1       0.822   9.370  20.922  0.00  0.00    +0.000 A 
ATOM     23  C   UNL     1       0.103   9.917  22.020  0.00  0.00    +0.000 A 
ATOM     24  C   UNL     1       0.197   9.352  23.416  0.00  0.00    +0.000 C 
ENDBRANCH  16  22
ENDBRANCH   1  16
TORSDOF 6
ENDMDL
MODEL 8
REMARK VINA RESULT:      -7.2      5.819      8.448
REMARK  Name = 
REMARK  8 active torsions:
REMARK  status: ('A' for Active; 'I' for Inactive)
REMARK    1  A    between atoms: C_1  and  C_2
REMARK    2  A    between atoms: C_6  and  C_7
REMARK    3  A    between atoms: C_7  and  N_8
REMARK    4  A    between atoms: C_11  and  N_12
REMARK    5  A    between atoms: C_14  and  C_15
REMARK    6  A    between atoms: C_15  and  C_16
REMARK    7  A    between atoms: C_16  and  O_17
REMARK    8  A    between atoms: C_22  and  C_23
REMARK                            x       y       z     vdW  Elec       q    Type
REMARK                         _______ _______ _______ _____ _____    ______ ____
ROOT
ATOM      1  N   UNL     1       1.443   8.029  19.558  0.00  0.00    +0.000 NA
ATOM      2  C   UNL     1       1.095   8.685  20.820  0.00  0.00    +0.000 C 
ATOM      3  C   UNL     1      -0.034   9.708  20.698  0.00  0.00    +0.000 C 
ATOM      4  C   UNL     1       0.204  10.718  19.575  0.00  0.00    +0.000 C 
ATOM      5  C   UNL     1       0.502   9.972  18.274  0.00  0.00    +0.000 C 
ATOM      6  C   UNL     1       1.626   8.948  18.430  0.00  0.00    +0.000 C 
ENDROOT
BRANCH   4   7
ATOM      7  N   UNL     1       1.174  11.755  19.909  0.00  0.00    +0.000 N 
ATOM      8  C   UNL     1       1.849  12.562  19.037  0.00  0.00    +0.000 A 
ATOM      9  C   UNL     1       2.502  13.468  19.844  0.00  0.00    +0.000 A 
ATOM     10  N   UNL     1       2.258  13.151  21.152  0.00  0.00    +0.000 NA
ATOM     11  N   UNL     1       1.457  12.094  21.178  0.00  0.00    +0.000 NA
BRANCH   9  12
ATOM     12  C   UNL     1       3.290  14.676  19.475  0.00  0.00    +0.000 C 
BRANCH  12  13
ATOM     13  C   UNL     1       3.591  14.794  17.984  0.00  0.00    +0.000 C 
BRANCH  13  14
ATOM     14  O   UNL     1       4.907  14.322  17.687  0.00  0.00    +0.000 OA
ATOM     15  H   UNL     1       4.896  13.356  17.837  0.00  0.00    +0.000 HD
ENDBRANCH  13  14
ENDBRANCH  12  13
ENDBRANCH   9  12
ENDBRANCH   4   7
BRANCH   1  16
ATOM     16  C   UNL     1       2.593   7.098  19.719  0.00  0.00    +0.000 C 
BRANCH  16  22
ATOM     17  C   UNL     1       2.827   2.385  17.590  0.00  0.00    +0.000 C 
ATOM     18  C   UNL     1       2.359   3.364  18.637  0.00  0.00    +0.000 A 
ATOM     19  C   UNL     1       1.511   2.889  19.647  0.00  0.00    +0.000 A 
ATOM     20  C   UNL     1       1.100   3.725  20.674  0.00  0.00    +0.000 A 
ATOM     21  C   UNL     1       1.519   5.051  20.694  0.00  0.00    +0.000 A 
ATOM     22  C   UNL     1       2.299   5.599  19.654  0.00  0.00    +0.000 A 
ATOM     23  C   UNL     1       2.736   4.735  18.612  0.00  0.00    +0.000 A 
ATOM     24  C   UNL     1       3.570   5.219  17.451  0.00  0.00    +0.000 C 
ENDBRANCH  16  22
ENDBRANCH   1  16
TORSDOF 6
ENDMDL
MODEL 9
REMARK VINA RESULT:      -7.2      5.874      8.406
REMARK  Name = 
REMARK  8 active torsions:
REMARK  status: ('A' for Active; 'I' for Inactive)
REMARK    1  A    between atoms: C_1  and  C_2
REMARK    2  A    between atoms: C_6  and  C_7
REMARK    3  A    between atoms: C_7  and  N_8
REMARK    4  A    between atoms: C_11  and  N_12
REMARK    5  A    between atoms: C_14  and  C_15
REMARK    6  A    between atoms: C_15  and  C_16
REMARK    7  A    between atoms: C_16  and  O_17
REMARK    8  A    between atoms: C_22  and  C_23
REMARK                            x       y       z     vdW  Elec       q    Type
REMARK                         _______ _______ _______ _____ _____    ______ ____
ROOT
ATOM      1  N   UNL     1       1.612   7.941  19.393  0.00  0.00    +0.000 NA
ATOM      2  C   UNL     1       1.231   8.546  20.671  0.00  0.00    +0.000 C 
ATOM      3  C   UNL     1       0.061   9.525  20.570  0.00  0.00    +0.000 C 
ATOM      4  C   UNL     1       0.264  10.575  19.477  0.00  0.00    +0.000 C 
ATOM      5  C   UNL     1       0.599   9.879  18.158  0.00  0.00    +0.000 C 
ATOM      6  C   UNL     1       1.763   8.898  18.293  0.00  0.00    +0.000 C 
ENDROOT
BRANCH   4   7
ATOM      7  N   UNL     1       1.188  11.641  19.847  0.00  0.00    +0.000 N 
ATOM      8  C   UNL     1       1.905  12.438  19.000  0.00  0.00    +0.000 A 
ATOM      9  C   UNL     1       2.484  13.379  19.823  0.00  0.00    +0.000 A 
ATOM     10  N   UNL     1       2.157  13.093  21.120  0.00  0.00    +0.000 NA
ATOM     11  N   UNL     1       1.376  12.021  21.122  0.00  0.00    +0.000 NA
BRANCH   9  12
ATOM     12  C   UNL     1       3.272  14.594  19.474  0.00  0.00    +0.000 C 
BRANCH  12  13
ATOM     13  C   UNL     1       2.831  15.275  18.182  0.00  0.00    +0.000 C 
BRANCH  13  14
ATOM     14  O   UNL     1       3.753  15.013  17.122  0.00  0.00    +0.000 OA
ATOM     15  H   UNL     1       3.796  14.041  17.026  0.00  0.00    +0.000 HD
ENDBRANCH  13  14
ENDBRANCH  12  13
ENDBRANCH   9  12
ENDBRANCH   4   7
BRANCH   1  16
ATOM     16  C   UNL     1       2.799   7.054  19.535  0.00  0.00    +0.000 C 
BRANCH  16  22
ATOM     17  C   UNL     1       1.235   2.170  18.829  0.00  0.00    +0.000 C 
ATOM     18  C   UNL     1       2.070   3.376  18.481  0.00  0.00    +0.000 A 
ATOM     19  C   UNL     1       2.966   3.266  17.409  0.00  0.00    +0.000 A 
ATOM     20  C   UNL     1       3.713   4.361  16.999  0.00  0.00    +0.000 A 
ATOM     21  C   UNL     1       3.585   5.574  17.668  0.00  0.00    +0.000 A 
ATOM     22  C   UNL     1       2.763   5.710  18.807  0.00  0.00    +0.000 A 
ATOM     23  C   UNL     1       1.983   4.592  19.214  0.00  0.00    +0.000 A 
ATOM     24  C   UNL     1       1.075   4.630  20.418  0.00  0.00    +0.000 C 
ENDBRANCH  16  22
ENDBRANCH   1  16
TORSDOF 6
ENDMDL
