MODEL 1
REMARK VINA RESULT:      -8.7      0.000      0.000
REMARK  Name = 
REMARK  3 active torsions:
REMARK  status: ('A' for Active; 'I' for Inactive)
REMARK    1  A    between atoms: C_1  and  C_2
REMARK    2  A    between atoms: C_7  and  N_8
REMARK    3  A    between atoms: C_14  and  N_15
REMARK                            x       y       z     vdW  Elec       q    Type
REMARK                         _______ _______ _______ _____ _____    ______ ____
ROOT
ATOM      1  N   UNL     1       2.164   7.232  18.502  0.00  0.00    +0.000 N 
ATOM      2  C   UNL     1       2.031   8.548  18.122  0.00  0.00    +0.000 C 
ATOM      3  O   UNL     1       2.555   9.054  17.135  0.00  0.00    +0.000 OA
ATOM      4  N   UNL     1       1.244   9.322  18.969  0.00  0.00    +0.000 N 
ATOM      5  C   UNL     1       0.886  10.665  18.493  0.00  0.00    +0.000 C 
ATOM      6  C   UNL     1       1.256  11.739  19.499  0.00  0.00    +0.000 C 
ATOM      7  C   UNL     1       0.743  11.428  20.910  0.00  0.00    +0.000 C 
ATOM      8  C   UNL     1       1.182  10.027  21.345  0.00  0.00    +0.000 C 
ATOM      9  C   UNL     1       0.864   8.936  20.333  0.00  0.00    +0.000 C 
ATOM     10  H   UNL     1       1.443   6.868  19.104  0.00  0.00    +0.000 HD
ENDROOT
BRANCH   7  11
ATOM     11  N   UNL     1      -0.703  11.697  21.077  0.00  0.00    +0.000 N 
ATOM     12  C   UNL     1      -1.526  12.011  20.027  0.00  0.00    +0.000 A 
ATOM     13  N   UNL     1      -2.755  12.383  20.102  0.00  0.00    +0.000 NA
ATOM     14  C   UNL     1      -3.323  12.520  21.371  0.00  0.00    +0.000 A 
ATOM     15  C   UNL     1      -4.612  13.049  21.517  0.00  0.00    +0.000 A 
ATOM     16 CL   UNL     1      -5.532  13.557  20.142  0.00  0.00    +0.000 Cl
ATOM     17  C   UNL     1      -5.180  13.199  22.784  0.00  0.00    +0.000 A 
ATOM     18  C   UNL     1      -4.474  12.807  23.919  0.00  0.00    +0.000 A 
ATOM     19  C   UNL     1      -3.192  12.275  23.790  0.00  0.00    +0.000 A 
ATOM     20  C   UNL     1      -2.621  12.149  22.518  0.00  0.00    +0.000 A 
ATOM     21  C   UNL     1      -1.232  11.667  22.364  0.00  0.00    +0.000 A 
ATOM     22  O   UNL     1      -0.619  11.284  23.357  0.00  0.00    +0.000 OA
ENDBRANCH   7  11
BRANCH   1  29
ATOM     23  C   UNL     1       1.433   4.391  18.541  0.00  0.00    +0.000 C 
ATOM     24  C   UNL     1       2.729   4.919  17.981  0.00  0.00    +0.000 A 
ATOM     25  C   UNL     1       3.647   3.988  17.459  0.00  0.00    +0.000 A 
ATOM     26  C   UNL     1       4.876   4.391  16.945  0.00  0.00    +0.000 A 
ATOM     27  C   UNL     1       5.214   5.734  16.955  0.00  0.00    +0.000 A 
ATOM     28  C   UNL     1       4.319   6.666  17.472  0.00  0.00    +0.000 A 
ATOM     29  C   UNL     1       3.071   6.284  17.978  0.00  0.00    +0.000 A 
ENDBRANCH   1  29
TORSDOF 2
ENDMDL
MODEL 2
REMARK VINA RESULT:      -8.7      3.525      4.430
REMARK  Name = 
REMARK  3 active torsions:
REMARK  status: ('A' for Active; 'I' for Inactive)
REMARK    1  A    between atoms: C_1  and  C_2
REMARK    2  A    between atoms: C_7  and  N_8
REMARK    3  A    between atoms: C_14  and  N_15
REMARK                            x       y       z     vdW  Elec       q    Type
REMARK                         _______ _______ _______ _____ _____    ______ ____
ROOT
ATOM      1  N   UNL     1       2.646   6.552  18.666  0.00  0.00    +0.000 N 
ATOM      2  C   UNL     1       1.972   7.041  19.763  0.00  0.00    +0.000 C 
ATOM      3  O   UNL     1       1.675   6.387  20.757  0.00  0.00    +0.000 OA
ATOM      4  N   UNL     1       1.610   8.381  19.675  0.00  0.00    +0.000 N 
ATOM      5  C   UNL     1       1.094   9.007  20.899  0.00  0.00    +0.000 C 
ATOM      6  C   UNL     1      -0.254   9.666  20.673  0.00  0.00    +0.000 C 
ATOM      7  C   UNL     1      -0.259  10.598  19.455  0.00  0.00    +0.000 C 
ATOM      8  C   UNL     1       0.263   9.865  18.216  0.00  0.00    +0.000 C 
ATOM      9  C   UNL     1       1.591   9.156  18.428  0.00  0.00    +0.000 C 
ATOM     10  H   UNL     1       3.115   7.235  18.093  0.00  0.00    +0.000 HD
ENDROOT
BRANCH   7  11
ATOM     11  N   UNL     1       0.394  11.901  19.716  0.00  0.00    +0.000 N 
ATOM     12  C   UNL     1       1.353  12.072  20.680  0.00  0.00    +0.000 A 
ATOM     13  N   UNL     1       1.871  13.187  21.056  0.00  0.00    +0.000 NA
ATOM     14  C   UNL     1       1.403  14.362  20.461  0.00  0.00    +0.000 A 
ATOM     15  C   UNL     1       1.834  15.611  20.925  0.00  0.00    +0.000 A 
ATOM     16 CL   UNL     1       2.943  15.742  22.247  0.00  0.00    +0.000 Cl
ATOM     17  C   UNL     1       1.361  16.789  20.340  0.00  0.00    +0.000 A 
ATOM     18  C   UNL     1       0.464  16.731  19.276  0.00  0.00    +0.000 A 
ATOM     19  C   UNL     1       0.029  15.496  18.801  0.00  0.00    +0.000 A 
ATOM     20  C   UNL     1       0.491  14.321  19.405  0.00  0.00    +0.000 A 
ATOM     21  C   UNL     1      -0.021  13.003  18.974  0.00  0.00    +0.000 A 
ATOM     22  O   UNL     1      -0.782  12.944  18.011  0.00  0.00    +0.000 OA
ENDBRANCH   7  11
BRANCH   1  29
ATOM     23  C   UNL     1       5.335   5.514  19.211  0.00  0.00    +0.000 C 
ATOM     24  C   UNL     1       4.213   4.685  18.642  0.00  0.00    +0.000 A 
ATOM     25  C   UNL     1       4.478   3.336  18.343  0.00  0.00    +0.000 A 
ATOM     26  C   UNL     1       3.503   2.509  17.793  0.00  0.00    +0.000 A 
ATOM     27  C   UNL     1       2.246   3.021  17.522  0.00  0.00    +0.000 A 
ATOM     28  C   UNL     1       1.969   4.354  17.808  0.00  0.00    +0.000 A 
ATOM     29  C   UNL     1       2.930   5.199  18.376  0.00  0.00    +0.000 A 
ENDBRANCH   1  29
TORSDOF 2
ENDMDL
MODEL 3
REMARK VINA RESULT:      -8.4      3.503      4.529
REMARK  Name = 
REMARK  3 active torsions:
REMARK  status: ('A' for Active; 'I' for Inactive)
REMARK    1  A    between atoms: C_1  and  C_2
REMARK    2  A    between atoms: C_7  and  N_8
REMARK    3  A    between atoms: C_14  and  N_15
REMARK                            x       y       z     vdW  Elec       q    Type
REMARK                         _______ _______ _______ _____ _____    ______ ____
ROOT
ATOM      1  N   UNL     1       2.740   6.278  18.629  0.00  0.00    +0.000 N 
ATOM      2  C   UNL     1       2.082   6.852  19.693  0.00  0.00    +0.000 C 
ATOM      3  O   UNL     1       1.737   6.260  20.711  0.00  0.00    +0.000 OA
ATOM      4  N   UNL     1       1.796   8.204  19.540  0.00  0.00    +0.000 N 
ATOM      5  C   UNL     1       1.300   8.912  20.728  0.00  0.00    +0.000 C 
ATOM      6  C   UNL     1      -0.006   9.634  20.453  0.00  0.00    +0.000 C 
ATOM      7  C   UNL     1       0.056  10.509  19.195  0.00  0.00    +0.000 C 
ATOM      8  C   UNL     1       0.550   9.693  17.997  0.00  0.00    +0.000 C 
ATOM      9  C   UNL     1       1.835   8.922  18.260  0.00  0.00    +0.000 C 
ATOM     10  H   UNL     1       3.253   6.907  18.032  0.00  0.00    +0.000 HD
ENDROOT
BRANCH   7  11
ATOM     11  N   UNL     1       0.776  11.785  19.407  0.00  0.00    +0.000 N 
ATOM     12  C   UNL     1       1.890  12.137  18.690  0.00  0.00    +0.000 A 
ATOM     13  N   UNL     1       2.645  13.156  18.900  0.00  0.00    +0.000 NA
ATOM     14  C   UNL     1       2.339  13.988  19.980  0.00  0.00    +0.000 A 
ATOM     15  C   UNL     1       3.201  15.034  20.334  0.00  0.00    +0.000 A 
ATOM     16 CL   UNL     1       4.667  15.322  19.460  0.00  0.00    +0.000 Cl
ATOM     17  C   UNL     1       2.906  15.862  21.421  0.00  0.00    +0.000 A 
ATOM     18  C   UNL     1       1.739  15.663  22.155  0.00  0.00    +0.000 A 
ATOM     19  C   UNL     1       0.870  14.630  21.812  0.00  0.00    +0.000 A 
ATOM     20  C   UNL     1       1.183  13.792  20.736  0.00  0.00    +0.000 A 
ATOM     21  C   UNL     1       0.320  12.638  20.408  0.00  0.00    +0.000 A 
ATOM     22  O   UNL     1      -0.729  12.481  21.027  0.00  0.00    +0.000 OA
ENDBRANCH   7  11
BRANCH   1  29
ATOM     23  C   UNL     1       5.371   5.126  19.228  0.00  0.00    +0.000 C 
ATOM     24  C   UNL     1       4.206   4.331  18.696  0.00  0.00    +0.000 A 
ATOM     25  C   UNL     1       4.399   2.957  18.462  0.00  0.00    +0.000 A 
ATOM     26  C   UNL     1       3.382   2.158  17.950  0.00  0.00    +0.000 A 
ATOM     27  C   UNL     1       2.154   2.722  17.652  0.00  0.00    +0.000 A 
ATOM     28  C   UNL     1       1.947   4.081  17.874  0.00  0.00    +0.000 A 
ATOM     29  C   UNL     1       2.952   4.899  18.404  0.00  0.00    +0.000 A 
ENDBRANCH   1  29
TORSDOF 2
ENDMDL
MODEL 4
REMARK VINA RESULT:      -8.3      1.217      1.274
REMARK  Name = 
REMARK  3 active torsions:
REMARK  status: ('A' for Active; 'I' for Inactive)
REMARK    1  A    between atoms: C_1  and  C_2
REMARK    2  A    between atoms: C_7  and  N_8
REMARK    3  A    between atoms: C_14  and  N_15
REMARK                            x       y       z     vdW  Elec       q    Type
REMARK                         _______ _______ _______ _____ _____    ______ ____
ROOT
ATOM      1  N   UNL     1       2.124   6.599  19.979  0.00  0.00    +0.000 N 
ATOM      2  C   UNL     1       1.976   7.726  19.203  0.00  0.00    +0.000 C 
ATOM      3  O   UNL     1       2.472   7.887  18.093  0.00  0.00    +0.000 OA
ATOM      4  N   UNL     1       1.211   8.734  19.779  0.00  0.00    +0.000 N 
ATOM      5  C   UNL     1       0.836   9.857  18.910  0.00  0.00    +0.000 C 
ATOM      6  C   UNL     1       1.230  11.194  19.510  0.00  0.00    +0.000 C 
ATOM      7  C   UNL     1       0.757  11.353  20.960  0.00  0.00    +0.000 C 
ATOM      8  C   UNL     1       1.212  10.161  21.807  0.00  0.00    +0.000 C 
ATOM      9  C   UNL     1       0.870   8.806  21.206  0.00  0.00    +0.000 C 
ATOM     10  H   UNL     1       1.421   6.450  20.685  0.00  0.00    +0.000 HD
ENDROOT
BRANCH   7  11
ATOM     11  N   UNL     1      -0.685  11.669  21.071  0.00  0.00    +0.000 N 
ATOM     12  C   UNL     1      -1.464  11.975  19.986  0.00  0.00    +0.000 A 
ATOM     13  N   UNL     1      -2.682  12.386  20.009  0.00  0.00    +0.000 NA
ATOM     14  C   UNL     1      -3.286  12.578  21.254  0.00  0.00    +0.000 A 
ATOM     15  C   UNL     1      -4.562  13.149  21.342  0.00  0.00    +0.000 A 
ATOM     16 CL   UNL     1      -5.423  13.641  19.923  0.00  0.00    +0.000 Cl
ATOM     17  C   UNL     1      -5.166  13.355  22.585  0.00  0.00    +0.000 A 
ATOM     18  C   UNL     1      -4.508  12.977  23.754  0.00  0.00    +0.000 A 
ATOM     19  C   UNL     1      -3.240  12.404  23.682  0.00  0.00    +0.000 A 
ATOM     20  C   UNL     1      -2.633  12.221  22.434  0.00  0.00    +0.000 A 
ATOM     21  C   UNL     1      -1.255  11.695  22.340  0.00  0.00    +0.000 A 
ATOM     22  O   UNL     1      -0.685  11.325  23.364  0.00  0.00    +0.000 OA
ENDBRANCH   7  11
BRANCH   1  29
ATOM     23  C   UNL     1       1.203   3.855  20.457  0.00  0.00    +0.000 C 
ATOM     24  C   UNL     1       2.588   4.206  19.977  0.00  0.00    +0.000 A 
ATOM     25  C   UNL     1       3.495   3.152  19.758  0.00  0.00    +0.000 A 
ATOM     26  C   UNL     1       4.799   3.392  19.338  0.00  0.00    +0.000 A 
ATOM     27  C   UNL     1       5.224   4.695  19.139  0.00  0.00    +0.000 A 
ATOM     28  C   UNL     1       4.341   5.749  19.355  0.00  0.00    +0.000 A 
ATOM     29  C   UNL     1       3.019   5.528  19.762  0.00  0.00    +0.000 A 
ENDBRANCH   1  29
TORSDOF 2
ENDMDL
MODEL 5
REMARK VINA RESULT:      -8.3      3.753      5.272
REMARK  Name = 
REMARK  3 active torsions:
REMARK  status: ('A' for Active; 'I' for Inactive)
REMARK    1  A    between atoms: C_1  and  C_2
REMARK    2  A    between atoms: C_7  and  N_8
REMARK    3  A    between atoms: C_14  and  N_15
REMARK                            x       y       z     vdW  Elec       q    Type
REMARK                         _______ _______ _______ _____ _____    ______ ____
ROOT
ATOM      1  N   UNL     1       2.175   6.703  19.726  0.00  0.00    +0.000 N 
ATOM      2  C   UNL     1       1.599   7.656  20.535  0.00  0.00    +0.000 C 
ATOM      3  O   UNL     1       1.216   7.466  21.685  0.00  0.00    +0.000 OA
ATOM      4  N   UNL     1       1.449   8.907  19.946  0.00  0.00    +0.000 N 
ATOM      5  C   UNL     1       1.051  10.009  20.832  0.00  0.00    +0.000 C 
ATOM      6  C   UNL     1      -0.180  10.732  20.318  0.00  0.00    +0.000 C 
ATOM      7  C   UNL     1      -0.055  11.139  18.845  0.00  0.00    +0.000 C 
ATOM      8  C   UNL     1       0.331   9.932  17.985  0.00  0.00    +0.000 C 
ATOM      9  C   UNL     1       1.535   9.161  18.503  0.00  0.00    +0.000 C 
ATOM     10  H   UNL     1       2.737   7.048  18.965  0.00  0.00    +0.000 HD
ENDROOT
BRANCH   7  11
ATOM     11  N   UNL     1       0.795  12.334  18.641  0.00  0.00    +0.000 N 
ATOM     12  C   UNL     1       2.114  12.253  18.278  0.00  0.00    +0.000 A 
ATOM     13  N   UNL     1       2.951  13.228  18.208  0.00  0.00    +0.000 NA
ATOM     14  C   UNL     1       2.503  14.503  18.563  0.00  0.00    +0.000 A 
ATOM     15  C   UNL     1       3.401  15.575  18.634  0.00  0.00    +0.000 A 
ATOM     16 CL   UNL     1       5.085  15.356  18.297  0.00  0.00    +0.000 Cl
ATOM     17  C   UNL     1       2.961  16.850  18.999  0.00  0.00    +0.000 A 
ATOM     18  C   UNL     1       1.615  17.071  19.283  0.00  0.00    +0.000 A 
ATOM     19  C   UNL     1       0.709  16.015  19.213  0.00  0.00    +0.000 A 
ATOM     20  C   UNL     1       1.161  14.737  18.867  0.00  0.00    +0.000 A 
ATOM     21  C   UNL     1       0.233  13.586  18.869  0.00  0.00    +0.000 A 
ATOM     22  O   UNL     1      -0.961  13.782  19.081  0.00  0.00    +0.000 OA
ENDBRANCH   7  11
BRANCH   1  29
ATOM     23  C   UNL     1       4.712   5.301  19.272  0.00  0.00    +0.000 C 
ATOM     24  C   UNL     1       3.455   4.629  19.761  0.00  0.00    +0.000 A 
ATOM     25  C   UNL     1       3.501   3.243  20.001  0.00  0.00    +0.000 A 
ATOM     26  C   UNL     1       2.378   2.542  20.431  0.00  0.00    +0.000 A 
ATOM     27  C   UNL     1       1.183   3.216  20.618  0.00  0.00    +0.000 A 
ATOM     28  C   UNL     1       1.120   4.586  20.382  0.00  0.00    +0.000 A 
ATOM     29  C   UNL     1       2.242   5.312  19.965  0.00  0.00    +0.000 A 
ENDBRANCH   1  29
TORSDOF 2
ENDMDL
MODEL 6
REMARK VINA RESULT:      -8.3      3.654      4.658
REMARK  Name = 
REMARK  3 active torsions:
REMARK  status: ('A' for Active; 'I' for Inactive)
REMARK    1  A    between atoms: C_1  and  C_2
REMARK    2  A    between atoms: C_7  and  N_8
REMARK    3  A    between atoms: C_14  and  N_15
REMARK                            x       y       z     vdW  Elec       q    Type
REMARK                         _______ _______ _______ _____ _____    ______ ____
ROOT
ATOM      1  N   UNL     1       2.621   6.403  18.434  0.00  0.00    +0.000 N 
ATOM      2  C   UNL     1       2.083   7.083  19.503  0.00  0.00    +0.000 C 
ATOM      3  O   UNL     1       1.901   6.610  20.620  0.00  0.00    +0.000 OA
ATOM      4  N   UNL     1       1.720   8.399  19.234  0.00  0.00    +0.000 N 
ATOM      5  C   UNL     1       1.354   9.231  20.388  0.00  0.00    +0.000 C 
ATOM      6  C   UNL     1      -0.008   9.877  20.211  0.00  0.00    +0.000 C 
ATOM      7  C   UNL     1      -0.151  10.594  18.863  0.00  0.00    +0.000 C 
ATOM      8  C   UNL     1       0.217   9.653  17.712  0.00  0.00    +0.000 C 
ATOM      9  C   UNL     1       1.558   8.957  17.886  0.00  0.00    +0.000 C 
ATOM     10  H   UNL     1       3.022   6.969  17.704  0.00  0.00    +0.000 HD
ENDROOT
BRANCH   7  11
ATOM     11  N   UNL     1       0.534  11.906  18.826  0.00  0.00    +0.000 N 
ATOM     12  C   UNL     1       1.890  12.032  18.674  0.00  0.00    +0.000 A 
ATOM     13  N   UNL     1       2.573  13.118  18.762  0.00  0.00    +0.000 NA
ATOM     14  C   UNL     1       1.892  14.298  19.073  0.00  0.00    +0.000 A 
ATOM     15  C   UNL     1       2.601  15.482  19.311  0.00  0.00    +0.000 A 
ATOM     16 CL   UNL     1       4.330  15.522  19.240  0.00  0.00    +0.000 Cl
ATOM     17  C   UNL     1       1.926  16.662  19.634  0.00  0.00    +0.000 A 
ATOM     18  C   UNL     1       0.535  16.675  19.706  0.00  0.00    +0.000 A 
ATOM     19  C   UNL     1      -0.184  15.506  19.467  0.00  0.00    +0.000 A 
ATOM     20  C   UNL     1       0.501  14.323  19.166  0.00  0.00    +0.000 A 
ATOM     21  C   UNL     1      -0.236  13.054  18.993  0.00  0.00    +0.000 A 
ATOM     22  O   UNL     1      -1.464  13.067  19.017  0.00  0.00    +0.000 OA
ENDBRANCH   7  11
BRANCH   1  29
ATOM     23  C   UNL     1       5.232   5.356  19.262  0.00  0.00    +0.000 C 
ATOM     24  C   UNL     1       4.107   4.497  18.747  0.00  0.00    +0.000 A 
ATOM     25  C   UNL     1       4.330   3.111  18.647  0.00  0.00    +0.000 A 
ATOM     26  C   UNL     1       3.350   2.251  18.158  0.00  0.00    +0.000 A 
ATOM     27  C   UNL     1       2.131   2.765  17.750  0.00  0.00    +0.000 A 
ATOM     28  C   UNL     1       1.896   4.134  17.840  0.00  0.00    +0.000 A 
ATOM     29  C   UNL     1       2.862   5.014  18.343  0.00  0.00    +0.000 A 
ENDBRANCH   1  29
TORSDOF 2
ENDMDL
MODEL 7
REMARK VINA RESULT:      -8.2      3.797      4.711
REMARK  Name = 
REMARK  3 active torsions:
REMARK  status: ('A' for Active; 'I' for Inactive)
REMARK    1  A    between atoms: C_1  and  C_2
REMARK    2  A    between atoms: C_7  and  N_8
REMARK    3  A    between atoms: C_14  and  N_15
REMARK                            x       y       z     vdW  Elec       q    Type
REMARK                         _______ _______ _______ _____ _____    ______ ____
ROOT
ATOM      1  N   UNL     1       2.983   5.892  18.954  0.00  0.00    +0.000 N 
ATOM      2  C   UNL     1       2.228   6.563  19.889  0.00  0.00    +0.000 C 
ATOM      3  O   UNL     1       1.761   6.063  20.908  0.00  0.00    +0.000 OA
ATOM      4  N   UNL     1       1.995   7.903  19.598  0.00  0.00    +0.000 N 
ATOM      5  C   UNL     1       1.393   8.714  20.664  0.00  0.00    +0.000 C 
ATOM      6  C   UNL     1       0.142   9.432  20.191  0.00  0.00    +0.000 C 
ATOM      7  C   UNL     1       0.361  10.199  18.881  0.00  0.00    +0.000 C 
ATOM      8  C   UNL     1       0.960   9.279  17.814  0.00  0.00    +0.000 C 
ATOM      9  C   UNL     1       2.189   8.511  18.276  0.00  0.00    +0.000 C 
ATOM     10  H   UNL     1       3.572   6.461  18.368  0.00  0.00    +0.000 HD
ENDROOT
BRANCH   7  11
ATOM     11  N   UNL     1       1.087  11.476  19.068  0.00  0.00    +0.000 N 
ATOM     12  C   UNL     1       2.157  11.842  18.294  0.00  0.00    +0.000 A 
ATOM     13  N   UNL     1       2.918  12.863  18.473  0.00  0.00    +0.000 NA
ATOM     14  C   UNL     1       2.669  13.681  19.578  0.00  0.00    +0.000 A 
ATOM     15  C   UNL     1       3.545  14.727  19.896  0.00  0.00    +0.000 A 
ATOM     16 CL   UNL     1       4.958  15.032  18.945  0.00  0.00    +0.000 Cl
ATOM     17  C   UNL     1       3.307  15.541  21.007  0.00  0.00    +0.000 A 
ATOM     18  C   UNL     1       2.184  15.328  21.802  0.00  0.00    +0.000 A 
ATOM     19  C   UNL     1       1.302  14.294  21.496  0.00  0.00    +0.000 A 
ATOM     20  C   UNL     1       1.558  13.470  20.395  0.00  0.00    +0.000 A 
ATOM     21  C   UNL     1       0.683  12.316  20.102  0.00  0.00    +0.000 A 
ATOM     22  O   UNL     1      -0.330  12.147  20.777  0.00  0.00    +0.000 OA
ENDBRANCH   7  11
BRANCH   1  29
ATOM     23  C   UNL     1       1.140   4.292  17.325  0.00  0.00    +0.000 C 
ATOM     24  C   UNL     1       2.313   3.718  18.079  0.00  0.00    +0.000 A 
ATOM     25  C   UNL     1       2.526   2.329  18.004  0.00  0.00    +0.000 A 
ATOM     26  C   UNL     1       3.571   1.717  18.689  0.00  0.00    +0.000 A 
ATOM     27  C   UNL     1       4.418   2.484  19.471  0.00  0.00    +0.000 A 
ATOM     28  C   UNL     1       4.219   3.859  19.558  0.00  0.00    +0.000 A 
ATOM     29  C   UNL     1       3.183   4.497  18.864  0.00  0.00    +0.000 A 
ENDBRANCH   1  29
TORSDOF 2
ENDMDL
MODEL 8
REMARK VINA RESULT:      -8.1      3.605      4.300
REMARK  Name = 
REMARK  3 active torsions:
REMARK  status: ('A' for Active; 'I' for Inactive)
REMARK    1  A    between atoms: C_1  and  C_2
REMARK    2  A    between atoms: C_7  and  N_8
REMARK    3  A    between atoms: C_14  and  N_15
REMARK                            x       y       z     vdW  Elec       q    Type
REMARK                         _______ _______ _______ _____ _____    ______ ____
ROOT
ATOM      1  N   UNL     1       2.878   6.445  19.015  0.00  0.00    +0.000 N 
ATOM      2  C   UNL     1       2.043   6.952  19.985  0.00  0.00    +0.000 C 
ATOM      3  O   UNL     1       1.612   6.320  20.944  0.00  0.00    +0.000 OA
ATOM      4  N   UNL     1       1.681   8.283  19.805  0.00  0.00    +0.000 N 
ATOM      5  C   UNL     1       0.981   8.933  20.920  0.00  0.00    +0.000 C 
ATOM      6  C   UNL     1      -0.327   9.562  20.479  0.00  0.00    +0.000 C 
ATOM      7  C   UNL     1      -0.164  10.460  19.246  0.00  0.00    +0.000 C 
ATOM      8  C   UNL     1       0.544   9.702  18.120  0.00  0.00    +0.000 C 
ATOM      9  C   UNL     1       1.836   9.022  18.546  0.00  0.00    +0.000 C 
ATOM     10  H   UNL     1       3.417   7.119  18.496  0.00  0.00    +0.000 HD
ENDROOT
BRANCH   7  11
ATOM     11  N   UNL     1       0.425  11.781  19.561  0.00  0.00    +0.000 N 
ATOM     12  C   UNL     1       1.380  11.957  20.529  0.00  0.00    +0.000 A 
ATOM     13  N   UNL     1       1.844  13.079  20.952  0.00  0.00    +0.000 NA
ATOM     14  C   UNL     1       1.317  14.254  20.408  0.00  0.00    +0.000 A 
ATOM     15  C   UNL     1       1.689  15.502  20.924  0.00  0.00    +0.000 A 
ATOM     16 CL   UNL     1       2.797  15.630  22.248  0.00  0.00    +0.000 Cl
ATOM     17  C   UNL     1       1.157  16.679  20.392  0.00  0.00    +0.000 A 
ATOM     18  C   UNL     1       0.260  16.623  19.328  0.00  0.00    +0.000 A 
ATOM     19  C   UNL     1      -0.117  15.389  18.801  0.00  0.00    +0.000 A 
ATOM     20  C   UNL     1       0.404  14.214  19.354  0.00  0.00    +0.000 A 
ATOM     21  C   UNL     1      -0.046  12.892  18.868  0.00  0.00    +0.000 A 
ATOM     22  O   UNL     1      -0.807  12.837  17.906  0.00  0.00    +0.000 OA
ENDBRANCH   7  11
BRANCH   1  29
ATOM     23  C   UNL     1       1.148   4.780  17.330  0.00  0.00    +0.000 C 
ATOM     24  C   UNL     1       2.404   4.282  17.996  0.00  0.00    +0.000 A 
ATOM     25  C   UNL     1       2.759   2.933  17.807  0.00  0.00    +0.000 A 
ATOM     26  C   UNL     1       3.891   2.389  18.406  0.00  0.00    +0.000 A 
ATOM     27  C   UNL     1       4.684   3.183  19.216  0.00  0.00    +0.000 A 
ATOM     28  C   UNL     1       4.345   4.518  19.417  0.00  0.00    +0.000 A 
ATOM     29  C   UNL     1       3.220   5.090  18.810  0.00  0.00    +0.000 A 
ENDBRANCH   1  29
TORSDOF 2
ENDMDL
MODEL 9
REMARK VINA RESULT:      -8.0      2.942      3.927
REMARK  Name = 
REMARK  3 active torsions:
REMARK  status: ('A' for Active; 'I' for Inactive)
REMARK    1  A    between atoms: C_1  and  C_2
REMARK    2  A    between atoms: C_7  and  N_8
REMARK    3  A    between atoms: C_14  and  N_15
REMARK                            x       y       z     vdW  Elec       q    Type
REMARK                         _______ _______ _______ _____ _____    ______ ____
ROOT
ATOM      1  N   UNL     1       2.686   6.950  18.410  0.00  0.00    +0.000 N 
ATOM      2  C   UNL     1       2.079   7.252  19.608  0.00  0.00    +0.000 C 
ATOM      3  O   UNL     1       1.922   6.466  20.536  0.00  0.00    +0.000 OA
ATOM      4  N   UNL     1       1.613   8.558  19.712  0.00  0.00    +0.000 N 
ATOM      5  C   UNL     1       1.164   8.994  21.041  0.00  0.00    +0.000 C 
ATOM      6  C   UNL     1      -0.244   9.560  21.005  0.00  0.00    +0.000 C 
ATOM      7  C   UNL     1      -0.426  10.621  19.914  0.00  0.00    +0.000 C 
ATOM      8  C   UNL     1       0.034  10.081  18.557  0.00  0.00    +0.000 C 
ATOM      9  C   UNL     1       1.425   9.466  18.574  0.00  0.00    +0.000 C 
ATOM     10  H   UNL     1       3.049   7.730  17.886  0.00  0.00    +0.000 HD
ENDROOT
BRANCH   7  11
ATOM     11  N   UNL     1       0.149  11.936  20.277  0.00  0.00    +0.000 N 
ATOM     12  C   UNL     1       1.411  12.322  19.908  0.00  0.00    +0.000 A 
ATOM     13  N   UNL     1       2.030  13.383  20.289  0.00  0.00    +0.000 NA
ATOM     14  C   UNL     1       1.385  14.229  21.195  0.00  0.00    +0.000 A 
ATOM     15  C   UNL     1       2.062  15.325  21.745  0.00  0.00    +0.000 A 
ATOM     16 CL   UNL     1       3.709  15.660  21.333  0.00  0.00    +0.000 Cl
ATOM     17  C   UNL     1       1.425  16.167  22.661  0.00  0.00    +0.000 A 
ATOM     18  C   UNL     1       0.102  15.933  23.025  0.00  0.00    +0.000 A 
ATOM     19  C   UNL     1      -0.586  14.849  22.483  0.00  0.00    +0.000 A 
ATOM     20  C   UNL     1       0.065  13.997  21.583  0.00  0.00    +0.000 A 
ATOM     21  C   UNL     1      -0.617  12.794  21.062  0.00  0.00    +0.000 A 
ATOM     22  O   UNL     1      -1.796  12.603  21.348  0.00  0.00    +0.000 OA
ENDBRANCH   7  11
BRANCH   1  29
ATOM     23  C   UNL     1       5.418   6.497  17.443  0.00  0.00    +0.000 C 
ATOM     24  C   UNL     1       4.351   5.433  17.479  0.00  0.00    +0.000 A 
ATOM     25  C   UNL     1       4.686   4.150  17.008  0.00  0.00    +0.000 A 
ATOM     26  C   UNL     1       3.753   3.118  16.985  0.00  0.00    +0.000 A 
ATOM     27  C   UNL     1       2.461   3.355  17.424  0.00  0.00    +0.000 A 
ATOM     28  C   UNL     1       2.113   4.620  17.889  0.00  0.00    +0.000 A 
ATOM     29  C   UNL     1       3.041   5.667  17.936  0.00  0.00    +0.000 A 
ENDBRANCH   1  29
TORSDOF 2
ENDMDL
