MODEL 1
REMARK VINA RESULT:      -7.6      0.000      0.000
REMARK  Name = 
REMARK  7 active torsions:
REMARK  status: ('A' for Active; 'I' for Inactive)
REMARK    1  A    between atoms: C_1  and  C_2
REMARK    2  A    between atoms: C_5  and  O_6
REMARK    3  A    between atoms: O_6  and  C_7
REMARK    4  A    between atoms: C_7  and  C_8
REMARK    5  A    between atoms: C_8  and  N_9
REMARK    6  A    between atoms: N_12  and  C_13
REMARK    7  A    between atoms: C_13  and  C_14
REMARK                            x       y       z     vdW  Elec       q    Type
REMARK                         _______ _______ _______ _____ _____    ______ ____
ROOT
ATOM      1  N   UNL     1       2.737   3.647  18.781  0.00  0.00    +0.000 NA
ATOM      2  C   UNL     1       3.430   4.338  19.882  0.00  0.00    +0.000 C 
ATOM      3  C   UNL     1       4.030   5.723  19.544  0.00  0.00    +0.000 C 
ATOM      4  N   UNL     1       3.070   6.689  18.976  0.00  0.00    +0.000 NA
ATOM      5  C   UNL     1       2.436   6.049  17.808  0.00  0.00    +0.000 C 
ATOM      6  C   UNL     1       1.901   4.602  18.016  0.00  0.00    +0.000 C 
ENDROOT
BRANCH   1   7
ATOM      7  C   UNL     1       3.629   2.834  17.928  0.00  0.00    +0.000 C 
BRANCH   7   8
ATOM      8  C   UNL     1       3.971   3.457  16.542  0.00  0.00    +0.000 C 
BRANCH   8   9
ATOM      9  O   UNL     1       5.400   3.448  16.384  0.00  0.00    +0.000 OA
BRANCH   9  14
ATOM     10  C   UNL     1       7.919   8.328  17.902  0.00  0.00    +0.000 C 
ATOM     11  C   UNL     1       7.296   7.022  17.495  0.00  0.00    +0.000 A 
ATOM     12  C   UNL     1       6.305   6.973  16.514  0.00  0.00    +0.000 A 
ATOM     13  C   UNL     1       5.712   5.753  16.168  0.00  0.00    +0.000 A 
ATOM     14  C   UNL     1       6.105   4.555  16.777  0.00  0.00    +0.000 A 
ATOM     15  C   UNL     1       7.098   4.601  17.752  0.00  0.00    +0.000 A 
ATOM     16  C   UNL     1       7.687   5.827  18.112  0.00  0.00    +0.000 A 
ENDBRANCH   9  14
ENDBRANCH   8   9
ENDBRANCH   7   8
ENDBRANCH   1   7
BRANCH   4  17
ATOM     17  C   UNL     1       2.089   7.241  19.959  0.00  0.00    +0.000 C 
BRANCH  17  18
ATOM     18  C   UNL     1       1.568   8.682  19.593  0.00  0.00    +0.000 C 
ATOM     19  O   UNL     1       1.826   9.154  18.481  0.00  0.00    +0.000 OA
ATOM     20  N   UNL     1       0.809   9.385  20.591  0.00  0.00    +0.000 N 
ATOM     21  C   UNL     1       0.399   8.661  21.800  0.00  0.00    +0.000 C 
ATOM     22  C   UNL     1      -0.601   9.291  22.757  0.00  0.00    +0.000 C 
ATOM     23  C   UNL     1      -0.609  10.797  22.810  0.00  0.00    +0.000 C 
ATOM     24  C   UNL     1      -0.203  11.457  21.534  0.00  0.00    +0.000 A 
ATOM     25  C   UNL     1      -0.481  12.845  21.451  0.00  0.00    +0.000 A 
ATOM     26  C   UNL     1      -0.115  13.591  20.344  0.00  0.00    +0.000 A 
ATOM     27  C   UNL     1       0.535  12.957  19.300  0.00  0.00    +0.000 A 
ATOM     28  C   UNL     1       0.815  11.580  19.379  0.00  0.00    +0.000 A 
ATOM     29  C   UNL     1       0.474  10.793  20.489  0.00  0.00    +0.000 A 
ENDBRANCH  17  18
ENDBRANCH   4  17
TORSDOF 6
ENDMDL
MODEL 2
REMARK VINA RESULT:      -7.4      2.892      8.853
REMARK  Name = 
REMARK  7 active torsions:
REMARK  status: ('A' for Active; 'I' for Inactive)
REMARK    1  A    between atoms: C_1  and  C_2
REMARK    2  A    between atoms: C_5  and  O_6
REMARK    3  A    between atoms: O_6  and  C_7
REMARK    4  A    between atoms: C_7  and  C_8
REMARK    5  A    between atoms: C_8  and  N_9
REMARK    6  A    between atoms: N_12  and  C_13
REMARK    7  A    between atoms: C_13  and  C_14
REMARK                            x       y       z     vdW  Elec       q    Type
REMARK                         _______ _______ _______ _____ _____    ______ ____
ROOT
ATOM      1  N   UNL     1       0.035  10.924  22.150  0.00  0.00    +0.000 NA
ATOM      2  C   UNL     1      -0.230   9.535  22.564  0.00  0.00    +0.000 C 
ATOM      3  C   UNL     1      -0.514   8.529  21.424  0.00  0.00    +0.000 C 
ATOM      4  N   UNL     1       0.530   8.467  20.382  0.00  0.00    +0.000 NA
ATOM      5  C   UNL     1       0.740   9.840  19.883  0.00  0.00    +0.000 C 
ATOM      6  C   UNL     1       0.920  10.949  20.961  0.00  0.00    +0.000 C 
ENDROOT
BRANCH   1   7
ATOM      7  C   UNL     1      -1.182  11.746  21.993  0.00  0.00    +0.000 C 
BRANCH   7   8
ATOM      8  C   UNL     1      -1.367  12.396  20.589  0.00  0.00    +0.000 C 
BRANCH   8   9
ATOM      9  O   UNL     1      -2.686  12.076  20.113  0.00  0.00    +0.000 OA
BRANCH   9  14
ATOM     10  C   UNL     1      -3.533  10.110  14.833  0.00  0.00    +0.000 C 
ATOM     11  C   UNL     1      -3.296  10.586  16.239  0.00  0.00    +0.000 A 
ATOM     12  C   UNL     1      -4.279  11.291  16.934  0.00  0.00    +0.000 A 
ATOM     13  C   UNL     1      -4.032  11.756  18.232  0.00  0.00    +0.000 A 
ATOM     14  C   UNL     1      -2.810  11.513  18.871  0.00  0.00    +0.000 A 
ATOM     15  C   UNL     1      -1.829  10.805  18.180  0.00  0.00    +0.000 A 
ATOM     16  C   UNL     1      -2.070  10.348  16.872  0.00  0.00    +0.000 A 
ENDBRANCH   9  14
ENDBRANCH   8   9
ENDBRANCH   7   8
ENDBRANCH   1   7
BRANCH   4  17
ATOM     17  C   UNL     1       1.792   7.787  20.806  0.00  0.00    +0.000 C 
BRANCH  17  18
ATOM     18  C   UNL     1       2.378   6.806  19.721  0.00  0.00    +0.000 C 
ATOM     19  O   UNL     1       2.857   7.271  18.682  0.00  0.00    +0.000 OA
ATOM     20  N   UNL     1       2.321   5.398  20.002  0.00  0.00    +0.000 N 
ATOM     21  C   UNL     1       1.909   4.966  21.342  0.00  0.00    +0.000 C 
ATOM     22  C   UNL     1       2.067   3.511  21.751  0.00  0.00    +0.000 C 
ATOM     23  C   UNL     1       1.990   2.498  20.638  0.00  0.00    +0.000 C 
ATOM     24  C   UNL     1       2.450   3.007  19.313  0.00  0.00    +0.000 A 
ATOM     25  C   UNL     1       2.671   2.017  18.322  0.00  0.00    +0.000 A 
ATOM     26  C   UNL     1       3.054   2.355  17.035  0.00  0.00    +0.000 A 
ATOM     27  C   UNL     1       3.222   3.691  16.720  0.00  0.00    +0.000 A 
ATOM     28  C   UNL     1       3.001   4.677  17.699  0.00  0.00    +0.000 A 
ATOM     29  C   UNL     1       2.599   4.377  19.009  0.00  0.00    +0.000 A 
ENDBRANCH  17  18
ENDBRANCH   4  17
TORSDOF 6
ENDMDL
MODEL 3
REMARK VINA RESULT:      -7.3      2.966      9.137
REMARK  Name = 
REMARK  7 active torsions:
REMARK  status: ('A' for Active; 'I' for Inactive)
REMARK    1  A    between atoms: C_1  and  C_2
REMARK    2  A    between atoms: C_5  and  O_6
REMARK    3  A    between atoms: O_6  and  C_7
REMARK    4  A    between atoms: C_7  and  C_8
REMARK    5  A    between atoms: C_8  and  N_9
REMARK    6  A    between atoms: N_12  and  C_13
REMARK    7  A    between atoms: C_13  and  C_14
REMARK                            x       y       z     vdW  Elec       q    Type
REMARK                         _______ _______ _______ _____ _____    ______ ____
ROOT
ATOM      1  N   UNL     1       0.539  11.308  21.515  0.00  0.00    +0.000 NA
ATOM      2  C   UNL     1       0.431  10.128  22.391  0.00  0.00    +0.000 C 
ATOM      3  C   UNL     1      -0.214   8.871  21.761  0.00  0.00    +0.000 C 
ATOM      4  N   UNL     1       0.421   8.412  20.510  0.00  0.00    +0.000 NA
ATOM      5  C   UNL     1       0.449   9.559  19.581  0.00  0.00    +0.000 C 
ATOM      6  C   UNL     1       0.975  10.905  20.157  0.00  0.00    +0.000 C 
ENDROOT
BRANCH   1   7
ATOM      7  C   UNL     1      -0.664  12.166  21.515  0.00  0.00    +0.000 C 
BRANCH   7   8
ATOM      8  C   UNL     1      -1.105  12.689  20.115  0.00  0.00    +0.000 C 
BRANCH   8   9
ATOM      9  O   UNL     1      -2.501  12.393  19.941  0.00  0.00    +0.000 OA
BRANCH   9  14
ATOM     10  C   UNL     1      -3.805  10.173  14.858  0.00  0.00    +0.000 C 
ATOM     11  C   UNL     1      -3.490  10.793  16.191  0.00  0.00    +0.000 A 
ATOM     12  C   UNL     1      -2.171  11.021  16.584  0.00  0.00    +0.000 A 
ATOM     13  C   UNL     1      -1.892  11.571  17.842  0.00  0.00    +0.000 A 
ATOM     14  C   UNL     1      -2.920  11.922  18.725  0.00  0.00    +0.000 A 
ATOM     15  C   UNL     1      -4.237  11.700  18.332  0.00  0.00    +0.000 A 
ATOM     16  C   UNL     1      -4.520  11.136  17.075  0.00  0.00    +0.000 A 
ENDBRANCH   9  14
ENDBRANCH   8   9
ENDBRANCH   7   8
ENDBRANCH   1   7
BRANCH   4  17
ATOM     17  C   UNL     1       1.754   7.762  20.694  0.00  0.00    +0.000 C 
BRANCH  17  18
ATOM     18  C   UNL     1       1.798   6.261  20.214  0.00  0.00    +0.000 C 
ATOM     19  O   UNL     1       1.109   5.419  20.799  0.00  0.00    +0.000 OA
ATOM     20  N   UNL     1       2.654   5.946  19.104  0.00  0.00    +0.000 N 
ATOM     21  C   UNL     1       3.278   7.048  18.364  0.00  0.00    +0.000 C 
ATOM     22  C   UNL     1       3.987   6.771  17.048  0.00  0.00    +0.000 C 
ATOM     23  C   UNL     1       4.594   5.400  16.898  0.00  0.00    +0.000 C 
ATOM     24  C   UNL     1       3.886   4.330  17.662  0.00  0.00    +0.000 A 
ATOM     25  C   UNL     1       4.238   3.001  17.317  0.00  0.00    +0.000 A 
ATOM     26  C   UNL     1       3.693   1.914  17.979  0.00  0.00    +0.000 A 
ATOM     27  C   UNL     1       2.785   2.142  18.998  0.00  0.00    +0.000 A 
ATOM     28  C   UNL     1       2.436   3.460  19.346  0.00  0.00    +0.000 A 
ATOM     29  C   UNL     1       2.976   4.587  18.709  0.00  0.00    +0.000 A 
ENDBRANCH  17  18
ENDBRANCH   4  17
TORSDOF 6
ENDMDL
MODEL 4
REMARK VINA RESULT:      -7.3      1.725      8.335
REMARK  Name = 
REMARK  7 active torsions:
REMARK  status: ('A' for Active; 'I' for Inactive)
REMARK    1  A    between atoms: C_1  and  C_2
REMARK    2  A    between atoms: C_5  and  O_6
REMARK    3  A    between atoms: O_6  and  C_7
REMARK    4  A    between atoms: C_7  and  C_8
REMARK    5  A    between atoms: C_8  and  N_9
REMARK    6  A    between atoms: N_12  and  C_13
REMARK    7  A    between atoms: C_13  and  C_14
REMARK                            x       y       z     vdW  Elec       q    Type
REMARK                         _______ _______ _______ _____ _____    ______ ____
ROOT
ATOM      1  N   UNL     1       2.254   5.502  20.564  0.00  0.00    +0.000 NA
ATOM      2  C   UNL     1       1.993   4.104  20.946  0.00  0.00    +0.000 C 
ATOM      3  C   UNL     1       1.165   3.268  19.943  0.00  0.00    +0.000 C 
ATOM      4  N   UNL     1       1.708   3.236  18.571  0.00  0.00    +0.000 NA
ATOM      5  C   UNL     1       1.885   4.633  18.131  0.00  0.00    +0.000 C 
ATOM      6  C   UNL     1       2.607   5.587  19.126  0.00  0.00    +0.000 C 
ENDROOT
BRANCH   1   7
ATOM      7  C   UNL     1       1.187   6.443  20.962  0.00  0.00    +0.000 C 
BRANCH   7   8
ATOM      8  C   UNL     1       1.460   7.939  20.621  0.00  0.00    +0.000 C 
BRANCH   8   9
ATOM      9  O   UNL     1       1.469   8.687  21.849  0.00  0.00    +0.000 OA
BRANCH   9  14
ATOM     10  C   UNL     1      -2.083  13.039  22.806  0.00  0.00    +0.000 C 
ATOM     11  C   UNL     1      -1.156  11.892  22.508  0.00  0.00    +0.000 A 
ATOM     12  C   UNL     1      -1.226  10.705  23.238  0.00  0.00    +0.000 A 
ATOM     13  C   UNL     1      -0.335   9.657  22.970  0.00  0.00    +0.000 A 
ATOM     14  C   UNL     1       0.628   9.763  21.960  0.00  0.00    +0.000 A 
ATOM     15  C   UNL     1       0.696  10.946  21.228  0.00  0.00    +0.000 A 
ATOM     16  C   UNL     1      -0.188  12.005  21.503  0.00  0.00    +0.000 A 
ENDBRANCH   9  14
ENDBRANCH   8   9
ENDBRANCH   7   8
ENDBRANCH   1   7
BRANCH   4  17
ATOM     17  C   UNL     1       2.937   2.400  18.409  0.00  0.00    +0.000 C 
BRANCH  17  18
ATOM     18  C   UNL     1       4.270   3.160  18.771  0.00  0.00    +0.000 C 
ATOM     19  O   UNL     1       4.723   3.074  19.917  0.00  0.00    +0.000 OA
ATOM     20  N   UNL     1       4.898   3.927  17.730  0.00  0.00    +0.000 N 
ATOM     21  C   UNL     1       4.383   3.806  16.361  0.00  0.00    +0.000 C 
ATOM     22  C   UNL     1       5.163   4.406  15.203  0.00  0.00    +0.000 C 
ATOM     23  C   UNL     1       6.006   5.613  15.526  0.00  0.00    +0.000 C 
ATOM     24  C   UNL     1       6.511   5.649  16.931  0.00  0.00    +0.000 A 
ATOM     25  C   UNL     1       7.535   6.597  17.186  0.00  0.00    +0.000 A 
ATOM     26  C   UNL     1       8.060   6.768  18.455  0.00  0.00    +0.000 A 
ATOM     27  C   UNL     1       7.570   5.992  19.490  0.00  0.00    +0.000 A 
ATOM     28  C   UNL     1       6.551   5.053  19.241  0.00  0.00    +0.000 A 
ATOM     29  C   UNL     1       5.983   4.859  17.973  0.00  0.00    +0.000 A 
ENDBRANCH  17  18
ENDBRANCH   4  17
TORSDOF 6
ENDMDL
MODEL 5
REMARK VINA RESULT:      -7.2      3.472      6.971
REMARK  Name = 
REMARK  7 active torsions:
REMARK  status: ('A' for Active; 'I' for Inactive)
REMARK    1  A    between atoms: C_1  and  C_2
REMARK    2  A    between atoms: C_5  and  O_6
REMARK    3  A    between atoms: O_6  and  C_7
REMARK    4  A    between atoms: C_7  and  C_8
REMARK    5  A    between atoms: C_8  and  N_9
REMARK    6  A    between atoms: N_12  and  C_13
REMARK    7  A    between atoms: C_13  and  C_14
REMARK                            x       y       z     vdW  Elec       q    Type
REMARK                         _______ _______ _______ _____ _____    ______ ____
ROOT
ATOM      1  N   UNL     1       1.059  10.410  20.750  0.00  0.00    +0.000 NA
ATOM      2  C   UNL     1       1.084  11.500  19.759  0.00  0.00    +0.000 C 
ATOM      3  C   UNL     1      -0.274  12.172  19.454  0.00  0.00    +0.000 C 
ATOM      4  N   UNL     1      -0.983  12.695  20.639  0.00  0.00    +0.000 NA
ATOM      5  C   UNL     1      -1.106  11.587  21.606  0.00  0.00    +0.000 C 
ATOM      6  C   UNL     1       0.188  10.771  21.893  0.00  0.00    +0.000 C 
ENDROOT
BRANCH   1   7
ATOM      7  C   UNL     1       0.754   9.084  20.175  0.00  0.00    +0.000 C 
BRANCH   7   8
ATOM      8  C   UNL     1       1.808   8.540  19.165  0.00  0.00    +0.000 C 
BRANCH   8   9
ATOM      9  O   UNL     1       2.522   7.462  19.793  0.00  0.00    +0.000 OA
BRANCH   9  14
ATOM     10  C   UNL     1       0.787   2.131  18.776  0.00  0.00    +0.000 C 
ATOM     11  C   UNL     1       1.284   3.528  19.023  0.00  0.00    +0.000 A 
ATOM     12  C   UNL     1       1.236   4.093  20.298  0.00  0.00    +0.000 A 
ATOM     13  C   UNL     1       1.674   5.406  20.507  0.00  0.00    +0.000 A 
ATOM     14  C   UNL     1       2.186   6.177  19.457  0.00  0.00    +0.000 A 
ATOM     15  C   UNL     1       2.240   5.613  18.184  0.00  0.00    +0.000 A 
ATOM     16  C   UNL     1       1.788   4.299  17.969  0.00  0.00    +0.000 A 
ENDBRANCH   9  14
ENDBRANCH   8   9
ENDBRANCH   7   8
ENDBRANCH   1   7
BRANCH   4  17
ATOM     17  C   UNL     1      -0.385  13.934  21.224  0.00  0.00    +0.000 C 
BRANCH  17  18
ATOM     18  C   UNL     1      -0.559  15.210  20.316  0.00  0.00    +0.000 C 
ATOM     19  O   UNL     1      -1.671  15.738  20.221  0.00  0.00    +0.000 OA
ATOM     20  N   UNL     1       0.607  15.700  19.633  0.00  0.00    +0.000 N 
ATOM     21  C   UNL     1       1.912  15.116  19.965  0.00  0.00    +0.000 C 
ATOM     22  C   UNL     1       3.185  15.766  19.449  0.00  0.00    +0.000 C 
ATOM     23  C   UNL     1       3.067  16.512  18.145  0.00  0.00    +0.000 C 
ATOM     24  C   UNL     1       1.717  17.096  17.893  0.00  0.00    +0.000 A 
ATOM     25  C   UNL     1       1.649  18.041  16.838  0.00  0.00    +0.000 A 
ATOM     26  C   UNL     1       0.449  18.625  16.467  0.00  0.00    +0.000 A 
ATOM     27  C   UNL     1      -0.702  18.271  17.148  0.00  0.00    +0.000 A 
ATOM     28  C   UNL     1      -0.639  17.331  18.194  0.00  0.00    +0.000 A 
ATOM     29  C   UNL     1       0.553  16.707  18.590  0.00  0.00    +0.000 A 
ENDBRANCH  17  18
ENDBRANCH   4  17
TORSDOF 6
ENDMDL
MODEL 6
REMARK VINA RESULT:      -7.2      3.640      6.356
REMARK  Name = 
REMARK  7 active torsions:
REMARK  status: ('A' for Active; 'I' for Inactive)
REMARK    1  A    between atoms: C_1  and  C_2
REMARK    2  A    between atoms: C_5  and  O_6
REMARK    3  A    between atoms: O_6  and  C_7
REMARK    4  A    between atoms: C_7  and  C_8
REMARK    5  A    between atoms: C_8  and  N_9
REMARK    6  A    between atoms: N_12  and  C_13
REMARK    7  A    between atoms: C_13  and  C_14
REMARK                            x       y       z     vdW  Elec       q    Type
REMARK                         _______ _______ _______ _____ _____    ______ ____
ROOT
ATOM      1  N   UNL     1       0.619  10.494  21.460  0.00  0.00    +0.000 NA
ATOM      2  C   UNL     1       1.214  11.696  20.850  0.00  0.00    +0.000 C 
ATOM      3  C   UNL     1       1.350  11.679  19.310  0.00  0.00    +0.000 C 
ATOM      4  N   UNL     1       0.093  11.414  18.582  0.00  0.00    +0.000 NA
ATOM      5  C   UNL     1      -0.469  10.157  19.113  0.00  0.00    +0.000 C 
ATOM      6  C   UNL     1      -0.540  10.029  20.663  0.00  0.00    +0.000 C 
ENDROOT
BRANCH   1   7
ATOM      7  C   UNL     1       1.596   9.425  21.754  0.00  0.00    +0.000 C 
BRANCH   7   8
ATOM      8  C   UNL     1       1.191   8.003  21.263  0.00  0.00    +0.000 C 
BRANCH   8   9
ATOM      9  O   UNL     1       2.197   7.538  20.347  0.00  0.00    +0.000 OA
BRANCH   9  14
ATOM     10  C   UNL     1       1.296   2.218  18.518  0.00  0.00    +0.000 C 
ATOM     11  C   UNL     1       1.576   3.620  18.982  0.00  0.00    +0.000 A 
ATOM     12  C   UNL     1       1.351   3.997  20.307  0.00  0.00    +0.000 A 
ATOM     13  C   UNL     1       1.587   5.315  20.718  0.00  0.00    +0.000 A 
ATOM     14  C   UNL     1       2.068   6.279  19.825  0.00  0.00    +0.000 A 
ATOM     15  C   UNL     1       2.298   5.904  18.503  0.00  0.00    +0.000 A 
ATOM     16  C   UNL     1       2.050   4.584  18.084  0.00  0.00    +0.000 A 
ENDBRANCH   9  14
ENDBRANCH   8   9
ENDBRANCH   7   8
ENDBRANCH   1   7
BRANCH   4  17
ATOM     17  C   UNL     1      -0.878  12.550  18.587  0.00  0.00    +0.000 C 
BRANCH  17  18
ATOM     18  C   UNL     1      -2.378  12.101  18.404  0.00  0.00    +0.000 C 
ATOM     19  O   UNL     1      -2.735  11.610  17.328  0.00  0.00    +0.000 OA
ATOM     20  N   UNL     1      -3.266  12.292  19.518  0.00  0.00    +0.000 N 
ATOM     21  C   UNL     1      -2.697  12.703  20.806  0.00  0.00    +0.000 C 
ATOM     22  C   UNL     1      -3.561  12.680  22.057  0.00  0.00    +0.000 C 
ATOM     23  C   UNL     1      -5.038  12.895  21.846  0.00  0.00    +0.000 C 
ATOM     24  C   UNL     1      -5.542  12.428  20.521  0.00  0.00    +0.000 A 
ATOM     25  C   UNL     1      -6.953  12.340  20.403  0.00  0.00    +0.000 A 
ATOM     26  C   UNL     1      -7.556  11.965  19.214  0.00  0.00    +0.000 A 
ATOM     27  C   UNL     1      -6.756  11.672  18.125  0.00  0.00    +0.000 A 
ATOM     28  C   UNL     1      -5.355  11.762  18.237  0.00  0.00    +0.000 A 
ATOM     29  C   UNL     1      -4.707  12.150  19.419  0.00  0.00    +0.000 A 
ENDBRANCH  17  18
ENDBRANCH   4  17
TORSDOF 6
ENDMDL
MODEL 7
REMARK VINA RESULT:      -7.2      1.818      8.667
REMARK  Name = 
REMARK  7 active torsions:
REMARK  status: ('A' for Active; 'I' for Inactive)
REMARK    1  A    between atoms: C_1  and  C_2
REMARK    2  A    between atoms: C_5  and  O_6
REMARK    3  A    between atoms: O_6  and  C_7
REMARK    4  A    between atoms: C_7  and  C_8
REMARK    5  A    between atoms: C_8  and  N_9
REMARK    6  A    between atoms: N_12  and  C_13
REMARK    7  A    between atoms: C_13  and  C_14
REMARK                            x       y       z     vdW  Elec       q    Type
REMARK                         _______ _______ _______ _____ _____    ______ ____
ROOT
ATOM      1  N   UNL     1       2.184   6.041  20.361  0.00  0.00    +0.000 NA
ATOM      2  C   UNL     1       2.536   4.904  21.229  0.00  0.00    +0.000 C 
ATOM      3  C   UNL     1       1.744   3.597  20.991  0.00  0.00    +0.000 C 
ATOM      4  N   UNL     1       1.783   3.097  19.603  0.00  0.00    +0.000 NA
ATOM      5  C   UNL     1       1.337   4.195  18.724  0.00  0.00    +0.000 C 
ATOM      6  C   UNL     1       1.994   5.586  18.964  0.00  0.00    +0.000 C 
ENDROOT
BRANCH   1   7
ATOM      7  C   UNL     1       1.064   6.859  20.869  0.00  0.00    +0.000 C 
BRANCH   7   8
ATOM      8  C   UNL     1       1.355   8.386  20.983  0.00  0.00    +0.000 C 
BRANCH   8   9
ATOM      9  O   UNL     1       0.741   8.874  22.188  0.00  0.00    +0.000 OA
BRANCH   9  14
ATOM     10  C   UNL     1      -2.646  13.381  21.362  0.00  0.00    +0.000 C 
ATOM     11  C   UNL     1      -1.734  12.213  21.616  0.00  0.00    +0.000 A 
ATOM     12  C   UNL     1      -0.951  11.676  20.593  0.00  0.00    +0.000 A 
ATOM     13  C   UNL     1      -0.130  10.569  20.838  0.00  0.00    +0.000 A 
ATOM     14  C   UNL     1      -0.056   9.985  22.108  0.00  0.00    +0.000 A 
ATOM     15  C   UNL     1      -0.833  10.522  23.131  0.00  0.00    +0.000 A 
ATOM     16  C   UNL     1      -1.669  11.626  22.886  0.00  0.00    +0.000 A 
ENDBRANCH   9  14
ENDBRANCH   8   9
ENDBRANCH   7   8
ENDBRANCH   1   7
BRANCH   4  17
ATOM     17  C   UNL     1       3.090   2.500  19.194  0.00  0.00    +0.000 C 
BRANCH  17  18
ATOM     18  C   UNL     1       3.626   3.034  17.812  0.00  0.00    +0.000 C 
ATOM     19  O   UNL     1       3.022   2.741  16.775  0.00  0.00    +0.000 OA
ATOM     20  N   UNL     1       4.811   3.847  17.831  0.00  0.00    +0.000 N 
ATOM     21  C   UNL     1       5.337   4.291  19.127  0.00  0.00    +0.000 C 
ATOM     22  C   UNL     1       6.434   5.342  19.179  0.00  0.00    +0.000 C 
ATOM     23  C   UNL     1       7.368   5.383  17.997  0.00  0.00    +0.000 C 
ATOM     24  C   UNL     1       6.751   4.939  16.712  0.00  0.00    +0.000 A 
ATOM     25  C   UNL     1       7.494   5.242  15.543  0.00  0.00    +0.000 A 
ATOM     26  C   UNL     1       7.060   4.846  14.289  0.00  0.00    +0.000 A 
ATOM     27  C   UNL     1       5.874   4.141  14.186  0.00  0.00    +0.000 A 
ATOM     28  C   UNL     1       5.135   3.837  15.345  0.00  0.00    +0.000 A 
ATOM     29  C   UNL     1       5.547   4.207  16.634  0.00  0.00    +0.000 A 
ENDBRANCH  17  18
ENDBRANCH   4  17
TORSDOF 6
ENDMDL
MODEL 8
REMARK VINA RESULT:      -7.2      3.846      6.075
REMARK  Name = 
REMARK  7 active torsions:
REMARK  status: ('A' for Active; 'I' for Inactive)
REMARK    1  A    between atoms: C_1  and  C_2
REMARK    2  A    between atoms: C_5  and  O_6
REMARK    3  A    between atoms: O_6  and  C_7
REMARK    4  A    between atoms: C_7  and  C_8
REMARK    5  A    between atoms: C_8  and  N_9
REMARK    6  A    between atoms: N_12  and  C_13
REMARK    7  A    between atoms: C_13  and  C_14
REMARK                            x       y       z     vdW  Elec       q    Type
REMARK                         _______ _______ _______ _____ _____    ______ ____
ROOT
ATOM      1  N   UNL     1       0.535  10.000  18.940  0.00  0.00    +0.000 NA
ATOM      2  C   UNL     1      -0.708   9.998  19.731  0.00  0.00    +0.000 C 
ATOM      3  C   UNL     1      -0.668  10.785  21.062  0.00  0.00    +0.000 C 
ATOM      4  N   UNL     1      -0.251  12.195  20.933  0.00  0.00    +0.000 NA
ATOM      5  C   UNL     1       1.045  12.211  20.228  0.00  0.00    +0.000 C 
ATOM      6  C   UNL     1       1.142  11.353  18.934  0.00  0.00    +0.000 C 
ENDROOT
BRANCH   1   7
ATOM      7  C   UNL     1       1.486   8.933  19.315  0.00  0.00    +0.000 C 
BRANCH   7   8
ATOM      8  C   UNL     1       2.167   8.201  18.120  0.00  0.00    +0.000 C 
BRANCH   8   9
ATOM      9  O   UNL     1       2.825   7.027  18.626  0.00  0.00    +0.000 OA
BRANCH   9  14
ATOM     10  C   UNL     1       5.966   3.839  15.099  0.00  0.00    +0.000 C 
ATOM     11  C   UNL     1       5.176   4.699  16.046  0.00  0.00    +0.000 A 
ATOM     12  C   UNL     1       4.203   4.145  16.878  0.00  0.00    +0.000 A 
ATOM     13  C   UNL     1       3.453   4.963  17.733  0.00  0.00    +0.000 A 
ATOM     14  C   UNL     1       3.669   6.344  17.790  0.00  0.00    +0.000 A 
ATOM     15  C   UNL     1       4.644   6.899  16.964  0.00  0.00    +0.000 A 
ATOM     16  C   UNL     1       5.389   6.082  16.095  0.00  0.00    +0.000 A 
ENDBRANCH   9  14
ENDBRANCH   8   9
ENDBRANCH   7   8
ENDBRANCH   1   7
BRANCH   4  17
ATOM     17  C   UNL     1      -1.276  13.091  20.315  0.00  0.00    +0.000 C 
BRANCH  17  18
ATOM     18  C   UNL     1      -2.566  13.283  21.201  0.00  0.00    +0.000 C 
ATOM     19  O   UNL     1      -2.468  13.843  22.297  0.00  0.00    +0.000 OA
ATOM     20  N   UNL     1      -3.808  12.784  20.677  0.00  0.00    +0.000 N 
ATOM     21  C   UNL     1      -3.845  12.310  19.290  0.00  0.00    +0.000 C 
ATOM     22  C   UNL     1      -5.179  12.005  18.629  0.00  0.00    +0.000 C 
ATOM     23  C   UNL     1      -6.287  11.558  19.548  0.00  0.00    +0.000 C 
ATOM     24  C   UNL     1      -6.191  12.103  20.934  0.00  0.00    +0.000 A 
ATOM     25  C   UNL     1      -7.353  11.950  21.731  0.00  0.00    +0.000 A 
ATOM     26  C   UNL     1      -7.385  12.369  23.050  0.00  0.00    +0.000 A 
ATOM     27  C   UNL     1      -6.252  12.948  23.593  0.00  0.00    +0.000 A 
ATOM     28  C   UNL     1      -5.095  13.098  22.806  0.00  0.00    +0.000 A 
ATOM     29  C   UNL     1      -5.018  12.675  21.471  0.00  0.00    +0.000 A 
ENDBRANCH  17  18
ENDBRANCH   4  17
TORSDOF 6
ENDMDL
MODEL 9
REMARK VINA RESULT:      -7.1      3.622      5.773
REMARK  Name = 
REMARK  7 active torsions:
REMARK  status: ('A' for Active; 'I' for Inactive)
REMARK    1  A    between atoms: C_1  and  C_2
REMARK    2  A    between atoms: C_5  and  O_6
REMARK    3  A    between atoms: O_6  and  C_7
REMARK    4  A    between atoms: C_7  and  C_8
REMARK    5  A    between atoms: C_8  and  N_9
REMARK    6  A    between atoms: N_12  and  C_13
REMARK    7  A    between atoms: C_13  and  C_14
REMARK                            x       y       z     vdW  Elec       q    Type
REMARK                         _______ _______ _______ _____ _____    ______ ____
ROOT
ATOM      1  N   UNL     1       0.521   8.796  20.452  0.00  0.00    +0.000 NA
ATOM      2  C   UNL     1      -0.177   8.588  21.733  0.00  0.00    +0.000 C 
ATOM      3  C   UNL     1       0.182   9.571  22.870  0.00  0.00    +0.000 C 
ATOM      4  N   UNL     1       0.019  10.998  22.528  0.00  0.00    +0.000 NA
ATOM      5  C   UNL     1       0.795  11.249  21.298  0.00  0.00    +0.000 C 
ATOM      6  C   UNL     1       0.589  10.241  20.130  0.00  0.00    +0.000 C 
ENDROOT
BRANCH   1   7
ATOM      7  C   UNL     1       1.828   8.113  20.364  0.00  0.00    +0.000 C 
BRANCH   7   8
ATOM      8  C   UNL     1       2.235   7.643  18.935  0.00  0.00    +0.000 C 
BRANCH   8   9
ATOM      9  O   UNL     1       2.989   6.425  19.059  0.00  0.00    +0.000 OA
BRANCH   9  14
ATOM     10  C   UNL     1       5.935   4.406  14.619  0.00  0.00    +0.000 C 
ATOM     11  C   UNL     1       5.195   4.962  15.804  0.00  0.00    +0.000 A 
ATOM     12  C   UNL     1       4.481   4.125  16.662  0.00  0.00    +0.000 A 
ATOM     13  C   UNL     1       3.771   4.660  17.744  0.00  0.00    +0.000 A 
ATOM     14  C   UNL     1       3.773   6.036  18.005  0.00  0.00    +0.000 A 
ATOM     15  C   UNL     1       4.490   6.872  17.153  0.00  0.00    +0.000 A 
ATOM     16  C   UNL     1       5.193   6.339  16.058  0.00  0.00    +0.000 A 
ENDBRANCH   9  14
ENDBRANCH   8   9
ENDBRANCH   7   8
ENDBRANCH   1   7
BRANCH   4  17
ATOM     17  C   UNL     1      -1.401  11.457  22.441  0.00  0.00    +0.000 C 
BRANCH  17  18
ATOM     18  C   UNL     1      -1.638  12.896  23.038  0.00  0.00    +0.000 C 
ATOM     19  O   UNL     1      -0.693  13.499  23.556  0.00  0.00    +0.000 OA
ATOM     20  N   UNL     1      -2.966  13.438  22.949  0.00  0.00    +0.000 N 
ATOM     21  C   UNL     1      -3.965  12.722  22.148  0.00  0.00    +0.000 C 
ATOM     22  C   UNL     1      -5.297  13.382  21.832  0.00  0.00    +0.000 C 
ATOM     23  C   UNL     1      -5.801  14.376  22.846  0.00  0.00    +0.000 C 
ATOM     24  C   UNL     1      -4.723  15.080  23.602  0.00  0.00    +0.000 A 
ATOM     25  C   UNL     1      -5.139  16.218  24.339  0.00  0.00    +0.000 A 
ATOM     26  C   UNL     1      -4.250  16.936  25.122  0.00  0.00    +0.000 A 
ATOM     27  C   UNL     1      -2.931  16.526  25.178  0.00  0.00    +0.000 A 
ATOM     28  C   UNL     1      -2.515  15.395  24.450  0.00  0.00    +0.000 A 
ATOM     29  C   UNL     1      -3.386  14.633  23.657  0.00  0.00    +0.000 A 
ENDBRANCH  17  18
ENDBRANCH   4  17
TORSDOF 6
ENDMDL
