MODEL 1
REMARK VINA RESULT:      -7.0      0.000      0.000
REMARK  Name = 
REMARK  7 active torsions:
REMARK  status: ('A' for Active; 'I' for Inactive)
REMARK    1  A    between atoms: C_1  and  S_2
REMARK    2  A    between atoms: S_2  and  C_3
REMARK    3  A    between atoms: C_6  and  C_7
REMARK    4  A    between atoms: C_9  and  C_10
REMARK    5  A    between atoms: C_15  and  O_16
REMARK    6  A    between atoms: N_22  and  C_23
REMARK    7  A    between atoms: C_23  and  C_24
REMARK                            x       y       z     vdW  Elec       q    Type
REMARK                         _______ _______ _______ _____ _____    ______ ____
ROOT
ATOM      1  C   UNL     1       0.520  12.656  19.476  0.00  0.00    +0.000 C 
ATOM      2  C   UNL     1      -0.910  12.666  19.872  0.00  0.00    +0.000 A 
ATOM      3  C   UNL     1      -2.204  12.240  19.510  0.00  0.00    +0.000 A 
ATOM      4  N   UNL     1      -3.090  12.629  20.465  0.00  0.00    +0.000 NA
ATOM      5  N   UNL     1      -2.354  13.298  21.388  0.00  0.00    +0.000 N 
ATOM      6  C   UNL     1      -1.052  13.294  21.074  0.00  0.00    +0.000 A 
ATOM      7  C   UNL     1       0.182  13.704  21.627  0.00  0.00    +0.000 C 
ATOM      8  O   UNL     1       0.373  14.292  22.672  0.00  0.00    +0.000 OA
ATOM      9  N   UNL     1       1.125  13.272  20.690  0.00  0.00    +0.000 N 
ATOM     10  H   UNL     1      -2.820  13.698  22.195  0.00  0.00    +0.000 HD
ENDROOT
BRANCH   1  14
ATOM     11  C   UNL     1       1.971   8.643  18.684  0.00  0.00    +0.000 A 
ATOM     12  C   UNL     1       2.203   9.688  17.788  0.00  0.00    +0.000 A 
ATOM     13  C   UNL     1       1.717  10.969  18.061  0.00  0.00    +0.000 A 
ATOM     14  C   UNL     1       0.989  11.238  19.235  0.00  0.00    +0.000 A 
ATOM     15  C   UNL     1       0.776  10.178  20.132  0.00  0.00    +0.000 A 
ATOM     16  C   UNL     1       1.244   8.891  19.847  0.00  0.00    +0.000 A 
BRANCH  11  18
ATOM     17  C   UNL     1       2.305   6.206  19.898  0.00  0.00    +0.000 C 
ATOM     18  S   UNL     1       2.586   7.015  18.301  0.00  0.00    +0.000 S 
ENDBRANCH  11  18
ENDBRANCH   1  14
BRANCH   3  19
ATOM     19  C   UNL     1      -2.637  11.452  18.349  0.00  0.00    +0.000 A 
ATOM     20  C   UNL     1      -1.792  10.446  17.842  0.00  0.00    +0.000 A 
ATOM     21  C   UNL     1      -2.178   9.660  16.750  0.00  0.00    +0.000 A 
ATOM     22  C   UNL     1      -3.412   9.872  16.143  0.00  0.00    +0.000 A 
ATOM     23  C   UNL     1      -4.255  10.873  16.618  0.00  0.00    +0.000 A 
ATOM     24  C   UNL     1      -3.874  11.650  17.717  0.00  0.00    +0.000 A 
BRANCH  24  25
ATOM     25  O   UNL     1      -4.754  12.590  18.184  0.00  0.00    +0.000 OA
ATOM     26  H   UNL     1      -4.308  13.449  18.197  0.00  0.00    +0.000 HD
ENDBRANCH  24  25
ENDBRANCH   3  19
BRANCH   9  27
ATOM     27  C   UNL     1       2.551  13.494  20.835  0.00  0.00    +0.000 C 
BRANCH  27  28
ATOM     28  C   UNL     1       3.076  14.620  19.980  0.00  0.00    +0.000 A 
ATOM     29  C   UNL     1       3.639  14.365  18.724  0.00  0.00    +0.000 A 
ATOM     30  C   UNL     1       4.114  15.428  17.973  0.00  0.00    +0.000 A 
ATOM     31  N   UNL     1       4.052  16.716  18.372  0.00  0.00    +0.000 NA
ATOM     32  C   UNL     1       3.477  16.949  19.571  0.00  0.00    +0.000 A 
ATOM     33  C   UNL     1       2.980  15.951  20.398  0.00  0.00    +0.000 A 
ENDBRANCH  27  28
ENDBRANCH   9  27
TORSDOF 6
ENDMDL
MODEL 2
REMARK VINA RESULT:      -6.9      0.518      1.320
REMARK  Name = 
REMARK  7 active torsions:
REMARK  status: ('A' for Active; 'I' for Inactive)
REMARK    1  A    between atoms: C_1  and  S_2
REMARK    2  A    between atoms: S_2  and  C_3
REMARK    3  A    between atoms: C_6  and  C_7
REMARK    4  A    between atoms: C_9  and  C_10
REMARK    5  A    between atoms: C_15  and  O_16
REMARK    6  A    between atoms: N_22  and  C_23
REMARK    7  A    between atoms: C_23  and  C_24
REMARK                            x       y       z     vdW  Elec       q    Type
REMARK                         _______ _______ _______ _____ _____    ______ ____
ROOT
ATOM      1  C   UNL     1       0.652  12.694  19.457  0.00  0.00    +0.000 C 
ATOM      2  C   UNL     1      -0.769  12.706  19.884  0.00  0.00    +0.000 A 
ATOM      3  C   UNL     1      -2.069  12.275  19.555  0.00  0.00    +0.000 A 
ATOM      4  N   UNL     1      -2.934  12.670  20.526  0.00  0.00    +0.000 NA
ATOM      5  N   UNL     1      -2.180  13.348  21.427  0.00  0.00    +0.000 N 
ATOM      6  C   UNL     1      -0.885  13.343  21.085  0.00  0.00    +0.000 A 
ATOM      7  C   UNL     1       0.360  13.759  21.607  0.00  0.00    +0.000 C 
ATOM      8  O   UNL     1       0.574  14.355  22.643  0.00  0.00    +0.000 OA
ATOM      9  N   UNL     1       1.283  13.320  20.653  0.00  0.00    +0.000 N 
ATOM     10  H   UNL     1      -2.628  13.754  22.242  0.00  0.00    +0.000 HD
ENDROOT
BRANCH   1  14
ATOM     11  C   UNL     1       1.888   8.575  18.878  0.00  0.00    +0.000 A 
ATOM     12  C   UNL     1       1.238   8.979  20.043  0.00  0.00    +0.000 A 
ATOM     13  C   UNL     1       0.858  10.313  20.210  0.00  0.00    +0.000 A 
ATOM     14  C   UNL     1       1.118  11.275  19.217  0.00  0.00    +0.000 A 
ATOM     15  C   UNL     1       1.763  10.849  18.044  0.00  0.00    +0.000 A 
ATOM     16  C   UNL     1       2.162   9.518  17.887  0.00  0.00    +0.000 A 
BRANCH  11  18
ATOM     17  C   UNL     1       3.802   7.083  17.598  0.00  0.00    +0.000 C 
ATOM     18  S   UNL     1       2.379   6.871  18.699  0.00  0.00    +0.000 S 
ENDBRANCH  11  18
ENDBRANCH   1  14
BRANCH   3  19
ATOM     19  C   UNL     1      -2.527  11.478  18.410  0.00  0.00    +0.000 A 
ATOM     20  C   UNL     1      -1.686  10.479  17.883  0.00  0.00    +0.000 A 
ATOM     21  C   UNL     1      -2.094   9.685  16.805  0.00  0.00    +0.000 A 
ATOM     22  C   UNL     1      -3.347   9.880  16.234  0.00  0.00    +0.000 A 
ATOM     23  C   UNL     1      -4.188  10.874  16.729  0.00  0.00    +0.000 A 
ATOM     24  C   UNL     1      -3.784  11.660  17.813  0.00  0.00    +0.000 A 
BRANCH  24  25
ATOM     25  O   UNL     1      -4.661  12.591  18.302  0.00  0.00    +0.000 OA
ATOM     26  H   UNL     1      -4.631  12.562  19.269  0.00  0.00    +0.000 HD
ENDBRANCH  24  25
ENDBRANCH   3  19
BRANCH   9  27
ATOM     27  C   UNL     1       2.712  13.546  20.764  0.00  0.00    +0.000 C 
BRANCH  27  28
ATOM     28  C   UNL     1       3.211  14.687  19.913  0.00  0.00    +0.000 A 
ATOM     29  C   UNL     1       3.409  15.958  20.463  0.00  0.00    +0.000 A 
ATOM     30  C   UNL     1       3.864  16.980  19.645  0.00  0.00    +0.000 A 
ATOM     31  N   UNL     1       4.150  16.821  18.336  0.00  0.00    +0.000 NA
ATOM     32  C   UNL     1       3.986  15.583  17.828  0.00  0.00    +0.000 A 
ATOM     33  C   UNL     1       3.528  14.499  18.564  0.00  0.00    +0.000 A 
ENDBRANCH  27  28
ENDBRANCH   9  27
TORSDOF 6
ENDMDL
MODEL 3
REMARK VINA RESULT:      -6.9      1.357      1.782
REMARK  Name = 
REMARK  7 active torsions:
REMARK  status: ('A' for Active; 'I' for Inactive)
REMARK    1  A    between atoms: C_1  and  S_2
REMARK    2  A    between atoms: S_2  and  C_3
REMARK    3  A    between atoms: C_6  and  C_7
REMARK    4  A    between atoms: C_9  and  C_10
REMARK    5  A    between atoms: C_15  and  O_16
REMARK    6  A    between atoms: N_22  and  C_23
REMARK    7  A    between atoms: C_23  and  C_24
REMARK                            x       y       z     vdW  Elec       q    Type
REMARK                         _______ _______ _______ _____ _____    ______ ____
ROOT
ATOM      1  C   UNL     1      -0.996  12.836  20.011  0.00  0.00    +0.000 C 
ATOM      2  C   UNL     1      -2.458  12.630  19.862  0.00  0.00    +0.000 A 
ATOM      3  C   UNL     1      -3.459  12.059  19.052  0.00  0.00    +0.000 A 
ATOM      4  N   UNL     1      -4.674  12.264  19.625  0.00  0.00    +0.000 NA
ATOM      5  N   UNL     1      -4.424  12.966  20.759  0.00  0.00    +0.000 N 
ATOM      6  C   UNL     1      -3.111  13.155  20.938  0.00  0.00    +0.000 A 
ATOM      7  C   UNL     1      -2.230  13.691  21.905  0.00  0.00    +0.000 C 
ATOM      8  O   UNL     1      -2.514  14.231  22.955  0.00  0.00    +0.000 OA
ATOM      9  N   UNL     1      -0.962  13.448  21.369  0.00  0.00    +0.000 N 
ATOM     10  H   UNL     1      -5.201  13.248  21.347  0.00  0.00    +0.000 HD
ENDROOT
BRANCH   1  14
ATOM     11  C   UNL     1       1.200   9.104  19.720  0.00  0.00    +0.000 A 
ATOM     12  C   UNL     1       1.376  10.123  18.784  0.00  0.00    +0.000 A 
ATOM     13  C   UNL     1       0.650  11.312  18.894  0.00  0.00    +0.000 A 
ATOM     14  C   UNL     1      -0.268  11.511  19.942  0.00  0.00    +0.000 A 
ATOM     15  C   UNL     1      -0.423  10.481  20.883  0.00  0.00    +0.000 A 
ATOM     16  C   UNL     1       0.288   9.282  20.759  0.00  0.00    +0.000 A 
BRANCH  11  18
ATOM     17  C   UNL     1       2.849   7.870  17.908  0.00  0.00    +0.000 C 
ATOM     18  S   UNL     1       2.124   7.590  19.545  0.00  0.00    +0.000 S 
ENDBRANCH  11  18
ENDBRANCH   1  14
BRANCH   3  19
ATOM     19  C   UNL     1      -3.328  11.296  17.804  0.00  0.00    +0.000 A 
ATOM     20  C   UNL     1      -2.383  10.254  17.726  0.00  0.00    +0.000 A 
ATOM     21  C   UNL     1      -2.242   9.492  16.561  0.00  0.00    +0.000 A 
ATOM     22  C   UNL     1      -3.039   9.761  15.454  0.00  0.00    +0.000 A 
ATOM     23  C   UNL     1      -3.968  10.796  15.504  0.00  0.00    +0.000 A 
ATOM     24  C   UNL     1      -4.117  11.551  16.672  0.00  0.00    +0.000 A 
BRANCH  24  25
ATOM     25  O   UNL     1      -5.077  12.527  16.697  0.00  0.00    +0.000 OA
ATOM     26  H   UNL     1      -5.366  12.696  15.789  0.00  0.00    +0.000 HD
ENDBRANCH  24  25
ENDBRANCH   3  19
BRANCH   9  27
ATOM     27  C   UNL     1       0.269  13.849  22.024  0.00  0.00    +0.000 C 
BRANCH  27  28
ATOM     28  C   UNL     1       1.261  14.504  21.094  0.00  0.00    +0.000 A 
ATOM     29  C   UNL     1       2.487  13.894  20.809  0.00  0.00    +0.000 A 
ATOM     30  C   UNL     1       3.372  14.532  19.954  0.00  0.00    +0.000 A 
ATOM     31  N   UNL     1       3.115  15.714  19.355  0.00  0.00    +0.000 NA
ATOM     32  C   UNL     1       1.915  16.274  19.614  0.00  0.00    +0.000 A 
ATOM     33  C   UNL     1       0.968  15.716  20.461  0.00  0.00    +0.000 A 
ENDBRANCH  27  28
ENDBRANCH   9  27
TORSDOF 6
ENDMDL
MODEL 4
REMARK VINA RESULT:      -6.9      1.357      2.114
REMARK  Name = 
REMARK  7 active torsions:
REMARK  status: ('A' for Active; 'I' for Inactive)
REMARK    1  A    between atoms: C_1  and  S_2
REMARK    2  A    between atoms: S_2  and  C_3
REMARK    3  A    between atoms: C_6  and  C_7
REMARK    4  A    between atoms: C_9  and  C_10
REMARK    5  A    between atoms: C_15  and  O_16
REMARK    6  A    between atoms: N_22  and  C_23
REMARK    7  A    between atoms: C_23  and  C_24
REMARK                            x       y       z     vdW  Elec       q    Type
REMARK                         _______ _______ _______ _____ _____    ______ ____
ROOT
ATOM      1  C   UNL     1      -1.061  12.855  19.971  0.00  0.00    +0.000 C 
ATOM      2  C   UNL     1      -2.512  12.567  19.854  0.00  0.00    +0.000 A 
ATOM      3  C   UNL     1      -3.500  11.958  19.056  0.00  0.00    +0.000 A 
ATOM      4  N   UNL     1      -4.709  12.078  19.665  0.00  0.00    +0.000 NA
ATOM      5  N   UNL     1      -4.470  12.766  20.810  0.00  0.00    +0.000 N 
ATOM      6  C   UNL     1      -3.165  13.028  20.960  0.00  0.00    +0.000 A 
ATOM      7  C   UNL     1      -2.290  13.591  21.917  0.00  0.00    +0.000 C 
ATOM      8  O   UNL     1      -2.576  14.088  22.987  0.00  0.00    +0.000 OA
ATOM      9  N   UNL     1      -1.026  13.436  21.342  0.00  0.00    +0.000 N 
ATOM     10  H   UNL     1      -5.245  12.988  21.425  0.00  0.00    +0.000 HD
ENDROOT
BRANCH   1  14
ATOM     11  C   UNL     1       1.135   9.121  19.715  0.00  0.00    +0.000 A 
ATOM     12  C   UNL     1       0.239   9.364  20.755  0.00  0.00    +0.000 A 
ATOM     13  C   UNL     1      -0.450  10.579  20.821  0.00  0.00    +0.000 A 
ATOM     14  C   UNL     1      -0.259  11.578  19.849  0.00  0.00    +0.000 A 
ATOM     15  C   UNL     1       0.637  11.312  18.801  0.00  0.00    +0.000 A 
ATOM     16  C   UNL     1       1.342  10.105  18.748  0.00  0.00    +0.000 A 
BRANCH  11  18
ATOM     17  C   UNL     1       2.829   7.740  18.056  0.00  0.00    +0.000 C 
ATOM     18  S   UNL     1       2.014   7.571  19.665  0.00  0.00    +0.000 S 
ENDBRANCH  11  18
ENDBRANCH   1  14
BRANCH   3  19
ATOM     19  C   UNL     1      -3.359  11.233  17.786  0.00  0.00    +0.000 A 
ATOM     20  C   UNL     1      -2.433  10.177  17.692  0.00  0.00    +0.000 A 
ATOM     21  C   UNL     1      -2.283   9.450  16.506  0.00  0.00    +0.000 A 
ATOM     22  C   UNL     1      -3.054   9.771  15.393  0.00  0.00    +0.000 A 
ATOM     23  C   UNL     1      -3.964  10.822  15.460  0.00  0.00    +0.000 A 
ATOM     24  C   UNL     1      -4.121  11.541  16.649  0.00  0.00    +0.000 A 
BRANCH  24  25
ATOM     25  O   UNL     1      -5.063  12.534  16.688  0.00  0.00    +0.000 OA
ATOM     26  H   UNL     1      -5.121  12.867  17.595  0.00  0.00    +0.000 HD
ENDBRANCH  24  25
ENDBRANCH   3  19
BRANCH   9  27
ATOM     27  C   UNL     1       0.197  13.893  21.974  0.00  0.00    +0.000 C 
BRANCH  27  28
ATOM     28  C   UNL     1       1.131  14.613  21.033  0.00  0.00    +0.000 A 
ATOM     29  C   UNL     1       0.811  15.883  20.539  0.00  0.00    +0.000 A 
ATOM     30  C   UNL     1       1.694  16.508  19.672  0.00  0.00    +0.000 A 
ATOM     31  N   UNL     1       2.869  15.970  19.282  0.00  0.00    +0.000 NA
ATOM     32  C   UNL     1       3.178  14.760  19.793  0.00  0.00    +0.000 A 
ATOM     33  C   UNL     1       2.356  14.053  20.660  0.00  0.00    +0.000 A 
ENDBRANCH  27  28
ENDBRANCH   9  27
TORSDOF 6
ENDMDL
MODEL 5
REMARK VINA RESULT:      -6.5      3.402      7.134
REMARK  Name = 
REMARK  7 active torsions:
REMARK  status: ('A' for Active; 'I' for Inactive)
REMARK    1  A    between atoms: C_1  and  S_2
REMARK    2  A    between atoms: S_2  and  C_3
REMARK    3  A    between atoms: C_6  and  C_7
REMARK    4  A    between atoms: C_9  and  C_10
REMARK    5  A    between atoms: C_15  and  O_16
REMARK    6  A    between atoms: N_22  and  C_23
REMARK    7  A    between atoms: C_23  and  C_24
REMARK                            x       y       z     vdW  Elec       q    Type
REMARK                         _______ _______ _______ _____ _____    ______ ____
ROOT
ATOM      1  C   UNL     1      -1.045  12.553  19.456  0.00  0.00    +0.000 C 
ATOM      2  C   UNL     1       0.256  13.248  19.615  0.00  0.00    +0.000 A 
ATOM      3  C   UNL     1       0.877  14.436  20.048  0.00  0.00    +0.000 A 
ATOM      4  N   UNL     1       2.224  14.319  19.907  0.00  0.00    +0.000 NA
ATOM      5  N   UNL     1       2.425  13.085  19.379  0.00  0.00    +0.000 N 
ATOM      6  C   UNL     1       1.272  12.419  19.239  0.00  0.00    +0.000 A 
ATOM      7  C   UNL     1       0.818  11.134  18.861  0.00  0.00    +0.000 C 
ATOM      8  O   UNL     1       1.481  10.193  18.473  0.00  0.00    +0.000 OA
ATOM      9  N   UNL     1      -0.566  11.204  19.045  0.00  0.00    +0.000 N 
ATOM     10  H   UNL     1       3.371  12.784  19.172  0.00  0.00    +0.000 HD
ENDROOT
BRANCH   1  14
ATOM     11  C   UNL     1      -3.336  12.542  23.142  0.00  0.00    +0.000 A 
ATOM     12  C   UNL     1      -3.823  13.157  21.988  0.00  0.00    +0.000 A 
ATOM     13  C   UNL     1      -3.062  13.156  20.816  0.00  0.00    +0.000 A 
ATOM     14  C   UNL     1      -1.798  12.539  20.768  0.00  0.00    +0.000 A 
ATOM     15  C   UNL     1      -1.329  11.914  21.935  0.00  0.00    +0.000 A 
ATOM     16  C   UNL     1      -2.081  11.935  23.114  0.00  0.00    +0.000 A 
BRANCH  11  18
ATOM     17  C   UNL     1      -5.950  12.883  23.902  0.00  0.00    +0.000 C 
ATOM     18  S   UNL     1      -4.319  12.576  24.628  0.00  0.00    +0.000 S 
ENDBRANCH  11  18
ENDBRANCH   1  14
BRANCH   3  19
ATOM     19  C   UNL     1       0.278  15.646  20.626  0.00  0.00    +0.000 A 
ATOM     20  C   UNL     1      -0.344  15.574  21.888  0.00  0.00    +0.000 A 
ATOM     21  C   UNL     1      -0.909  16.708  22.481  0.00  0.00    +0.000 A 
ATOM     22  C   UNL     1      -0.866  17.932  21.821  0.00  0.00    +0.000 A 
ATOM     23  C   UNL     1      -0.271  18.021  20.565  0.00  0.00    +0.000 A 
ATOM     24  C   UNL     1       0.304  16.890  19.978  0.00  0.00    +0.000 A 
BRANCH  24  25
ATOM     25  O   UNL     1       0.924  17.032  18.765  0.00  0.00    +0.000 OA
ATOM     26  H   UNL     1       1.798  17.422  18.911  0.00  0.00    +0.000 HD
ENDBRANCH  24  25
ENDBRANCH   3  19
BRANCH   9  27
ATOM     27  C   UNL     1      -1.463  10.100  18.762  0.00  0.00    +0.000 C 
BRANCH  27  28
ATOM     28  C   UNL     1      -2.381  10.354  17.592  0.00  0.00    +0.000 A 
ATOM     29  C   UNL     1      -2.045   9.912  16.308  0.00  0.00    +0.000 A 
ATOM     30  C   UNL     1      -2.914  10.170  15.260  0.00  0.00    +0.000 A 
ATOM     31  N   UNL     1      -4.091  10.814  15.403  0.00  0.00    +0.000 NA
ATOM     32  C   UNL     1      -4.417  11.204  16.653  0.00  0.00    +0.000 A 
ATOM     33  C   UNL     1      -3.610  10.999  17.763  0.00  0.00    +0.000 A 
ENDBRANCH  27  28
ENDBRANCH   9  27
TORSDOF 6
ENDMDL
MODEL 6
REMARK VINA RESULT:      -6.5      3.144      6.278
REMARK  Name = 
REMARK  7 active torsions:
REMARK  status: ('A' for Active; 'I' for Inactive)
REMARK    1  A    between atoms: C_1  and  S_2
REMARK    2  A    between atoms: S_2  and  C_3
REMARK    3  A    between atoms: C_6  and  C_7
REMARK    4  A    between atoms: C_9  and  C_10
REMARK    5  A    between atoms: C_15  and  O_16
REMARK    6  A    between atoms: N_22  and  C_23
REMARK    7  A    between atoms: C_23  and  C_24
REMARK                            x       y       z     vdW  Elec       q    Type
REMARK                         _______ _______ _______ _____ _____    ______ ____
ROOT
ATOM      1  C   UNL     1      -0.952  11.835  20.482  0.00  0.00    +0.000 C 
ATOM      2  C   UNL     1      -0.508  10.643  21.246  0.00  0.00    +0.000 A 
ATOM      3  C   UNL     1       0.263   9.465  21.188  0.00  0.00    +0.000 A 
ATOM      4  N   UNL     1       0.220   8.838  22.392  0.00  0.00    +0.000 NA
ATOM      5  N   UNL     1      -0.579   9.609  23.172  0.00  0.00    +0.000 N 
ATOM      6  C   UNL     1      -0.986  10.707  22.522  0.00  0.00    +0.000 A 
ATOM      7  C   UNL     1      -1.712  11.892  22.776  0.00  0.00    +0.000 C 
ATOM      8  O   UNL     1      -2.262  12.224  23.807  0.00  0.00    +0.000 OA
ATOM      9  N   UNL     1      -1.643  12.589  21.566  0.00  0.00    +0.000 N 
ATOM     10  H   UNL     1      -0.769   9.318  24.125  0.00  0.00    +0.000 HD
ENDROOT
BRANCH   1  14
ATOM     11  C   UNL     1       2.556  13.897  18.976  0.00  0.00    +0.000 A 
ATOM     12  C   UNL     1       2.478  13.475  20.303  0.00  0.00    +0.000 A 
ATOM     13  C   UNL     1       1.333  12.821  20.767  0.00  0.00    +0.000 A 
ATOM     14  C   UNL     1       0.241  12.573  19.916  0.00  0.00    +0.000 A 
ATOM     15  C   UNL     1       0.341  12.994  18.580  0.00  0.00    +0.000 A 
ATOM     16  C   UNL     1       1.478  13.667  18.122  0.00  0.00    +0.000 A 
BRANCH  11  18
ATOM     17  C   UNL     1       3.252  16.204  17.663  0.00  0.00    +0.000 C 
ATOM     18  S   UNL     1       4.020  14.745  18.416  0.00  0.00    +0.000 S 
ENDBRANCH  11  18
ENDBRANCH   1  14
BRANCH   3  19
ATOM     19  C   UNL     1       1.069   8.931  20.082  0.00  0.00    +0.000 A 
ATOM     20  C   UNL     1       1.123   9.633  18.863  0.00  0.00    +0.000 A 
ATOM     21  C   UNL     1       1.895   9.166  17.793  0.00  0.00    +0.000 A 
ATOM     22  C   UNL     1       2.623   7.988  17.924  0.00  0.00    +0.000 A 
ATOM     23  C   UNL     1       2.571   7.270  19.116  0.00  0.00    +0.000 A 
ATOM     24  C   UNL     1       1.807   7.742  20.188  0.00  0.00    +0.000 A 
BRANCH  24  25
ATOM     25  O   UNL     1       1.824   7.033  21.359  0.00  0.00    +0.000 OA
ATOM     26  H   UNL     1       1.183   6.311  21.290  0.00  0.00    +0.000 HD
ENDBRANCH  24  25
ENDBRANCH   3  19
BRANCH   9  27
ATOM     27  C   UNL     1      -2.274  13.878  21.352  0.00  0.00    +0.000 C 
BRANCH  27  28
ATOM     28  C   UNL     1      -3.776  13.803  21.231  0.00  0.00    +0.000 A 
ATOM     29  C   UNL     1      -4.376  12.998  20.257  0.00  0.00    +0.000 A 
ATOM     30  C   UNL     1      -5.760  12.961  20.176  0.00  0.00    +0.000 A 
ATOM     31  N   UNL     1      -6.577  13.647  21.002  0.00  0.00    +0.000 NA
ATOM     32  C   UNL     1      -5.984  14.393  21.957  0.00  0.00    +0.000 A 
ATOM     33  C   UNL     1      -4.609  14.500  22.112  0.00  0.00    +0.000 A 
ENDBRANCH  27  28
ENDBRANCH   9  27
TORSDOF 6
ENDMDL
MODEL 7
REMARK VINA RESULT:      -6.5      3.353      7.171
REMARK  Name = 
REMARK  7 active torsions:
REMARK  status: ('A' for Active; 'I' for Inactive)
REMARK    1  A    between atoms: C_1  and  S_2
REMARK    2  A    between atoms: S_2  and  C_3
REMARK    3  A    between atoms: C_6  and  C_7
REMARK    4  A    between atoms: C_9  and  C_10
REMARK    5  A    between atoms: C_15  and  O_16
REMARK    6  A    between atoms: N_22  and  C_23
REMARK    7  A    between atoms: C_23  and  C_24
REMARK                            x       y       z     vdW  Elec       q    Type
REMARK                         _______ _______ _______ _____ _____    ______ ____
ROOT
ATOM      1  C   UNL     1      -1.025  12.558  19.461  0.00  0.00    +0.000 C 
ATOM      2  C   UNL     1       0.271  13.261  19.625  0.00  0.00    +0.000 A 
ATOM      3  C   UNL     1       0.883  14.453  20.061  0.00  0.00    +0.000 A 
ATOM      4  N   UNL     1       2.230  14.345  19.924  0.00  0.00    +0.000 NA
ATOM      5  N   UNL     1       2.441  13.114  19.394  0.00  0.00    +0.000 N 
ATOM      6  C   UNL     1       1.293  12.440  19.249  0.00  0.00    +0.000 A 
ATOM      7  C   UNL     1       0.849  11.153  18.869  0.00  0.00    +0.000 C 
ATOM      8  O   UNL     1       1.519  10.217  18.480  0.00  0.00    +0.000 OA
ATOM      9  N   UNL     1      -0.535  11.213  19.049  0.00  0.00    +0.000 N 
ATOM     10  H   UNL     1       3.390  12.820  19.188  0.00  0.00    +0.000 HD
ENDROOT
BRANCH   1  14
ATOM     11  C   UNL     1      -3.323  12.536  23.142  0.00  0.00    +0.000 A 
ATOM     12  C   UNL     1      -3.770  13.223  22.014  0.00  0.00    +0.000 A 
ATOM     13  C   UNL     1      -3.007  13.223  20.843  0.00  0.00    +0.000 A 
ATOM     14  C   UNL     1      -1.781  12.537  20.771  0.00  0.00    +0.000 A 
ATOM     15  C   UNL     1      -1.352  11.840  21.913  0.00  0.00    +0.000 A 
ATOM     16  C   UNL     1      -2.106  11.859  23.091  0.00  0.00    +0.000 A 
BRANCH  11  18
ATOM     17  C   UNL     1      -5.935  12.892  23.903  0.00  0.00    +0.000 C 
ATOM     18  S   UNL     1      -4.307  12.569  24.629  0.00  0.00    +0.000 S 
ENDBRANCH  11  18
ENDBRANCH   1  14
BRANCH   3  19
ATOM     19  C   UNL     1       0.273  15.658  20.640  0.00  0.00    +0.000 A 
ATOM     20  C   UNL     1      -0.703  16.360  19.907  0.00  0.00    +0.000 A 
ATOM     21  C   UNL     1      -1.320  17.500  20.433  0.00  0.00    +0.000 A 
ATOM     22  C   UNL     1      -0.969  17.960  21.698  0.00  0.00    +0.000 A 
ATOM     23  C   UNL     1       0.006  17.290  22.433  0.00  0.00    +0.000 A 
ATOM     24  C   UNL     1       0.615  16.144  21.911  0.00  0.00    +0.000 A 
BRANCH  24  25
ATOM     25  O   UNL     1       1.531  15.486  22.687  0.00  0.00    +0.000 OA
ATOM     26  H   UNL     1       1.231  15.514  23.607  0.00  0.00    +0.000 HD
ENDBRANCH  24  25
ENDBRANCH   3  19
BRANCH   9  27
ATOM     27  C   UNL     1      -1.425  10.103  18.762  0.00  0.00    +0.000 C 
BRANCH  27  28
ATOM     28  C   UNL     1      -2.365  10.366  17.611  0.00  0.00    +0.000 A 
ATOM     29  C   UNL     1      -2.049   9.940  16.316  0.00  0.00    +0.000 A 
ATOM     30  C   UNL     1      -2.938  10.206  15.287  0.00  0.00    +0.000 A 
ATOM     31  N   UNL     1      -4.115  10.842  15.458  0.00  0.00    +0.000 NA
ATOM     32  C   UNL     1      -4.421  11.217  16.718  0.00  0.00    +0.000 A 
ATOM     33  C   UNL     1      -3.593  11.003  17.811  0.00  0.00    +0.000 A 
ENDBRANCH  27  28
ENDBRANCH   9  27
TORSDOF 6
ENDMDL
MODEL 8
REMARK VINA RESULT:      -6.5      3.012      5.104
REMARK  Name = 
REMARK  7 active torsions:
REMARK  status: ('A' for Active; 'I' for Inactive)
REMARK    1  A    between atoms: C_1  and  S_2
REMARK    2  A    between atoms: S_2  and  C_3
REMARK    3  A    between atoms: C_6  and  C_7
REMARK    4  A    between atoms: C_9  and  C_10
REMARK    5  A    between atoms: C_15  and  O_16
REMARK    6  A    between atoms: N_22  and  C_23
REMARK    7  A    between atoms: C_23  and  C_24
REMARK                            x       y       z     vdW  Elec       q    Type
REMARK                         _______ _______ _______ _____ _____    ______ ____
ROOT
ATOM      1  C   UNL     1      -0.745  12.171  20.419  0.00  0.00    +0.000 C 
ATOM      2  C   UNL     1      -0.478  10.920  21.172  0.00  0.00    +0.000 A 
ATOM      3  C   UNL     1       0.165   9.667  21.125  0.00  0.00    +0.000 A 
ATOM      4  N   UNL     1      -0.020   9.021  22.306  0.00  0.00    +0.000 NA
ATOM      5  N   UNL     1      -0.781   9.855  23.059  0.00  0.00    +0.000 N 
ATOM      6  C   UNL     1      -1.026  11.006  22.418  0.00  0.00    +0.000 A 
ATOM      7  C   UNL     1      -1.637  12.257  22.663  0.00  0.00    +0.000 C 
ATOM      8  O   UNL     1      -2.212  12.622  23.669  0.00  0.00    +0.000 OA
ATOM      9  N   UNL     1      -1.418  12.970  21.481  0.00  0.00    +0.000 N 
ATOM     10  H   UNL     1      -1.059   9.565  23.990  0.00  0.00    +0.000 HD
ENDROOT
BRANCH   1  14
ATOM     11  C   UNL     1       2.902  14.001  18.943  0.00  0.00    +0.000 A 
ATOM     12  C   UNL     1       1.813  13.776  18.101  0.00  0.00    +0.000 A 
ATOM     13  C   UNL     1       0.652  13.176  18.598  0.00  0.00    +0.000 A 
ATOM     14  C   UNL     1       0.553  12.788  19.947  0.00  0.00    +0.000 A 
ATOM     15  C   UNL     1       1.654  13.034  20.783  0.00  0.00    +0.000 A 
ATOM     16  C   UNL     1       2.823  13.614  20.280  0.00  0.00    +0.000 A 
BRANCH  11  18
ATOM     17  C   UNL     1       3.781  16.449  18.070  0.00  0.00    +0.000 C 
ATOM     18  S   UNL     1       4.376  14.750  18.278  0.00  0.00    +0.000 S 
ENDBRANCH  11  18
ENDBRANCH   1  14
BRANCH   3  19
ATOM     19  C   UNL     1       0.977   9.075  20.054  0.00  0.00    +0.000 A 
ATOM     20  C   UNL     1       1.014   9.694  18.790  0.00  0.00    +0.000 A 
ATOM     21  C   UNL     1       1.791   9.171  17.751  0.00  0.00    +0.000 A 
ATOM     22  C   UNL     1       2.540   8.017  17.957  0.00  0.00    +0.000 A 
ATOM     23  C   UNL     1       2.505   7.380  19.195  0.00  0.00    +0.000 A 
ATOM     24  C   UNL     1       1.737   7.909  20.236  0.00  0.00    +0.000 A 
BRANCH  24  25
ATOM     25  O   UNL     1       1.770   7.280  21.452  0.00  0.00    +0.000 OA
ATOM     26  H   UNL     1       2.500   7.650  21.969  0.00  0.00    +0.000 HD
ENDBRANCH  24  25
ENDBRANCH   3  19
BRANCH   9  27
ATOM     27  C   UNL     1      -1.893  14.324  21.269  0.00  0.00    +0.000 C 
BRANCH  27  28
ATOM     28  C   UNL     1      -0.865  15.381  21.587  0.00  0.00    +0.000 A 
ATOM     29  C   UNL     1      -0.309  15.477  22.867  0.00  0.00    +0.000 A 
ATOM     30  C   UNL     1       0.629  16.466  23.120  0.00  0.00    +0.000 A 
ATOM     31  N   UNL     1       1.060  17.344  22.191  0.00  0.00    +0.000 NA
ATOM     32  C   UNL     1       0.539  17.218  20.953  0.00  0.00    +0.000 A 
ATOM     33  C   UNL     1      -0.410  16.267  20.606  0.00  0.00    +0.000 A 
ENDBRANCH  27  28
ENDBRANCH   9  27
TORSDOF 6
ENDMDL
MODEL 9
REMARK VINA RESULT:      -6.5      3.368      7.195
REMARK  Name = 
REMARK  7 active torsions:
REMARK  status: ('A' for Active; 'I' for Inactive)
REMARK    1  A    between atoms: C_1  and  S_2
REMARK    2  A    between atoms: S_2  and  C_3
REMARK    3  A    between atoms: C_6  and  C_7
REMARK    4  A    between atoms: C_9  and  C_10
REMARK    5  A    between atoms: C_15  and  O_16
REMARK    6  A    between atoms: N_22  and  C_23
REMARK    7  A    between atoms: C_23  and  C_24
REMARK                            x       y       z     vdW  Elec       q    Type
REMARK                         _______ _______ _______ _____ _____    ______ ____
ROOT
ATOM      1  C   UNL     1      -0.619  12.938  19.198  0.00  0.00    +0.000 C 
ATOM      2  C   UNL     1       0.732  13.548  19.125  0.00  0.00    +0.000 A 
ATOM      3  C   UNL     1       1.463  14.740  19.298  0.00  0.00    +0.000 A 
ATOM      4  N   UNL     1       2.779  14.500  19.063  0.00  0.00    +0.000 NA
ATOM      5  N   UNL     1       2.853  13.186  18.732  0.00  0.00    +0.000 N 
ATOM      6  C   UNL     1       1.653  12.595  18.805  0.00  0.00    +0.000 A 
ATOM      7  C   UNL     1       1.088  11.305  18.688  0.00  0.00    +0.000 C 
ATOM      8  O   UNL     1       1.651  10.267  18.405  0.00  0.00    +0.000 OA
ATOM      9  N   UNL     1      -0.264  11.507  18.977  0.00  0.00    +0.000 N 
ATOM     10  H   UNL     1       3.754  12.786  18.496  0.00  0.00    +0.000 HD
ENDROOT
BRANCH   1  14
ATOM     11  C   UNL     1      -2.536  13.678  23.020  0.00  0.00    +0.000 A 
ATOM     12  C   UNL     1      -3.140  14.057  21.821  0.00  0.00    +0.000 A 
ATOM     13  C   UNL     1      -2.498  13.816  20.603  0.00  0.00    +0.000 A 
ATOM     14  C   UNL     1      -1.239  13.191  20.554  0.00  0.00    +0.000 A 
ATOM     15  C   UNL     1      -0.651  12.804  21.769  0.00  0.00    +0.000 A 
ATOM     16  C   UNL     1      -1.284  13.065  22.989  0.00  0.00    +0.000 A 
BRANCH  11  18
ATOM     17  C   UNL     1      -4.374  12.513  24.691  0.00  0.00    +0.000 C 
ATOM     18  S   UNL     1      -3.368  14.014  24.560  0.00  0.00    +0.000 S 
ENDBRANCH  11  18
ENDBRANCH   1  14
BRANCH   3  19
ATOM     19  C   UNL     1       0.997  16.069  19.717  0.00  0.00    +0.000 A 
ATOM     20  C   UNL     1       0.352  16.215  20.961  0.00  0.00    +0.000 A 
ATOM     21  C   UNL     1      -0.088  17.467  21.404  0.00  0.00    +0.000 A 
ATOM     22  C   UNL     1       0.104  18.592  20.609  0.00  0.00    +0.000 A 
ATOM     23  C   UNL     1       0.725  18.467  19.369  0.00  0.00    +0.000 A 
ATOM     24  C   UNL     1       1.174  17.217  18.931  0.00  0.00    +0.000 A 
BRANCH  24  25
ATOM     25  O   UNL     1       1.825  17.146  17.728  0.00  0.00    +0.000 OA
ATOM     26  H   UNL     1       2.778  17.152  17.894  0.00  0.00    +0.000 HD
ENDBRANCH  24  25
ENDBRANCH   3  19
BRANCH   9  27
ATOM     27  C   UNL     1      -1.250  10.444  18.960  0.00  0.00    +0.000 C 
BRANCH  27  28
ATOM     28  C   UNL     1      -2.241  10.556  17.828  0.00  0.00    +0.000 A 
ATOM     29  C   UNL     1      -1.997   9.938  16.597  0.00  0.00    +0.000 A 
ATOM     30  C   UNL     1      -2.931  10.070  15.582  0.00  0.00    +0.000 A 
ATOM     31  N   UNL     1      -4.087  10.753  15.712  0.00  0.00    +0.000 NA
ATOM     32  C   UNL     1      -4.324  11.317  16.914  0.00  0.00    +0.000 A 
ATOM     33  C   UNL     1      -3.447  11.246  17.988  0.00  0.00    +0.000 A 
ENDBRANCH  27  28
ENDBRANCH   9  27
TORSDOF 6
ENDMDL
