MODEL 1
REMARK VINA RESULT:      -9.7      0.000      0.000
REMARK  Name = 
REMARK  10 active torsions:
REMARK  status: ('A' for Active; 'I' for Inactive)
REMARK    1  A    between atoms: C_1  and  C_2
REMARK    2  A    between atoms: C_2  and  C_3
REMARK    3  A    between atoms: C_3  and  C_4
REMARK    4  A    between atoms: C_4  and  C_5
REMARK    5  A    between atoms: N_7  and  C_8
REMARK    6  A    between atoms: N_7  and  C_20
REMARK    7  A    between atoms: C_8  and  C_9
REMARK    8  A    between atoms: C_13  and  O_14
REMARK    9  A    between atoms: O_14  and  C_15
REMARK   10  A    between atoms: C_25  and  C_26
REMARK                            x       y       z     vdW  Elec       q    Type
REMARK                         _______ _______ _______ _____ _____    ______ ____
ROOT
ATOM      1  C   UNL     1       2.694   3.891  18.024  0.00  0.00    +0.000 C 
ATOM      2  O   UNL     1       3.037   3.095  17.144  0.00  0.00    +0.000 OA
ATOM      3  N   UNL     1       3.569   4.841  18.582  0.00  0.00    +0.000 N 
ENDROOT
BRANCH   3   4
ATOM      4  C   UNL     1       4.918   4.912  18.101  0.00  0.00    +0.000 A 
ATOM      5  C   UNL     1       5.981   5.121  18.980  0.00  0.00    +0.000 A 
ATOM      6  C   UNL     1       7.277   5.211  18.481  0.00  0.00    +0.000 A 
ATOM      7  F   UNL     1       8.287   5.463  19.325  0.00  0.00    +0.000 F 
ATOM      8  C   UNL     1       7.543   5.067  17.124  0.00  0.00    +0.000 A 
ATOM      9  C   UNL     1       6.492   4.856  16.228  0.00  0.00    +0.000 A 
ATOM     10  C   UNL     1       5.182   4.791  16.729  0.00  0.00    +0.000 A 
BRANCH   9  11
ATOM     11  C   UNL     1       6.758   4.682  14.807  0.00  0.00    +0.000 A 
ATOM     12  N   UNL     1       7.542   5.409  14.035  0.00  0.00    +0.000 NA
ATOM     13  N   UNL     1       7.499   4.838  12.786  0.00  0.00    +0.000 NA
ATOM     14  N   UNL     1       6.691   3.789  12.771  0.00  0.00    +0.000 NA
ATOM     15  N   UNL     1       6.217   3.700  14.020  0.00  0.00    +0.000 N 
ATOM     16  H   UNL     1       5.546   2.979  14.254  0.00  0.00    +0.000 HD
ENDBRANCH   9  11
ENDBRANCH   3   4
BRANCH   1  17
ATOM     17  C   UNL     1       1.258   3.903  18.532  0.00  0.00    +0.000 C 
BRANCH  17  18
ATOM     18  C   UNL     1       0.937   2.734  19.472  0.00  0.00    +0.000 C 
BRANCH  18  20
ATOM     19  C   UNL     1       2.354   2.675  21.578  0.00  0.00    +0.000 C 
ATOM     20  C   UNL     1       1.073   3.174  20.931  0.00  0.00    +0.000 C 
ENDBRANCH  18  20
ENDBRANCH  17  18
ENDBRANCH   1  17
BRANCH   3  21
ATOM     21  C   UNL     1       3.218   5.725  19.718  0.00  0.00    +0.000 C 
BRANCH  21  22
ATOM     22  C   UNL     1       2.493   7.015  19.342  0.00  0.00    +0.000 A 
ATOM     23  C   UNL     1       2.440   7.504  18.028  0.00  0.00    +0.000 A 
ATOM     24  C   UNL     1       1.837   8.728  17.741  0.00  0.00    +0.000 A 
ATOM     25  C   UNL     1       1.261   9.473  18.764  0.00  0.00    +0.000 A 
ATOM     26  C   UNL     1       1.239   8.987  20.071  0.00  0.00    +0.000 A 
ATOM     27  C   UNL     1       1.862   7.767  20.361  0.00  0.00    +0.000 A 
BRANCH  26  28
ATOM     28  O   UNL     1       0.644   9.832  20.957  0.00  0.00    +0.000 OA
BRANCH  28  29
ATOM     29  C   UNL     1      -0.133   9.310  22.022  0.00  0.00    +0.000 C 
ATOM     30  F   UNL     1       0.590   8.993  23.113  0.00  0.00    +0.000 F 
ATOM     31  F   UNL     1      -1.085  10.203  22.366  0.00  0.00    +0.000 F 
ATOM     32  F   UNL     1      -0.747   8.185  21.585  0.00  0.00    +0.000 F 
ENDBRANCH  28  29
ENDBRANCH  26  28
ENDBRANCH  21  22
ENDBRANCH   3  21
TORSDOF 9
ENDMDL
MODEL 2
REMARK VINA RESULT:      -9.6      3.561      7.806
REMARK  Name = 
REMARK  10 active torsions:
REMARK  status: ('A' for Active; 'I' for Inactive)
REMARK    1  A    between atoms: C_1  and  C_2
REMARK    2  A    between atoms: C_2  and  C_3
REMARK    3  A    between atoms: C_3  and  C_4
REMARK    4  A    between atoms: C_4  and  C_5
REMARK    5  A    between atoms: N_7  and  C_8
REMARK    6  A    between atoms: N_7  and  C_20
REMARK    7  A    between atoms: C_8  and  C_9
REMARK    8  A    between atoms: C_13  and  O_14
REMARK    9  A    between atoms: O_14  and  C_15
REMARK   10  A    between atoms: C_25  and  C_26
REMARK                            x       y       z     vdW  Elec       q    Type
REMARK                         _______ _______ _______ _____ _____    ______ ____
ROOT
ATOM      1  C   UNL     1       2.069   4.348  18.378  0.00  0.00    +0.000 C 
ATOM      2  O   UNL     1       1.001   4.624  17.822  0.00  0.00    +0.000 OA
ATOM      3  N   UNL     1       2.842   5.301  19.068  0.00  0.00    +0.000 N 
ENDROOT
BRANCH   3   4
ATOM      4  C   UNL     1       2.368   6.651  19.154  0.00  0.00    +0.000 A 
ATOM      5  C   UNL     1       2.429   7.503  18.052  0.00  0.00    +0.000 A 
ATOM      6  C   UNL     1       1.984   8.817  18.172  0.00  0.00    +0.000 A 
ATOM      7  F   UNL     1       2.094   9.643  17.123  0.00  0.00    +0.000 F 
ATOM      8  C   UNL     1       1.451   9.294  19.364  0.00  0.00    +0.000 A 
ATOM      9  C   UNL     1       1.379   8.456  20.479  0.00  0.00    +0.000 A 
ATOM     10  C   UNL     1       1.852   7.139  20.364  0.00  0.00    +0.000 A 
BRANCH   9  11
ATOM     11  C   UNL     1       0.803   8.937  21.727  0.00  0.00    +0.000 A 
ATOM     12  N   UNL     1       1.433   9.456  22.763  0.00  0.00    +0.000 NA
ATOM     13  N   UNL     1       0.466   9.791  23.680  0.00  0.00    +0.000 NA
ATOM     14  N   UNL     1      -0.741   9.470  23.237  0.00  0.00    +0.000 NA
ATOM     15  N   UNL     1      -0.532   8.924  22.033  0.00  0.00    +0.000 N 
ATOM     16  H   UNL     1      -1.315   8.569  21.499  0.00  0.00    +0.000 HD
ENDBRANCH   9  11
ENDBRANCH   3   4
BRANCH   1  17
ATOM     17  C   UNL     1       2.593   2.919  18.372  0.00  0.00    +0.000 C 
BRANCH  17  18
ATOM     18  C   UNL     1       1.741   1.955  19.208  0.00  0.00    +0.000 C 
BRANCH  18  20
ATOM     19  C   UNL     1       2.285   2.614  21.599  0.00  0.00    +0.000 C 
ATOM     20  C   UNL     1       1.255   2.648  20.483  0.00  0.00    +0.000 C 
ENDBRANCH  18  20
ENDBRANCH  17  18
ENDBRANCH   1  17
BRANCH   3  21
ATOM     21  C   UNL     1       4.181   5.026  19.640  0.00  0.00    +0.000 C 
BRANCH  21  22
ATOM     22  C   UNL     1       5.360   5.332  18.720  0.00  0.00    +0.000 A 
ATOM     23  C   UNL     1       6.645   5.625  19.200  0.00  0.00    +0.000 A 
ATOM     24  C   UNL     1       7.674   5.979  18.328  0.00  0.00    +0.000 A 
ATOM     25  C   UNL     1       7.437   6.025  16.960  0.00  0.00    +0.000 A 
ATOM     26  C   UNL     1       6.190   5.676  16.442  0.00  0.00    +0.000 A 
ATOM     27  C   UNL     1       5.152   5.341  17.320  0.00  0.00    +0.000 A 
BRANCH  26  28
ATOM     28  O   UNL     1       6.113   5.776  15.087  0.00  0.00    +0.000 OA
BRANCH  28  29
ATOM     29  C   UNL     1       6.268   4.620  14.282  0.00  0.00    +0.000 C 
ATOM     30  F   UNL     1       5.137   4.242  13.656  0.00  0.00    +0.000 F 
ATOM     31  F   UNL     1       7.231   4.837  13.361  0.00  0.00    +0.000 F 
ATOM     32  F   UNL     1       6.667   3.600  15.078  0.00  0.00    +0.000 F 
ENDBRANCH  28  29
ENDBRANCH  26  28
ENDBRANCH  21  22
ENDBRANCH   3  21
TORSDOF 9
ENDMDL
MODEL 3
REMARK VINA RESULT:      -9.0      0.902      1.149
REMARK  Name = 
REMARK  10 active torsions:
REMARK  status: ('A' for Active; 'I' for Inactive)
REMARK    1  A    between atoms: C_1  and  C_2
REMARK    2  A    between atoms: C_2  and  C_3
REMARK    3  A    between atoms: C_3  and  C_4
REMARK    4  A    between atoms: C_4  and  C_5
REMARK    5  A    between atoms: N_7  and  C_8
REMARK    6  A    between atoms: N_7  and  C_20
REMARK    7  A    between atoms: C_8  and  C_9
REMARK    8  A    between atoms: C_13  and  O_14
REMARK    9  A    between atoms: O_14  and  C_15
REMARK   10  A    between atoms: C_25  and  C_26
REMARK                            x       y       z     vdW  Elec       q    Type
REMARK                         _______ _______ _______ _____ _____    ______ ____
ROOT
ATOM      1  C   UNL     1       2.691   3.869  17.816  0.00  0.00    +0.000 C 
ATOM      2  O   UNL     1       3.045   3.086  16.929  0.00  0.00    +0.000 OA
ATOM      3  N   UNL     1       3.565   4.797  18.413  0.00  0.00    +0.000 N 
ENDROOT
BRANCH   3   4
ATOM      4  C   UNL     1       4.925   4.860  17.965  0.00  0.00    +0.000 A 
ATOM      5  C   UNL     1       5.971   5.025  18.873  0.00  0.00    +0.000 A 
ATOM      6  C   UNL     1       7.280   5.108  18.407  0.00  0.00    +0.000 A 
ATOM      7  F   UNL     1       8.274   5.318  19.281  0.00  0.00    +0.000 F 
ATOM      8  C   UNL     1       7.575   5.000  17.053  0.00  0.00    +0.000 A 
ATOM      9  C   UNL     1       6.541   4.832  16.127  0.00  0.00    +0.000 A 
ATOM     10  C   UNL     1       5.220   4.775  16.596  0.00  0.00    +0.000 A 
BRANCH   9  11
ATOM     11  C   UNL     1       6.838   4.695  14.708  0.00  0.00    +0.000 A 
ATOM     12  N   UNL     1       7.629   5.450  13.970  0.00  0.00    +0.000 NA
ATOM     13  N   UNL     1       7.617   4.909  12.706  0.00  0.00    +0.000 NA
ATOM     14  N   UNL     1       6.821   3.852  12.650  0.00  0.00    +0.000 NA
ATOM     15  N   UNL     1       6.323   3.728  13.887  0.00  0.00    +0.000 N 
ATOM     16  H   UNL     1       5.656   2.995  14.089  0.00  0.00    +0.000 HD
ENDBRANCH   9  11
ENDBRANCH   3   4
BRANCH   1  17
ATOM     17  C   UNL     1       1.244   3.890  18.290  0.00  0.00    +0.000 C 
BRANCH  17  18
ATOM     18  C   UNL     1       0.938   2.829  19.354  0.00  0.00    +0.000 C 
BRANCH  18  20
ATOM     19  C   UNL     1       1.678   2.515  21.763  0.00  0.00    +0.000 C 
ATOM     20  C   UNL     1       1.021   3.441  20.754  0.00  0.00    +0.000 C 
ENDBRANCH  18  20
ENDBRANCH  17  18
ENDBRANCH   1  17
BRANCH   3  21
ATOM     21  C   UNL     1       3.199   5.663  19.557  0.00  0.00    +0.000 C 
BRANCH  21  22
ATOM     22  C   UNL     1       2.558   6.999  19.187  0.00  0.00    +0.000 A 
ATOM     23  C   UNL     1       2.659   7.563  17.906  0.00  0.00    +0.000 A 
ATOM     24  C   UNL     1       2.129   8.823  17.633  0.00  0.00    +0.000 A 
ATOM     25  C   UNL     1       1.472   9.530  18.634  0.00  0.00    +0.000 A 
ATOM     26  C   UNL     1       1.296   8.972  19.899  0.00  0.00    +0.000 A 
ATOM     27  C   UNL     1       1.847   7.716  20.178  0.00  0.00    +0.000 A 
BRANCH  26  28
ATOM     28  O   UNL     1       0.639   9.787  20.769  0.00  0.00    +0.000 OA
BRANCH  28  29
ATOM     29  C   UNL     1      -0.485  10.532  20.330  0.00  0.00    +0.000 C 
ATOM     30  F   UNL     1      -1.279   9.857  19.476  0.00  0.00    +0.000 F 
ATOM     31  F   UNL     1      -1.213  10.922  21.397  0.00  0.00    +0.000 F 
ATOM     32  F   UNL     1      -0.036  11.641  19.697  0.00  0.00    +0.000 F 
ENDBRANCH  28  29
ENDBRANCH  26  28
ENDBRANCH  21  22
ENDBRANCH   3  21
TORSDOF 9
ENDMDL
MODEL 4
REMARK VINA RESULT:      -8.8      1.093      1.381
REMARK  Name = 
REMARK  10 active torsions:
REMARK  status: ('A' for Active; 'I' for Inactive)
REMARK    1  A    between atoms: C_1  and  C_2
REMARK    2  A    between atoms: C_2  and  C_3
REMARK    3  A    between atoms: C_3  and  C_4
REMARK    4  A    between atoms: C_4  and  C_5
REMARK    5  A    between atoms: N_7  and  C_8
REMARK    6  A    between atoms: N_7  and  C_20
REMARK    7  A    between atoms: C_8  and  C_9
REMARK    8  A    between atoms: C_13  and  O_14
REMARK    9  A    between atoms: O_14  and  C_15
REMARK   10  A    between atoms: C_25  and  C_26
REMARK                            x       y       z     vdW  Elec       q    Type
REMARK                         _______ _______ _______ _____ _____    ______ ____
ROOT
ATOM      1  C   UNL     1       2.700   3.924  18.150  0.00  0.00    +0.000 C 
ATOM      2  O   UNL     1       3.081   3.116  17.297  0.00  0.00    +0.000 OA
ATOM      3  N   UNL     1       3.538   4.910  18.701  0.00  0.00    +0.000 N 
ENDROOT
BRANCH   3   4
ATOM      4  C   UNL     1       4.893   5.006  18.243  0.00  0.00    +0.000 A 
ATOM      5  C   UNL     1       5.937   5.234  19.140  0.00  0.00    +0.000 A 
ATOM      6  C   UNL     1       7.240   5.347  18.665  0.00  0.00    +0.000 A 
ATOM      7  F   UNL     1       8.231   5.616  19.526  0.00  0.00    +0.000 F 
ATOM      8  C   UNL     1       7.532   5.210  17.312  0.00  0.00    +0.000 A 
ATOM      9  C   UNL     1       6.500   4.981  16.398  0.00  0.00    +0.000 A 
ATOM     10  C   UNL     1       5.184   4.892  16.876  0.00  0.00    +0.000 A 
BRANCH   9  11
ATOM     11  C   UNL     1       6.794   4.813  14.981  0.00  0.00    +0.000 A 
ATOM     12  N   UNL     1       6.213   3.996  14.125  0.00  0.00    +0.000 NA
ATOM     13  N   UNL     1       6.805   4.223  12.906  0.00  0.00    +0.000 NA
ATOM     14  N   UNL     1       7.748   5.147  13.000  0.00  0.00    +0.000 NA
ATOM     15  N   UNL     1       7.755   5.503  14.291  0.00  0.00    +0.000 N 
ATOM     16  H   UNL     1       8.423   6.188  14.620  0.00  0.00    +0.000 HD
ENDBRANCH   9  11
ENDBRANCH   3   4
BRANCH   1  17
ATOM     17  C   UNL     1       1.255   3.909  18.631  0.00  0.00    +0.000 C 
BRANCH  17  18
ATOM     18  C   UNL     1       0.928   2.716  19.538  0.00  0.00    +0.000 C 
BRANCH  18  20
ATOM     19  C   UNL     1       2.423   2.681  21.591  0.00  0.00    +0.000 C 
ATOM     20  C   UNL     1       1.086   3.109  21.008  0.00  0.00    +0.000 C 
ENDBRANCH  18  20
ENDBRANCH  17  18
ENDBRANCH   1  17
BRANCH   3  21
ATOM     21  C   UNL     1       3.142   5.811  19.808  0.00  0.00    +0.000 C 
BRANCH  21  22
ATOM     22  C   UNL     1       2.433   7.096  19.384  0.00  0.00    +0.000 A 
ATOM     23  C   UNL     1       2.516   7.617  18.084  0.00  0.00    +0.000 A 
ATOM     24  C   UNL     1       1.920   8.836  17.760  0.00  0.00    +0.000 A 
ATOM     25  C   UNL     1       1.215   9.540  18.729  0.00  0.00    +0.000 A 
ATOM     26  C   UNL     1       1.056   9.019  20.012  0.00  0.00    +0.000 A 
ATOM     27  C   UNL     1       1.672   7.806  20.342  0.00  0.00    +0.000 A 
BRANCH  26  28
ATOM     28  O   UNL     1       0.345   9.827  20.846  0.00  0.00    +0.000 OA
BRANCH  28  29
ATOM     29  C   UNL     1       0.363  11.232  20.656  0.00  0.00    +0.000 C 
ATOM     30  F   UNL     1       0.100  11.932  21.777  0.00  0.00    +0.000 F 
ATOM     31  F   UNL     1       1.565  11.608  20.172  0.00  0.00    +0.000 F 
ATOM     32  F   UNL     1      -0.580  11.546  19.736  0.00  0.00    +0.000 F 
ENDBRANCH  28  29
ENDBRANCH  26  28
ENDBRANCH  21  22
ENDBRANCH   3  21
TORSDOF 9
ENDMDL
MODEL 5
REMARK VINA RESULT:      -8.6      3.413      4.998
REMARK  Name = 
REMARK  10 active torsions:
REMARK  status: ('A' for Active; 'I' for Inactive)
REMARK    1  A    between atoms: C_1  and  C_2
REMARK    2  A    between atoms: C_2  and  C_3
REMARK    3  A    between atoms: C_3  and  C_4
REMARK    4  A    between atoms: C_4  and  C_5
REMARK    5  A    between atoms: N_7  and  C_8
REMARK    6  A    between atoms: N_7  and  C_20
REMARK    7  A    between atoms: C_8  and  C_9
REMARK    8  A    between atoms: C_13  and  O_14
REMARK    9  A    between atoms: O_14  and  C_15
REMARK   10  A    between atoms: C_25  and  C_26
REMARK                            x       y       z     vdW  Elec       q    Type
REMARK                         _______ _______ _______ _____ _____    ______ ____
ROOT
ATOM      1  C   UNL     1       1.701   7.626  20.391  0.00  0.00    +0.000 C 
ATOM      2  O   UNL     1       1.686   6.572  21.035  0.00  0.00    +0.000 OA
ATOM      3  N   UNL     1       2.157   7.705  19.062  0.00  0.00    +0.000 N 
ENDROOT
BRANCH   3   4
ATOM      4  C   UNL     1       2.608   6.512  18.408  0.00  0.00    +0.000 A 
ATOM      5  C   UNL     1       1.778   5.395  18.306  0.00  0.00    +0.000 A 
ATOM      6  C   UNL     1       2.251   4.241  17.687  0.00  0.00    +0.000 A 
ATOM      7  F   UNL     1       1.467   3.156  17.639  0.00  0.00    +0.000 F 
ATOM      8  C   UNL     1       3.528   4.185  17.140  0.00  0.00    +0.000 A 
ATOM      9  C   UNL     1       4.374   5.293  17.230  0.00  0.00    +0.000 A 
ATOM     10  C   UNL     1       3.905   6.447  17.877  0.00  0.00    +0.000 A 
BRANCH   9  11
ATOM     11  C   UNL     1       5.705   5.255  16.642  0.00  0.00    +0.000 A 
ATOM     12  N   UNL     1       6.251   6.127  15.816  0.00  0.00    +0.000 NA
ATOM     13  N   UNL     1       7.527   5.683  15.567  0.00  0.00    +0.000 NA
ATOM     14  N   UNL     1       7.769   4.549  16.207  0.00  0.00    +0.000 NA
ATOM     15  N   UNL     1       6.634   4.272  16.861  0.00  0.00    +0.000 N 
ATOM     16  H   UNL     1       6.562   3.425  17.409  0.00  0.00    +0.000 HD
ENDBRANCH   9  11
ENDBRANCH   3   4
BRANCH   1  17
ATOM     17  C   UNL     1       1.178   8.914  21.012  0.00  0.00    +0.000 C 
BRANCH  17  18
ATOM     18  C   UNL     1      -0.211   8.763  21.644  0.00  0.00    +0.000 C 
BRANCH  18  20
ATOM     19  C   UNL     1      -0.609  11.143  22.434  0.00  0.00    +0.000 C 
ATOM     20  C   UNL     1      -0.353   9.703  22.843  0.00  0.00    +0.000 C 
ENDBRANCH  18  20
ENDBRANCH  17  18
ENDBRANCH   1  17
BRANCH   3  21
ATOM     21  C   UNL     1       2.298   8.973  18.308  0.00  0.00    +0.000 C 
BRANCH  21  22
ATOM     22  C   UNL     1       1.047   9.849  18.264  0.00  0.00    +0.000 A 
ATOM     23  C   UNL     1       1.018  11.161  18.758  0.00  0.00    +0.000 A 
ATOM     24  C   UNL     1      -0.166  11.897  18.773  0.00  0.00    +0.000 A 
ATOM     25  C   UNL     1      -1.335  11.336  18.273  0.00  0.00    +0.000 A 
ATOM     26  C   UNL     1      -1.329  10.059  17.713  0.00  0.00    +0.000 A 
ATOM     27  C   UNL     1      -0.144   9.314  17.718  0.00  0.00    +0.000 A 
BRANCH  26  28
ATOM     28  O   UNL     1      -2.550   9.650  17.272  0.00  0.00    +0.000 OA
BRANCH  28  29
ATOM     29  C   UNL     1      -3.131  10.257  16.131  0.00  0.00    +0.000 C 
ATOM     30  F   UNL     1      -2.337  11.174  15.544  0.00  0.00    +0.000 F 
ATOM     31  F   UNL     1      -3.450   9.306  15.227  0.00  0.00    +0.000 F 
ATOM     32  F   UNL     1      -4.272  10.875  16.515  0.00  0.00    +0.000 F 
ENDBRANCH  28  29
ENDBRANCH  26  28
ENDBRANCH  21  22
ENDBRANCH   3  21
TORSDOF 9
ENDMDL
MODEL 6
REMARK VINA RESULT:      -8.6      3.617      7.879
REMARK  Name = 
REMARK  10 active torsions:
REMARK  status: ('A' for Active; 'I' for Inactive)
REMARK    1  A    between atoms: C_1  and  C_2
REMARK    2  A    between atoms: C_2  and  C_3
REMARK    3  A    between atoms: C_3  and  C_4
REMARK    4  A    between atoms: C_4  and  C_5
REMARK    5  A    between atoms: N_7  and  C_8
REMARK    6  A    between atoms: N_7  and  C_20
REMARK    7  A    between atoms: C_8  and  C_9
REMARK    8  A    between atoms: C_13  and  O_14
REMARK    9  A    between atoms: O_14  and  C_15
REMARK   10  A    between atoms: C_25  and  C_26
REMARK                            x       y       z     vdW  Elec       q    Type
REMARK                         _______ _______ _______ _____ _____    ______ ____
ROOT
ATOM      1  C   UNL     1       2.040   4.620  17.999  0.00  0.00    +0.000 C 
ATOM      2  O   UNL     1       1.009   4.954  17.407  0.00  0.00    +0.000 OA
ATOM      3  N   UNL     1       2.773   5.500  18.818  0.00  0.00    +0.000 N 
ENDROOT
BRANCH   3   4
ATOM      4  C   UNL     1       2.299   6.841  18.997  0.00  0.00    +0.000 A 
ATOM      5  C   UNL     1       2.333   7.758  17.946  0.00  0.00    +0.000 A 
ATOM      6  C   UNL     1       1.889   9.061  18.156  0.00  0.00    +0.000 A 
ATOM      7  F   UNL     1       1.972   9.950  17.157  0.00  0.00    +0.000 F 
ATOM      8  C   UNL     1       1.383   9.464  19.386  0.00  0.00    +0.000 A 
ATOM      9  C   UNL     1       1.339   8.560  20.451  0.00  0.00    +0.000 A 
ATOM     10  C   UNL     1       1.811   7.254  20.245  0.00  0.00    +0.000 A 
BRANCH   9  11
ATOM     11  C   UNL     1       0.791   8.963  21.738  0.00  0.00    +0.000 A 
ATOM     12  N   UNL     1       1.448   9.385  22.801  0.00  0.00    +0.000 NA
ATOM     13  N   UNL     1       0.502   9.678  23.754  0.00  0.00    +0.000 NA
ATOM     14  N   UNL     1      -0.719   9.426  23.305  0.00  0.00    +0.000 NA
ATOM     15  N   UNL     1      -0.540   8.966  22.060  0.00  0.00    +0.000 N 
ATOM     16  H   UNL     1      -1.339   8.674  21.512  0.00  0.00    +0.000 HD
ENDBRANCH   9  11
ENDBRANCH   3   4
BRANCH   1  17
ATOM     17  C   UNL     1       2.558   3.192  17.896  0.00  0.00    +0.000 C 
BRANCH  17  18
ATOM     18  C   UNL     1       2.282   2.353  19.150  0.00  0.00    +0.000 C 
BRANCH  18  20
ATOM     19  C   UNL     1       4.542   1.988  20.249  0.00  0.00    +0.000 C 
ATOM     20  C   UNL     1       3.436   1.380  19.402  0.00  0.00    +0.000 C 
ENDBRANCH  18  20
ENDBRANCH  17  18
ENDBRANCH   1  17
BRANCH   3  21
ATOM     21  C   UNL     1       4.073   5.163  19.443  0.00  0.00    +0.000 C 
BRANCH  21  22
ATOM     22  C   UNL     1       5.304   5.455  18.588  0.00  0.00    +0.000 A 
ATOM     23  C   UNL     1       6.556   5.770  19.138  0.00  0.00    +0.000 A 
ATOM     24  C   UNL     1       7.634   6.111  18.322  0.00  0.00    +0.000 A 
ATOM     25  C   UNL     1       7.480   6.122  16.941  0.00  0.00    +0.000 A 
ATOM     26  C   UNL     1       6.269   5.750  16.358  0.00  0.00    +0.000 A 
ATOM     27  C   UNL     1       5.182   5.428  17.179  0.00  0.00    +0.000 A 
BRANCH  26  28
ATOM     28  O   UNL     1       6.274   5.815  14.998  0.00  0.00    +0.000 OA
BRANCH  28  29
ATOM     29  C   UNL     1       6.364   4.626  14.232  0.00  0.00    +0.000 C 
ATOM     30  F   UNL     1       6.780   3.558  14.940  0.00  0.00    +0.000 F 
ATOM     31  F   UNL     1       5.162   4.351  13.682  0.00  0.00    +0.000 F 
ATOM     32  F   UNL     1       7.250   4.835  13.230  0.00  0.00    +0.000 F 
ENDBRANCH  28  29
ENDBRANCH  26  28
ENDBRANCH  21  22
ENDBRANCH   3  21
TORSDOF 9
ENDMDL
MODEL 7
REMARK VINA RESULT:      -8.4      2.307      2.822
REMARK  Name = 
REMARK  10 active torsions:
REMARK  status: ('A' for Active; 'I' for Inactive)
REMARK    1  A    between atoms: C_1  and  C_2
REMARK    2  A    between atoms: C_2  and  C_3
REMARK    3  A    between atoms: C_3  and  C_4
REMARK    4  A    between atoms: C_4  and  C_5
REMARK    5  A    between atoms: N_7  and  C_8
REMARK    6  A    between atoms: N_7  and  C_20
REMARK    7  A    between atoms: C_8  and  C_9
REMARK    8  A    between atoms: C_13  and  O_14
REMARK    9  A    between atoms: O_14  and  C_15
REMARK   10  A    between atoms: C_25  and  C_26
REMARK                            x       y       z     vdW  Elec       q    Type
REMARK                         _______ _______ _______ _____ _____    ______ ____
ROOT
ATOM      1  C   UNL     1       2.311   3.957  17.706  0.00  0.00    +0.000 C 
ATOM      2  O   UNL     1       2.574   3.247  16.729  0.00  0.00    +0.000 OA
ATOM      3  N   UNL     1       3.199   4.926  18.210  0.00  0.00    +0.000 N 
ENDROOT
BRANCH   3   4
ATOM      4  C   UNL     1       4.459   5.122  17.556  0.00  0.00    +0.000 A 
ATOM      5  C   UNL     1       4.856   4.298  16.503  0.00  0.00    +0.000 A 
ATOM      6  C   UNL     1       6.096   4.496  15.903  0.00  0.00    +0.000 A 
ATOM      7  F   UNL     1       6.491   3.668  14.927  0.00  0.00    +0.000 F 
ATOM      8  C   UNL     1       6.942   5.521  16.312  0.00  0.00    +0.000 A 
ATOM      9  C   UNL     1       6.563   6.359  17.364  0.00  0.00    +0.000 A 
ATOM     10  C   UNL     1       5.323   6.141  17.985  0.00  0.00    +0.000 A 
BRANCH   9  11
ATOM     11  C   UNL     1       7.429   7.450  17.787  0.00  0.00    +0.000 A 
ATOM     12  N   UNL     1       8.345   7.435  18.736  0.00  0.00    +0.000 NA
ATOM     13  N   UNL     1       8.923   8.681  18.741  0.00  0.00    +0.000 NA
ATOM     14  N   UNL     1       8.369   9.466  17.829  0.00  0.00    +0.000 NA
ATOM     15  N   UNL     1       7.430   8.709  17.247  0.00  0.00    +0.000 N 
ATOM     16  H   UNL     1       6.842   9.103  16.524  0.00  0.00    +0.000 HD
ENDBRANCH   9  11
ENDBRANCH   3   4
BRANCH   1  17
ATOM     17  C   UNL     1       0.963   3.836  18.403  0.00  0.00    +0.000 C 
BRANCH  17  18
ATOM     18  C   UNL     1       0.932   2.741  19.478  0.00  0.00    +0.000 C 
BRANCH  18  20
ATOM     19  C   UNL     1       2.174   2.622  21.689  0.00  0.00    +0.000 C 
ATOM     20  C   UNL     1       1.128   3.354  20.866  0.00  0.00    +0.000 C 
ENDBRANCH  18  20
ENDBRANCH  17  18
ENDBRANCH   1  17
BRANCH   3  21
ATOM     21  C   UNL     1       2.960   5.705  19.447  0.00  0.00    +0.000 C 
BRANCH  21  22
ATOM     22  C   UNL     1       2.282   7.059  19.246  0.00  0.00    +0.000 A 
ATOM     23  C   UNL     1       2.115   7.647  17.983  0.00  0.00    +0.000 A 
ATOM     24  C   UNL     1       1.565   8.921  17.851  0.00  0.00    +0.000 A 
ATOM     25  C   UNL     1       1.155   9.618  18.982  0.00  0.00    +0.000 A 
ATOM     26  C   UNL     1       1.245   9.038  20.246  0.00  0.00    +0.000 A 
ATOM     27  C   UNL     1       1.817   7.767  20.379  0.00  0.00    +0.000 A 
BRANCH  26  28
ATOM     28  O   UNL     1       0.808   9.846  21.251  0.00  0.00    +0.000 OA
BRANCH  28  29
ATOM     29  C   UNL     1      -0.174   9.377  22.160  0.00  0.00    +0.000 C 
ATOM     30  F   UNL     1       0.324   9.044  23.367  0.00  0.00    +0.000 F 
ATOM     31  F   UNL     1      -1.127  10.319  22.321  0.00  0.00    +0.000 F 
ATOM     32  F   UNL     1      -0.753   8.276  21.628  0.00  0.00    +0.000 F 
ENDBRANCH  28  29
ENDBRANCH  26  28
ENDBRANCH  21  22
ENDBRANCH   3  21
TORSDOF 9
ENDMDL
MODEL 8
REMARK VINA RESULT:      -8.4      3.805      6.270
REMARK  Name = 
REMARK  10 active torsions:
REMARK  status: ('A' for Active; 'I' for Inactive)
REMARK    1  A    between atoms: C_1  and  C_2
REMARK    2  A    between atoms: C_2  and  C_3
REMARK    3  A    between atoms: C_3  and  C_4
REMARK    4  A    between atoms: C_4  and  C_5
REMARK    5  A    between atoms: N_7  and  C_8
REMARK    6  A    between atoms: N_7  and  C_20
REMARK    7  A    between atoms: C_8  and  C_9
REMARK    8  A    between atoms: C_13  and  O_14
REMARK    9  A    between atoms: O_14  and  C_15
REMARK   10  A    between atoms: C_25  and  C_26
REMARK                            x       y       z     vdW  Elec       q    Type
REMARK                         _______ _______ _______ _____ _____    ______ ____
ROOT
ATOM      1  C   UNL     1       6.697   5.012  15.210  0.00  0.00    +0.000 C 
ATOM      2  O   UNL     1       7.826   4.529  15.342  0.00  0.00    +0.000 OA
ATOM      3  N   UNL     1       6.166   5.973  16.090  0.00  0.00    +0.000 N 
ENDROOT
BRANCH   3   4
ATOM      4  C   UNL     1       6.972   6.437  17.182  0.00  0.00    +0.000 A 
ATOM      5  C   UNL     1       7.369   5.568  18.198  0.00  0.00    +0.000 A 
ATOM      6  C   UNL     1       8.130   6.051  19.258  0.00  0.00    +0.000 A 
ATOM      7  F   UNL     1       8.465   5.222  20.256  0.00  0.00    +0.000 F 
ATOM      8  C   UNL     1       8.531   7.382  19.314  0.00  0.00    +0.000 A 
ATOM      9  C   UNL     1       8.145   8.268  18.305  0.00  0.00    +0.000 A 
ATOM     10  C   UNL     1       7.355   7.785  17.250  0.00  0.00    +0.000 A 
BRANCH   9  11
ATOM     11  C   UNL     1       8.575   9.658  18.340  0.00  0.00    +0.000 A 
ATOM     12  N   UNL     1       8.268  10.622  17.494  0.00  0.00    +0.000 NA
ATOM     13  N   UNL     1       8.880  11.761  17.961  0.00  0.00    +0.000 NA
ATOM     14  N   UNL     1       9.571  11.512  19.064  0.00  0.00    +0.000 NA
ATOM     15  N   UNL     1       9.397  10.203  19.291  0.00  0.00    +0.000 N 
ATOM     16  H   UNL     1       9.859   9.763  20.077  0.00  0.00    +0.000 HD
ENDBRANCH   9  11
ENDBRANCH   3   4
BRANCH   1  17
ATOM     17  C   UNL     1       5.819   4.603  14.035  0.00  0.00    +0.000 C 
BRANCH  17  18
ATOM     18  C   UNL     1       6.368   3.402  13.255  0.00  0.00    +0.000 C 
BRANCH  18  20
ATOM     19  C   UNL     1       4.273   3.459  11.821  0.00  0.00    +0.000 C 
ATOM     20  C   UNL     1       5.791   3.380  11.839  0.00  0.00    +0.000 C 
ENDBRANCH  18  20
ENDBRANCH  17  18
ENDBRANCH   1  17
BRANCH   3  21
ATOM     21  C   UNL     1       4.775   6.479  16.026  0.00  0.00    +0.000 C 
BRANCH  21  22
ATOM     22  C   UNL     1       3.899   6.138  17.229  0.00  0.00    +0.000 A 
ATOM     23  C   UNL     1       3.285   7.116  18.025  0.00  0.00    +0.000 A 
ATOM     24  C   UNL     1       2.560   6.765  19.163  0.00  0.00    +0.000 A 
ATOM     25  C   UNL     1       2.423   5.426  19.510  0.00  0.00    +0.000 A 
ATOM     26  C   UNL     1       2.965   4.424  18.706  0.00  0.00    +0.000 A 
ATOM     27  C   UNL     1       3.709   4.779  17.575  0.00  0.00    +0.000 A 
BRANCH  26  28
ATOM     28  O   UNL     1       2.750   3.166  19.180  0.00  0.00    +0.000 OA
BRANCH  28  29
ATOM     29  C   UNL     1       3.768   2.500  19.907  0.00  0.00    +0.000 C 
ATOM     30  F   UNL     1       4.935   3.172  19.942  0.00  0.00    +0.000 F 
ATOM     31  F   UNL     1       3.349   2.278  21.171  0.00  0.00    +0.000 F 
ATOM     32  F   UNL     1       3.993   1.302  19.319  0.00  0.00    +0.000 F 
ENDBRANCH  28  29
ENDBRANCH  26  28
ENDBRANCH  21  22
ENDBRANCH   3  21
TORSDOF 9
ENDMDL
MODEL 9
REMARK VINA RESULT:      -8.3      3.742      8.069
REMARK  Name = 
REMARK  10 active torsions:
REMARK  status: ('A' for Active; 'I' for Inactive)
REMARK    1  A    between atoms: C_1  and  C_2
REMARK    2  A    between atoms: C_2  and  C_3
REMARK    3  A    between atoms: C_3  and  C_4
REMARK    4  A    between atoms: C_4  and  C_5
REMARK    5  A    between atoms: N_7  and  C_8
REMARK    6  A    between atoms: N_7  and  C_20
REMARK    7  A    between atoms: C_8  and  C_9
REMARK    8  A    between atoms: C_13  and  O_14
REMARK    9  A    between atoms: O_14  and  C_15
REMARK   10  A    between atoms: C_25  and  C_26
REMARK                            x       y       z     vdW  Elec       q    Type
REMARK                         _______ _______ _______ _____ _____    ______ ____
ROOT
ATOM      1  C   UNL     1       1.794   4.575  19.934  0.00  0.00    +0.000 C 
ATOM      2  O   UNL     1       1.098   4.951  20.883  0.00  0.00    +0.000 OA
ATOM      3  N   UNL     1       2.308   5.456  18.964  0.00  0.00    +0.000 N 
ENDROOT
BRANCH   3   4
ATOM      4  C   UNL     1       2.037   6.858  19.084  0.00  0.00    +0.000 A 
ATOM      5  C   UNL     1       2.221   7.718  18.001  0.00  0.00    +0.000 A 
ATOM      6  C   UNL     1       1.974   9.079  18.153  0.00  0.00    +0.000 A 
ATOM      7  F   UNL     1       2.202   9.905  17.124  0.00  0.00    +0.000 F 
ATOM      8  C   UNL     1       1.517   9.602  19.358  0.00  0.00    +0.000 A 
ATOM      9  C   UNL     1       1.325   8.757  20.454  0.00  0.00    +0.000 A 
ATOM     10  C   UNL     1       1.599   7.388  20.307  0.00  0.00    +0.000 A 
BRANCH   9  11
ATOM     11  C   UNL     1       0.826   9.287  21.716  0.00  0.00    +0.000 A 
ATOM     12  N   UNL     1       1.275   9.042  22.931  0.00  0.00    +0.000 NA
ATOM     13  N   UNL     1       0.511   9.796  23.789  0.00  0.00    +0.000 NA
ATOM     14  N   UNL     1      -0.410  10.482  23.128  0.00  0.00    +0.000 NA
ATOM     15  N   UNL     1      -0.227  10.154  21.843  0.00  0.00    +0.000 N 
ATOM     16  H   UNL     1      -0.839  10.537  21.134  0.00  0.00    +0.000 HD
ENDBRANCH   9  11
ENDBRANCH   3   4
BRANCH   1  17
ATOM     17  C   UNL     1       2.165   3.106  19.788  0.00  0.00    +0.000 C 
BRANCH  17  18
ATOM     18  C   UNL     1       3.370   2.695  20.644  0.00  0.00    +0.000 C 
BRANCH  18  20
ATOM     19  C   UNL     1       3.802   1.439  18.480  0.00  0.00    +0.000 C 
ATOM     20  C   UNL     1       4.385   1.925  19.797  0.00  0.00    +0.000 C 
ENDBRANCH  18  20
ENDBRANCH  17  18
ENDBRANCH   1  17
BRANCH   3  21
ATOM     21  C   UNL     1       3.043   5.019  17.754  0.00  0.00    +0.000 C 
BRANCH  21  22
ATOM     22  C   UNL     1       4.565   5.084  17.854  0.00  0.00    +0.000 A 
ATOM     23  C   UNL     1       5.240   5.304  19.065  0.00  0.00    +0.000 A 
ATOM     24  C   UNL     1       6.627   5.438  19.099  0.00  0.00    +0.000 A 
ATOM     25  C   UNL     1       7.362   5.334  17.924  0.00  0.00    +0.000 A 
ATOM     26  C   UNL     1       6.731   5.051  16.714  0.00  0.00    +0.000 A 
ATOM     27  C   UNL     1       5.336   4.937  16.677  0.00  0.00    +0.000 A 
BRANCH  26  28
ATOM     28  O   UNL     1       7.584   4.985  15.655  0.00  0.00    +0.000 OA
BRANCH  28  29
ATOM     29  C   UNL     1       7.071   4.864  14.339  0.00  0.00    +0.000 C 
ATOM     30  F   UNL     1       5.973   5.612  14.116  0.00  0.00    +0.000 F 
ATOM     31  F   UNL     1       8.027   5.207  13.449  0.00  0.00    +0.000 F 
ATOM     32  F   UNL     1       6.745   3.567  14.130  0.00  0.00    +0.000 F 
ENDBRANCH  28  29
ENDBRANCH  26  28
ENDBRANCH  21  22
ENDBRANCH   3  21
TORSDOF 9
ENDMDL
