MODEL 1
REMARK VINA RESULT:      -5.4      0.000      0.000
REMARK  Name = 
REMARK  2 active torsions:
REMARK  status: ('A' for Active; 'I' for Inactive)
REMARK    1  A    between atoms: C_2  and  C_3
REMARK    2  A    between atoms: C_3  and  C_5
REMARK                            x       y       z     vdW  Elec       q    Type
REMARK                         _______ _______ _______ _____ _____    ______ ____
ROOT
ATOM      1  C   UNL     1       5.433   4.774  16.738  0.00  0.00    +0.000 A 
ATOM      2  C   UNL     1       4.570   3.674  16.831  0.00  0.00    +0.000 A 
ATOM      3  C   UNL     1       3.294   3.832  17.378  0.00  0.00    +0.000 A 
ATOM      4  C   UNL     1       2.888   5.080  17.837  0.00  0.00    +0.000 A 
ATOM      5  F   UNL     1       1.661   5.227  18.353  0.00  0.00    +0.000 F 
ATOM      6  C   UNL     1       3.740   6.176  17.771  0.00  0.00    +0.000 A 
ATOM      7  C   UNL     1       5.017   6.023  17.227  0.00  0.00    +0.000 A 
ENDROOT
BRANCH   1   8
ATOM      8  C   UNL     1       6.793   4.673  16.154  0.00  0.00    +0.000 C 
ATOM      9  O   UNL     1       7.779   4.529  16.870  0.00  0.00    +0.000 OA
BRANCH   8  11
ATOM     10  O   UNL     1       7.844   5.557  14.176  0.00  0.00    +0.000 OA
ATOM     11  C   UNL     1       7.044   4.779  14.667  0.00  0.00    +0.000 C 
ENDBRANCH   8  11
ENDBRANCH   1   8
TORSDOF 2
ENDMDL
MODEL 2
REMARK VINA RESULT:      -5.3      1.609      1.967
REMARK  Name = 
REMARK  2 active torsions:
REMARK  status: ('A' for Active; 'I' for Inactive)
REMARK    1  A    between atoms: C_2  and  C_3
REMARK    2  A    between atoms: C_3  and  C_5
REMARK                            x       y       z     vdW  Elec       q    Type
REMARK                         _______ _______ _______ _____ _____    ______ ____
ROOT
ATOM      1  C   UNL     1       4.988   4.778  18.315  0.00  0.00    +0.000 A 
ATOM      2  C   UNL     1       4.498   3.657  17.631  0.00  0.00    +0.000 A 
ATOM      3  C   UNL     1       3.140   3.569  17.315  0.00  0.00    +0.000 A 
ATOM      4  C   UNL     1       2.276   4.591  17.689  0.00  0.00    +0.000 A 
ATOM      5  F   UNL     1       0.977   4.505  17.377  0.00  0.00    +0.000 F 
ATOM      6  C   UNL     1       2.741   5.700  18.386  0.00  0.00    +0.000 A 
ATOM      7  C   UNL     1       4.098   5.791  18.706  0.00  0.00    +0.000 A 
ENDROOT
BRANCH   1   8
ATOM      8  C   UNL     1       6.420   4.936  18.666  0.00  0.00    +0.000 C 
ATOM      9  O   UNL     1       6.759   5.327  19.778  0.00  0.00    +0.000 OA
BRANCH   8  11
ATOM     10  O   UNL     1       7.561   5.146  16.556  0.00  0.00    +0.000 OA
ATOM     11  C   UNL     1       7.530   4.664  17.675  0.00  0.00    +0.000 C 
ENDBRANCH   8  11
ENDBRANCH   1   8
TORSDOF 2
ENDMDL
MODEL 3
REMARK VINA RESULT:      -5.3      1.148      1.261
REMARK  Name = 
REMARK  2 active torsions:
REMARK  status: ('A' for Active; 'I' for Inactive)
REMARK    1  A    between atoms: C_2  and  C_3
REMARK    2  A    between atoms: C_3  and  C_5
REMARK                            x       y       z     vdW  Elec       q    Type
REMARK                         _______ _______ _______ _____ _____    ______ ____
ROOT
ATOM      1  C   UNL     1       4.717   5.303  16.899  0.00  0.00    +0.000 A 
ATOM      2  C   UNL     1       4.300   3.975  16.744  0.00  0.00    +0.000 A 
ATOM      3  C   UNL     1       3.067   3.566  17.258  0.00  0.00    +0.000 A 
ATOM      4  C   UNL     1       2.262   4.476  17.931  0.00  0.00    +0.000 A 
ATOM      5  F   UNL     1       1.077   4.081  18.415  0.00  0.00    +0.000 F 
ATOM      6  C   UNL     1       2.670   5.793  18.111  0.00  0.00    +0.000 A 
ATOM      7  C   UNL     1       3.903   6.206  17.601  0.00  0.00    +0.000 A 
ENDROOT
BRANCH   1   8
ATOM      8  C   UNL     1       6.008   5.802  16.363  0.00  0.00    +0.000 C 
ATOM      9  O   UNL     1       6.360   6.964  16.542  0.00  0.00    +0.000 OA
BRANCH   8  11
ATOM     10  O   UNL     1       7.697   5.370  14.702  0.00  0.00    +0.000 OA
ATOM     11  C   UNL     1       6.934   4.931  15.545  0.00  0.00    +0.000 C 
ENDBRANCH   8  11
ENDBRANCH   1   8
TORSDOF 2
ENDMDL
MODEL 4
REMARK VINA RESULT:      -5.3      0.521      1.538
REMARK  Name = 
REMARK  2 active torsions:
REMARK  status: ('A' for Active; 'I' for Inactive)
REMARK    1  A    between atoms: C_2  and  C_3
REMARK    2  A    between atoms: C_3  and  C_5
REMARK                            x       y       z     vdW  Elec       q    Type
REMARK                         _______ _______ _______ _____ _____    ______ ____
ROOT
ATOM      1  C   UNL     1       5.613   5.112  16.579  0.00  0.00    +0.000 A 
ATOM      2  C   UNL     1       5.264   6.439  16.861  0.00  0.00    +0.000 A 
ATOM      3  C   UNL     1       4.046   6.724  17.483  0.00  0.00    +0.000 A 
ATOM      4  C   UNL     1       3.179   5.689  17.811  0.00  0.00    +0.000 A 
ATOM      5  F   UNL     1       2.016   5.968  18.415  0.00  0.00    +0.000 F 
ATOM      6  C   UNL     1       3.500   4.369  17.519  0.00  0.00    +0.000 A 
ATOM      7  C   UNL     1       4.716   4.079  16.896  0.00  0.00    +0.000 A 
ENDROOT
BRANCH   1   8
ATOM      8  C   UNL     1       6.898   4.744  15.934  0.00  0.00    +0.000 C 
ATOM      9  O   UNL     1       7.859   4.380  16.602  0.00  0.00    +0.000 OA
BRANCH   8  11
ATOM     10  O   UNL     1       7.892   5.598  13.915  0.00  0.00    +0.000 OA
ATOM     11  C   UNL     1       7.104   4.830  14.438  0.00  0.00    +0.000 C 
ENDBRANCH   8  11
ENDBRANCH   1   8
TORSDOF 2
ENDMDL
MODEL 5
REMARK VINA RESULT:      -5.3      1.587      2.402
REMARK  Name = 
REMARK  2 active torsions:
REMARK  status: ('A' for Active; 'I' for Inactive)
REMARK    1  A    between atoms: C_2  and  C_3
REMARK    2  A    between atoms: C_3  and  C_5
REMARK                            x       y       z     vdW  Elec       q    Type
REMARK                         _______ _______ _______ _____ _____    ______ ____
ROOT
ATOM      1  C   UNL     1       4.971   4.841  18.317  0.00  0.00    +0.000 A 
ATOM      2  C   UNL     1       4.087   5.916  18.486  0.00  0.00    +0.000 A 
ATOM      3  C   UNL     1       2.736   5.766  18.164  0.00  0.00    +0.000 A 
ATOM      4  C   UNL     1       2.273   4.553  17.668  0.00  0.00    +0.000 A 
ATOM      5  F   UNL     1       0.975   4.412  17.370  0.00  0.00    +0.000 F 
ATOM      6  C   UNL     1       3.140   3.484  17.475  0.00  0.00    +0.000 A 
ATOM      7  C   UNL     1       4.493   3.629  17.793  0.00  0.00    +0.000 A 
ENDROOT
BRANCH   1   8
ATOM      8  C   UNL     1       6.413   4.933  18.653  0.00  0.00    +0.000 C 
ATOM      9  O   UNL     1       6.780   5.284  19.769  0.00  0.00    +0.000 OA
BRANCH   8  11
ATOM     10  O   UNL     1       7.449   5.007  16.481  0.00  0.00    +0.000 OA
ATOM     11  C   UNL     1       7.498   4.639  17.642  0.00  0.00    +0.000 C 
ENDBRANCH   8  11
ENDBRANCH   1   8
TORSDOF 2
ENDMDL
MODEL 6
REMARK VINA RESULT:      -5.3      1.456      2.281
REMARK  Name = 
REMARK  2 active torsions:
REMARK  status: ('A' for Active; 'I' for Inactive)
REMARK    1  A    between atoms: C_2  and  C_3
REMARK    2  A    between atoms: C_3  and  C_5
REMARK                            x       y       z     vdW  Elec       q    Type
REMARK                         _______ _______ _______ _____ _____    ______ ____
ROOT
ATOM      1  C   UNL     1       4.648   5.264  17.298  0.00  0.00    +0.000 A 
ATOM      2  C   UNL     1       3.697   6.122  17.867  0.00  0.00    +0.000 A 
ATOM      3  C   UNL     1       2.404   5.659  18.124  0.00  0.00    +0.000 A 
ATOM      4  C   UNL     1       2.062   4.350  17.806  0.00  0.00    +0.000 A 
ATOM      5  F   UNL     1       0.824   3.909  18.062  0.00  0.00    +0.000 F 
ATOM      6  C   UNL     1       2.987   3.493  17.222  0.00  0.00    +0.000 A 
ATOM      7  C   UNL     1       4.280   3.951  16.961  0.00  0.00    +0.000 A 
ENDROOT
BRANCH   1   8
ATOM      8  C   UNL     1       6.040   5.691  17.014  0.00  0.00    +0.000 C 
ATOM      9  O   UNL     1       6.271   6.643  16.275  0.00  0.00    +0.000 OA
BRANCH   8  11
ATOM     10  O   UNL     1       8.047   4.367  16.893  0.00  0.00    +0.000 OA
ATOM     11  C   UNL     1       7.239   4.966  17.582  0.00  0.00    +0.000 C 
ENDBRANCH   8  11
ENDBRANCH   1   8
TORSDOF 2
ENDMDL
MODEL 7
REMARK VINA RESULT:      -5.3      1.373      1.868
REMARK  Name = 
REMARK  2 active torsions:
REMARK  status: ('A' for Active; 'I' for Inactive)
REMARK    1  A    between atoms: C_2  and  C_3
REMARK    2  A    between atoms: C_3  and  C_5
REMARK                            x       y       z     vdW  Elec       q    Type
REMARK                         _______ _______ _______ _____ _____    ______ ____
ROOT
ATOM      1  C   UNL     1       4.771   5.083  17.129  0.00  0.00    +0.000 A 
ATOM      2  C   UNL     1       4.325   3.771  16.920  0.00  0.00    +0.000 A 
ATOM      3  C   UNL     1       3.014   3.418  17.251  0.00  0.00    +0.000 A 
ATOM      4  C   UNL     1       2.159   4.367  17.796  0.00  0.00    +0.000 A 
ATOM      5  F   UNL     1       0.901   4.025  18.104  0.00  0.00    +0.000 F 
ATOM      6  C   UNL     1       2.591   5.667  18.030  0.00  0.00    +0.000 A 
ATOM      7  C   UNL     1       3.902   6.025  17.703  0.00  0.00    +0.000 A 
ENDROOT
BRANCH   1   8
ATOM      8  C   UNL     1       6.145   5.523  16.786  0.00  0.00    +0.000 C 
ATOM      9  O   UNL     1       6.346   6.609  16.251  0.00  0.00    +0.000 OA
BRANCH   8  11
ATOM     10  O   UNL     1       7.792   4.418  18.150  0.00  0.00    +0.000 OA
ATOM     11  C   UNL     1       7.358   4.655  17.037  0.00  0.00    +0.000 C 
ENDBRANCH   8  11
ENDBRANCH   1   8
TORSDOF 2
ENDMDL
MODEL 8
REMARK VINA RESULT:      -5.2      2.027      2.717
REMARK  Name = 
REMARK  2 active torsions:
REMARK  status: ('A' for Active; 'I' for Inactive)
REMARK    1  A    between atoms: C_2  and  C_3
REMARK    2  A    between atoms: C_3  and  C_5
REMARK                            x       y       z     vdW  Elec       q    Type
REMARK                         _______ _______ _______ _____ _____    ______ ____
ROOT
ATOM      1  C   UNL     1       4.457   3.971  18.594  0.00  0.00    +0.000 A 
ATOM      2  C   UNL     1       4.100   2.889  19.410  0.00  0.00    +0.000 A 
ATOM      3  C   UNL     1       2.806   2.366  19.349  0.00  0.00    +0.000 A 
ATOM      4  C   UNL     1       1.873   2.928  18.486  0.00  0.00    +0.000 A 
ATOM      5  F   UNL     1       0.636   2.417  18.426  0.00  0.00    +0.000 F 
ATOM      6  C   UNL     1       2.205   4.014  17.685  0.00  0.00    +0.000 A 
ATOM      7  C   UNL     1       3.497   4.543  17.744  0.00  0.00    +0.000 A 
ENDROOT
BRANCH   1   8
ATOM      8  C   UNL     1       5.818   4.562  18.602  0.00  0.00    +0.000 C 
ATOM      9  O   UNL     1       6.304   5.017  19.633  0.00  0.00    +0.000 OA
BRANCH   8  11
ATOM     10  O   UNL     1       7.857   4.442  17.327  0.00  0.00    +0.000 OA
ATOM     11  C   UNL     1       6.659   4.669  17.350  0.00  0.00    +0.000 C 
ENDBRANCH   8  11
ENDBRANCH   1   8
TORSDOF 2
ENDMDL
MODEL 9
REMARK VINA RESULT:      -5.2      1.803      2.571
REMARK  Name = 
REMARK  2 active torsions:
REMARK  status: ('A' for Active; 'I' for Inactive)
REMARK    1  A    between atoms: C_2  and  C_3
REMARK    2  A    between atoms: C_3  and  C_5
REMARK                            x       y       z     vdW  Elec       q    Type
REMARK                         _______ _______ _______ _____ _____    ______ ____
ROOT
ATOM      1  C   UNL     1       5.622   4.809  17.958  0.00  0.00    +0.000 A 
ATOM      2  C   UNL     1       5.035   4.008  16.970  0.00  0.00    +0.000 A 
ATOM      3  C   UNL     1       3.645   3.904  16.888  0.00  0.00    +0.000 A 
ATOM      4  C   UNL     1       2.846   4.590  17.796  0.00  0.00    +0.000 A 
ATOM      5  F   UNL     1       1.513   4.493  17.708  0.00  0.00    +0.000 F 
ATOM      6  C   UNL     1       3.412   5.372  18.796  0.00  0.00    +0.000 A 
ATOM      7  C   UNL     1       4.802   5.477  18.883  0.00  0.00    +0.000 A 
ENDROOT
BRANCH   1   8
ATOM      8  C   UNL     1       7.091   4.971  18.087  0.00  0.00    +0.000 C 
ATOM      9  O   UNL     1       7.858   4.444  17.288  0.00  0.00    +0.000 OA
BRANCH   8  11
ATOM     10  O   UNL     1       7.840   5.318  20.349  0.00  0.00    +0.000 OA
ATOM     11  C   UNL     1       7.721   5.754  19.217  0.00  0.00    +0.000 C 
ENDBRANCH   8  11
ENDBRANCH   1   8
TORSDOF 2
ENDMDL
