MODEL 1
REMARK VINA RESULT:      -8.7      0.000      0.000
REMARK  Name = 
REMARK  9 active torsions:
REMARK  status: ('A' for Active; 'I' for Inactive)
REMARK    1  A    between atoms: C_1  and  C_2
REMARK    2  A    between atoms: C_2  and  N_3
REMARK    3  A    between atoms: C_4  and  C_6
REMARK    4  A    between atoms: C_8  and  N_9
REMARK    5  A    between atoms: N_14  and  C_15
REMARK    6  A    between atoms: C_20  and  C_21
REMARK    7  A    between atoms: C_21  and  C_22
REMARK    8  A    between atoms: C_32  and  O_33
REMARK    9  A    between atoms: C_34  and  O_35
REMARK                            x       y       z     vdW  Elec       q    Type
REMARK                         _______ _______ _______ _____ _____    ______ ____
ROOT
ATOM      1  N   UNL     1       4.808   3.919  17.220  0.00  0.00    +0.000 N 
ATOM      2  C   UNL     1       4.897   2.576  17.477  0.00  0.00    +0.000 A 
ATOM      3  N   UNL     1       4.180   2.227  18.524  0.00  0.00    +0.000 NA
ATOM      4  C   UNL     1       3.589   3.399  18.952  0.00  0.00    +0.000 A 
ATOM      5  C   UNL     1       2.730   3.684  20.030  0.00  0.00    +0.000 A 
ATOM      6  N   UNL     1       2.367   2.706  20.953  0.00  0.00    +0.000 N 
ATOM      7  C   UNL     1       1.057   2.807  21.560  0.00  0.00    +0.000 C 
ATOM      8  N   UNL     1       2.313   4.968  20.171  0.00  0.00    +0.000 NA
ATOM      9  C   UNL     1       2.719   5.921  19.290  0.00  0.00    +0.000 A 
ATOM     10  N   UNL     1       2.216   7.246  19.482  0.00  0.00    +0.000 N 
ATOM     11  C   UNL     1       2.390   8.338  18.654  0.00  0.00    +0.000 A 
ATOM     12  C   UNL     1       1.605   9.329  19.207  0.00  0.00    +0.000 A 
ATOM     13  N   UNL     1       1.041   8.852  20.362  0.00  0.00    +0.000 NA
ATOM     14  N   UNL     1       1.423   7.592  20.527  0.00  0.00    +0.000 NA
ATOM     15  N   UNL     1       3.542   5.733  18.226  0.00  0.00    +0.000 NA
ATOM     16  C   UNL     1       3.944   4.458  18.133  0.00  0.00    +0.000 A 
ATOM     17  H   UNL     1       2.628   1.778  20.627  0.00  0.00    +0.000 HD
ENDROOT
BRANCH   1  20
ATOM     18  C   UNL     1       5.706   4.622  13.865  0.00  0.00    +0.000 C 
ATOM     19  O   UNL     1       4.774   4.573  14.954  0.00  0.00    +0.000 OA
ATOM     20  C   UNL     1       5.529   4.623  16.181  0.00  0.00    +0.000 C 
ATOM     21  C   UNL     1       6.917   4.072  15.885  0.00  0.00    +0.000 C 
ATOM     22  C   UNL     1       7.125   4.491  14.437  0.00  0.00    +0.000 C 
BRANCH  18  24
ATOM     23  N   UNL     1       4.181   3.683  12.177  0.00  0.00    +0.000 N 
ATOM     24  C   UNL     1       5.435   3.598  12.748  0.00  0.00    +0.000 C 
ATOM     25  O   UNL     1       6.300   2.836  12.325  0.00  0.00    +0.000 OA
ATOM     26  H   UNL     1       3.485   4.292  12.596  0.00  0.00    +0.000 HD
BRANCH  23  28
ATOM     27  C   UNL     1       3.142   3.687   9.926  0.00  0.00    +0.000 C 
ATOM     28  C   UNL     1       3.860   2.894  11.003  0.00  0.00    +0.000 C 
ENDBRANCH  23  28
ENDBRANCH  18  24
BRANCH  21  29
ATOM     29  O   UNL     1       7.910   4.632  16.747  0.00  0.00    +0.000 OA
ATOM     30  H   UNL     1       8.776   4.416  16.336  0.00  0.00    +0.000 HD
ENDBRANCH  21  29
BRANCH  22  31
ATOM     31  O   UNL     1       7.854   5.738  14.434  0.00  0.00    +0.000 OA
ATOM     32  H   UNL     1       7.651   6.242  13.638  0.00  0.00    +0.000 HD
ENDBRANCH  22  31
ENDBRANCH   1  20
BRANCH  12  33
ATOM     33  C   UNL     1       1.232  10.665  18.683  0.00  0.00    +0.000 C 
BRANCH  33  34
ATOM     34  C   UNL     1      -0.268  10.724  18.526  0.00  0.00    +0.000 A 
ATOM     35  C   UNL     1      -1.001  11.695  19.226  0.00  0.00    +0.000 A 
ATOM     36  C   UNL     1      -2.375  11.848  19.009  0.00  0.00    +0.000 A 
ATOM     37  C   UNL     1      -3.030  11.028  18.096  0.00  0.00    +0.000 A 
ATOM     38  C   UNL     1      -2.319  10.054  17.399  0.00  0.00    +0.000 A 
ATOM     39  C   UNL     1      -0.944   9.905  17.609  0.00  0.00    +0.000 A 
ENDBRANCH  33  34
ENDBRANCH  12  33
TORSDOF 7
ENDMDL
MODEL 2
REMARK VINA RESULT:      -8.6      0.906      1.063
REMARK  Name = 
REMARK  9 active torsions:
REMARK  status: ('A' for Active; 'I' for Inactive)
REMARK    1  A    between atoms: C_1  and  C_2
REMARK    2  A    between atoms: C_2  and  N_3
REMARK    3  A    between atoms: C_4  and  C_6
REMARK    4  A    between atoms: C_8  and  N_9
REMARK    5  A    between atoms: N_14  and  C_15
REMARK    6  A    between atoms: C_20  and  C_21
REMARK    7  A    between atoms: C_21  and  C_22
REMARK    8  A    between atoms: C_32  and  O_33
REMARK    9  A    between atoms: C_34  and  O_35
REMARK                            x       y       z     vdW  Elec       q    Type
REMARK                         _______ _______ _______ _____ _____    ______ ____
ROOT
ATOM      1  N   UNL     1       4.795   3.942  17.263  0.00  0.00    +0.000 N 
ATOM      2  C   UNL     1       4.903   2.603  17.541  0.00  0.00    +0.000 A 
ATOM      3  N   UNL     1       4.203   2.264  18.602  0.00  0.00    +0.000 NA
ATOM      4  C   UNL     1       3.604   3.436  19.019  0.00  0.00    +0.000 A 
ATOM      5  C   UNL     1       2.755   3.730  20.102  0.00  0.00    +0.000 A 
ATOM      6  N   UNL     1       2.415   2.763  21.046  0.00  0.00    +0.000 N 
ATOM      7  C   UNL     1       1.111   2.860  21.667  0.00  0.00    +0.000 C 
ATOM      8  N   UNL     1       2.325   5.011  20.227  0.00  0.00    +0.000 NA
ATOM      9  C   UNL     1       2.709   5.954  19.326  0.00  0.00    +0.000 A 
ATOM     10  N   UNL     1       2.194   7.277  19.502  0.00  0.00    +0.000 N 
ATOM     11  C   UNL     1       2.345   8.356  18.654  0.00  0.00    +0.000 A 
ATOM     12  C   UNL     1       1.556   9.347  19.201  0.00  0.00    +0.000 A 
ATOM     13  N   UNL     1       1.012   8.883  20.371  0.00  0.00    +0.000 NA
ATOM     14  N   UNL     1       1.410   7.631  20.552  0.00  0.00    +0.000 NA
ATOM     15  N   UNL     1       3.521   5.758  18.255  0.00  0.00    +0.000 NA
ATOM     16  C   UNL     1       3.937   4.485  18.178  0.00  0.00    +0.000 A 
ATOM     17  H   UNL     1       2.682   1.833  20.732  0.00  0.00    +0.000 HD
ENDROOT
BRANCH   1  20
ATOM     18  C   UNL     1       5.574   4.663  13.882  0.00  0.00    +0.000 C 
ATOM     19  O   UNL     1       4.688   4.629  15.009  0.00  0.00    +0.000 OA
ATOM     20  C   UNL     1       5.495   4.636  16.203  0.00  0.00    +0.000 C 
ATOM     21  C   UNL     1       6.850   4.043  15.841  0.00  0.00    +0.000 C 
ATOM     22  C   UNL     1       7.011   4.476  14.391  0.00  0.00    +0.000 C 
BRANCH  18  24
ATOM     23  N   UNL     1       6.212   2.749  12.472  0.00  0.00    +0.000 N 
ATOM     24  C   UNL     1       5.221   3.664  12.765  0.00  0.00    +0.000 C 
ATOM     25  O   UNL     1       4.108   3.617  12.248  0.00  0.00    +0.000 OA
ATOM     26  H   UNL     1       7.131   2.862  12.887  0.00  0.00    +0.000 HD
BRANCH  23  28
ATOM     27  C   UNL     1       7.144   1.261  10.722  0.00  0.00    +0.000 C 
ATOM     28  C   UNL     1       5.943   1.650  11.564  0.00  0.00    +0.000 C 
ENDBRANCH  23  28
ENDBRANCH  18  24
BRANCH  21  29
ATOM     29  O   UNL     1       7.897   4.557  16.667  0.00  0.00    +0.000 OA
ATOM     30  H   UNL     1       7.479   4.770  17.530  0.00  0.00    +0.000 HD
ENDBRANCH  21  29
BRANCH  22  31
ATOM     31  O   UNL     1       7.781   5.698  14.374  0.00  0.00    +0.000 OA
ATOM     32  H   UNL     1       8.670   5.537  14.709  0.00  0.00    +0.000 HD
ENDBRANCH  22  31
ENDBRANCH   1  20
BRANCH  12  33
ATOM     33  C   UNL     1       1.162  10.671  18.660  0.00  0.00    +0.000 C 
BRANCH  33  34
ATOM     34  C   UNL     1      -0.340  10.704  18.506  0.00  0.00    +0.000 A 
ATOM     35  C   UNL     1      -1.085  11.676  19.192  0.00  0.00    +0.000 A 
ATOM     36  C   UNL     1      -2.462  11.805  18.977  0.00  0.00    +0.000 A 
ATOM     37  C   UNL     1      -3.107  10.961  18.079  0.00  0.00    +0.000 A 
ATOM     38  C   UNL     1      -2.383   9.985  17.397  0.00  0.00    +0.000 A 
ATOM     39  C   UNL     1      -1.006   9.861  17.605  0.00  0.00    +0.000 A 
ENDBRANCH  33  34
ENDBRANCH  12  33
TORSDOF 7
ENDMDL
MODEL 3
REMARK VINA RESULT:      -7.9      0.609      1.137
REMARK  Name = 
REMARK  9 active torsions:
REMARK  status: ('A' for Active; 'I' for Inactive)
REMARK    1  A    between atoms: C_1  and  C_2
REMARK    2  A    between atoms: C_2  and  N_3
REMARK    3  A    between atoms: C_4  and  C_6
REMARK    4  A    between atoms: C_8  and  N_9
REMARK    5  A    between atoms: N_14  and  C_15
REMARK    6  A    between atoms: C_20  and  C_21
REMARK    7  A    between atoms: C_21  and  C_22
REMARK    8  A    between atoms: C_32  and  O_33
REMARK    9  A    between atoms: C_34  and  O_35
REMARK                            x       y       z     vdW  Elec       q    Type
REMARK                         _______ _______ _______ _____ _____    ______ ____
ROOT
ATOM      1  N   UNL     1       4.820   3.987  16.986  0.00  0.00    +0.000 N 
ATOM      2  C   UNL     1       4.859   2.647  17.271  0.00  0.00    +0.000 A 
ATOM      3  N   UNL     1       4.113   2.343  18.311  0.00  0.00    +0.000 NA
ATOM      4  C   UNL     1       3.556   3.542  18.707  0.00  0.00    +0.000 A 
ATOM      5  C   UNL     1       2.688   3.877  19.764  0.00  0.00    +0.000 A 
ATOM      6  N   UNL     1       2.277   2.930  20.699  0.00  0.00    +0.000 N 
ATOM      7  C   UNL     1       0.961   3.087  21.280  0.00  0.00    +0.000 C 
ATOM      8  N   UNL     1       2.313   5.177  19.873  0.00  0.00    +0.000 NA
ATOM      9  C   UNL     1       2.766   6.098  18.982  0.00  0.00    +0.000 A 
ATOM     10  N   UNL     1       2.305   7.443  19.140  0.00  0.00    +0.000 N 
ATOM     11  C   UNL     1       2.529   8.512  18.294  0.00  0.00    +0.000 A 
ATOM     12  C   UNL     1       1.770   9.539  18.815  0.00  0.00    +0.000 A 
ATOM     13  N   UNL     1       1.171   9.104  19.969  0.00  0.00    +0.000 NA
ATOM     14  N   UNL     1       1.507   7.836  20.164  0.00  0.00    +0.000 NA
ATOM     15  N   UNL     1       3.600   5.862  17.936  0.00  0.00    +0.000 NA
ATOM     16  C   UNL     1       3.960   4.572  17.874  0.00  0.00    +0.000 A 
ATOM     17  H   UNL     1       2.512   1.987  20.395  0.00  0.00    +0.000 HD
ENDROOT
BRANCH   1  20
ATOM     18  C   UNL     1       5.778   4.614  13.632  0.00  0.00    +0.000 C 
ATOM     19  O   UNL     1       4.835   4.620  14.714  0.00  0.00    +0.000 OA
ATOM     20  C   UNL     1       5.582   4.646  15.947  0.00  0.00    +0.000 C 
ATOM     21  C   UNL     1       6.945   4.027  15.668  0.00  0.00    +0.000 C 
ATOM     22  C   UNL     1       7.184   4.422  14.218  0.00  0.00    +0.000 C 
BRANCH  18  24
ATOM     23  N   UNL     1       4.190   3.673  12.004  0.00  0.00    +0.000 N 
ATOM     24  C   UNL     1       5.467   3.593  12.524  0.00  0.00    +0.000 C 
ATOM     25  O   UNL     1       6.319   2.838  12.062  0.00  0.00    +0.000 OA
ATOM     26  H   UNL     1       3.508   4.275  12.454  0.00  0.00    +0.000 HD
BRANCH  23  28
ATOM     27  C   UNL     1       3.065   3.682   9.795  0.00  0.00    +0.000 C 
ATOM     28  C   UNL     1       3.826   2.887  10.841  0.00  0.00    +0.000 C 
ENDBRANCH  23  28
ENDBRANCH  18  24
BRANCH  21  29
ATOM     29  O   UNL     1       7.956   4.548  16.533  0.00  0.00    +0.000 OA
ATOM     30  H   UNL     1       7.615   5.410  16.858  0.00  0.00    +0.000 HD
ENDBRANCH  21  29
BRANCH  22  31
ATOM     31  O   UNL     1       7.971   5.634  14.210  0.00  0.00    +0.000 OA
ATOM     32  H   UNL     1       7.484   6.351  14.631  0.00  0.00    +0.000 HD
ENDBRANCH  22  31
ENDBRANCH   1  20
BRANCH  12  33
ATOM     33  C   UNL     1       1.451  10.877  18.260  0.00  0.00    +0.000 C 
BRANCH  33  34
ATOM     34  C   UNL     1       0.226  11.414  18.960  0.00  0.00    +0.000 A 
ATOM     35  C   UNL     1      -1.046  11.163  18.421  0.00  0.00    +0.000 A 
ATOM     36  C   UNL     1      -2.202  11.546  19.109  0.00  0.00    +0.000 A 
ATOM     37  C   UNL     1      -2.099  12.189  20.338  0.00  0.00    +0.000 A 
ATOM     38  C   UNL     1      -0.844  12.452  20.883  0.00  0.00    +0.000 A 
ATOM     39  C   UNL     1       0.312  12.063  20.200  0.00  0.00    +0.000 A 
ENDBRANCH  33  34
ENDBRANCH  12  33
TORSDOF 7
ENDMDL
MODEL 4
REMARK VINA RESULT:      -7.7      1.282      1.800
REMARK  Name = 
REMARK  9 active torsions:
REMARK  status: ('A' for Active; 'I' for Inactive)
REMARK    1  A    between atoms: C_1  and  C_2
REMARK    2  A    between atoms: C_2  and  N_3
REMARK    3  A    between atoms: C_4  and  C_6
REMARK    4  A    between atoms: C_8  and  N_9
REMARK    5  A    between atoms: N_14  and  C_15
REMARK    6  A    between atoms: C_20  and  C_21
REMARK    7  A    between atoms: C_21  and  C_22
REMARK    8  A    between atoms: C_32  and  O_33
REMARK    9  A    between atoms: C_34  and  O_35
REMARK                            x       y       z     vdW  Elec       q    Type
REMARK                         _______ _______ _______ _____ _____    ______ ____
ROOT
ATOM      1  N   UNL     1       4.704   3.850  16.712  0.00  0.00    +0.000 N 
ATOM      2  C   UNL     1       4.738   2.506  16.976  0.00  0.00    +0.000 A 
ATOM      3  N   UNL     1       4.044   2.198  18.051  0.00  0.00    +0.000 NA
ATOM      4  C   UNL     1       3.525   3.399  18.491  0.00  0.00    +0.000 A 
ATOM      5  C   UNL     1       2.719   3.732  19.597  0.00  0.00    +0.000 A 
ATOM      6  N   UNL     1       2.344   2.778  20.540  0.00  0.00    +0.000 N 
ATOM      7  C   UNL     1       1.063   2.945  21.192  0.00  0.00    +0.000 C 
ATOM      8  N   UNL     1       2.369   5.035  19.742  0.00  0.00    +0.000 NA
ATOM      9  C   UNL     1       2.788   5.962  18.840  0.00  0.00    +0.000 A 
ATOM     10  N   UNL     1       2.356   7.311  19.039  0.00  0.00    +0.000 N 
ATOM     11  C   UNL     1       2.551   8.388  18.197  0.00  0.00    +0.000 A 
ATOM     12  C   UNL     1       1.835   9.418  18.770  0.00  0.00    +0.000 A 
ATOM     13  N   UNL     1       1.291   8.976  19.949  0.00  0.00    +0.000 NA
ATOM     14  N   UNL     1       1.619   7.701  20.109  0.00  0.00    +0.000 NA
ATOM     15  N   UNL     1       3.562   5.729  17.749  0.00  0.00    +0.000 NA
ATOM     16  C   UNL     1       3.900   4.435  17.651  0.00  0.00    +0.000 A 
ATOM     17  H   UNL     1       2.549   1.836  20.211  0.00  0.00    +0.000 HD
ENDROOT
BRANCH   1  20
ATOM     18  C   UNL     1       5.521   4.480  13.322  0.00  0.00    +0.000 C 
ATOM     19  O   UNL     1       4.623   4.481  14.441  0.00  0.00    +0.000 OA
ATOM     20  C   UNL     1       5.419   4.513  15.642  0.00  0.00    +0.000 C 
ATOM     21  C   UNL     1       6.773   3.900  15.308  0.00  0.00    +0.000 C 
ATOM     22  C   UNL     1       6.951   4.296  13.850  0.00  0.00    +0.000 C 
BRANCH  18  24
ATOM     23  N   UNL     1       6.106   2.457  12.048  0.00  0.00    +0.000 N 
ATOM     24  C   UNL     1       5.171   3.457  12.227  0.00  0.00    +0.000 C 
ATOM     25  O   UNL     1       4.096   3.466  11.632  0.00  0.00    +0.000 OA
ATOM     26  H   UNL     1       7.000   2.522  12.525  0.00  0.00    +0.000 HD
BRANCH  23  28
ATOM     27  C   UNL     1       6.561   0.071  11.554  0.00  0.00    +0.000 C 
ATOM     28  C   UNL     1       5.817   1.337  11.173  0.00  0.00    +0.000 C 
ENDBRANCH  23  28
ENDBRANCH  18  24
BRANCH  21  29
ATOM     29  O   UNL     1       7.815   4.427  16.132  0.00  0.00    +0.000 OA
ATOM     30  H   UNL     1       7.967   5.347  15.820  0.00  0.00    +0.000 HD
ENDBRANCH  21  29
BRANCH  22  31
ATOM     31  O   UNL     1       7.730   5.512  13.809  0.00  0.00    +0.000 OA
ATOM     32  H   UNL     1       7.172   6.258  13.564  0.00  0.00    +0.000 HD
ENDBRANCH  22  31
ENDBRANCH   1  20
BRANCH  12  33
ATOM     33  C   UNL     1       1.507  10.768  18.250  0.00  0.00    +0.000 C 
BRANCH  33  34
ATOM     34  C   UNL     1       0.564  11.445  19.216  0.00  0.00    +0.000 A 
ATOM     35  C   UNL     1      -0.821  11.323  19.032  0.00  0.00    +0.000 A 
ATOM     36  C   UNL     1      -1.716  11.840  19.976  0.00  0.00    +0.000 A 
ATOM     37  C   UNL     1      -1.235  12.488  21.108  0.00  0.00    +0.000 A 
ATOM     38  C   UNL     1       0.138  12.625  21.301  0.00  0.00    +0.000 A 
ATOM     39  C   UNL     1       1.034  12.102  20.363  0.00  0.00    +0.000 A 
ENDBRANCH  33  34
ENDBRANCH  12  33
TORSDOF 7
ENDMDL
MODEL 5
REMARK VINA RESULT:      -7.6      1.513      2.029
REMARK  Name = 
REMARK  9 active torsions:
REMARK  status: ('A' for Active; 'I' for Inactive)
REMARK    1  A    between atoms: C_1  and  C_2
REMARK    2  A    between atoms: C_2  and  N_3
REMARK    3  A    between atoms: C_4  and  C_6
REMARK    4  A    between atoms: C_8  and  N_9
REMARK    5  A    between atoms: N_14  and  C_15
REMARK    6  A    between atoms: C_20  and  C_21
REMARK    7  A    between atoms: C_21  and  C_22
REMARK    8  A    between atoms: C_32  and  O_33
REMARK    9  A    between atoms: C_34  and  O_35
REMARK                            x       y       z     vdW  Elec       q    Type
REMARK                         _______ _______ _______ _____ _____    ______ ____
ROOT
ATOM      1  N   UNL     1       4.892   4.957  18.497  0.00  0.00    +0.000 N 
ATOM      2  C   UNL     1       5.151   3.614  18.585  0.00  0.00    +0.000 A 
ATOM      3  N   UNL     1       4.333   3.009  19.420  0.00  0.00    +0.000 NA
ATOM      4  C   UNL     1       3.499   4.008  19.882  0.00  0.00    +0.000 A 
ATOM      5  C   UNL     1       2.437   4.000  20.805  0.00  0.00    +0.000 A 
ATOM      6  N   UNL     1       2.085   2.847  21.503  0.00  0.00    +0.000 N 
ATOM      7  C   UNL     1       0.693   2.674  21.858  0.00  0.00    +0.000 C 
ATOM      8  N   UNL     1       1.802   5.178  21.035  0.00  0.00    +0.000 NA
ATOM      9  C   UNL     1       2.193   6.305  20.383  0.00  0.00    +0.000 A 
ATOM     10  N   UNL     1       1.460   7.504  20.652  0.00  0.00    +0.000 N 
ATOM     11  C   UNL     1       1.594   8.727  20.025  0.00  0.00    +0.000 A 
ATOM     12  C   UNL     1       0.580   9.503  20.547  0.00  0.00    +0.000 A 
ATOM     13  N   UNL     1      -0.087   8.776  21.500  0.00  0.00    +0.000 NA
ATOM     14  N   UNL     1       0.458   7.569  21.564  0.00  0.00    +0.000 NA
ATOM     15  N   UNL     1       3.202   6.402  19.479  0.00  0.00    +0.000 NA
ATOM     16  C   UNL     1       3.813   5.223  19.294  0.00  0.00    +0.000 A 
ATOM     17  H   UNL     1       2.542   2.026  21.111  0.00  0.00    +0.000 HD
ENDROOT
BRANCH   1  20
ATOM     18  C   UNL     1       6.483   6.139  15.560  0.00  0.00    +0.000 C 
ATOM     19  O   UNL     1       5.329   5.757  16.322  0.00  0.00    +0.000 OA
ATOM     20  C   UNL     1       5.656   5.908  17.718  0.00  0.00    +0.000 C 
ATOM     21  C   UNL     1       7.166   5.772  17.850  0.00  0.00    +0.000 C 
ATOM     22  C   UNL     1       7.656   6.346  16.529  0.00  0.00    +0.000 C 
BRANCH  18  24
ATOM     23  N   UNL     1       5.888   4.204  14.160  0.00  0.00    +0.000 N 
ATOM     24  C   UNL     1       6.839   5.172  14.416  0.00  0.00    +0.000 C 
ATOM     25  O   UNL     1       7.839   5.314  13.717  0.00  0.00    +0.000 OA
ATOM     26  H   UNL     1       5.107   4.095  14.798  0.00  0.00    +0.000 HD
BRANCH  23  28
ATOM     27  C   UNL     1       4.885   3.496  12.006  0.00  0.00    +0.000 C 
ATOM     28  C   UNL     1       6.021   3.342  13.001  0.00  0.00    +0.000 C 
ENDBRANCH  23  28
ENDBRANCH  18  24
BRANCH  21  29
ATOM     29  O   UNL     1       7.674   6.506  18.967  0.00  0.00    +0.000 OA
ATOM     30  H   UNL     1       7.948   5.833  19.629  0.00  0.00    +0.000 HD
ENDBRANCH  21  29
BRANCH  22  31
ATOM     31  O   UNL     1       7.978   7.738  16.739  0.00  0.00    +0.000 OA
ATOM     32  H   UNL     1       7.173   8.249  16.883  0.00  0.00    +0.000 HD
ENDBRANCH  22  31
ENDBRANCH   1  20
BRANCH  12  33
ATOM     33  C   UNL     1       0.091  10.845  20.147  0.00  0.00    +0.000 C 
BRANCH  33  34
ATOM     34  C   UNL     1      -0.926  10.682  19.043  0.00  0.00    +0.000 A 
ATOM     35  C   UNL     1      -0.633   9.856  17.947  0.00  0.00    +0.000 A 
ATOM     36  C   UNL     1      -1.600   9.595  16.970  0.00  0.00    +0.000 A 
ATOM     37  C   UNL     1      -2.867  10.159  17.077  0.00  0.00    +0.000 A 
ATOM     38  C   UNL     1      -3.171  10.988  18.155  0.00  0.00    +0.000 A 
ATOM     39  C   UNL     1      -2.208  11.244  19.136  0.00  0.00    +0.000 A 
ENDBRANCH  33  34
ENDBRANCH  12  33
TORSDOF 7
ENDMDL
MODEL 6
REMARK VINA RESULT:      -7.6      1.873      2.764
REMARK  Name = 
REMARK  9 active torsions:
REMARK  status: ('A' for Active; 'I' for Inactive)
REMARK    1  A    between atoms: C_1  and  C_2
REMARK    2  A    between atoms: C_2  and  N_3
REMARK    3  A    between atoms: C_4  and  C_6
REMARK    4  A    between atoms: C_8  and  N_9
REMARK    5  A    between atoms: N_14  and  C_15
REMARK    6  A    between atoms: C_20  and  C_21
REMARK    7  A    between atoms: C_21  and  C_22
REMARK    8  A    between atoms: C_32  and  O_33
REMARK    9  A    between atoms: C_34  and  O_35
REMARK                            x       y       z     vdW  Elec       q    Type
REMARK                         _______ _______ _______ _____ _____    ______ ____
ROOT
ATOM      1  N   UNL     1       4.934   4.933  18.655  0.00  0.00    +0.000 N 
ATOM      2  C   UNL     1       5.272   3.612  18.802  0.00  0.00    +0.000 A 
ATOM      3  N   UNL     1       4.489   2.996  19.661  0.00  0.00    +0.000 NA
ATOM      4  C   UNL     1       3.594   3.962  20.076  0.00  0.00    +0.000 A 
ATOM      5  C   UNL     1       2.529   3.930  20.997  0.00  0.00    +0.000 A 
ATOM      6  N   UNL     1       2.245   2.790  21.744  0.00  0.00    +0.000 N 
ATOM      7  C   UNL     1       0.863   2.549  22.104  0.00  0.00    +0.000 C 
ATOM      8  N   UNL     1       1.824   5.076  21.173  0.00  0.00    +0.000 NA
ATOM      9  C   UNL     1       2.148   6.196  20.473  0.00  0.00    +0.000 A 
ATOM     10  N   UNL     1       1.343   7.358  20.687  0.00  0.00    +0.000 N 
ATOM     11  C   UNL     1       1.406   8.559  20.008  0.00  0.00    +0.000 A 
ATOM     12  C   UNL     1       0.344   9.294  20.493  0.00  0.00    +0.000 A 
ATOM     13  N   UNL     1      -0.282   8.571  21.475  0.00  0.00    +0.000 NA
ATOM     14  N   UNL     1       0.335   7.402  21.594  0.00  0.00    +0.000 NA
ATOM     15  N   UNL     1       3.155   6.313  19.568  0.00  0.00    +0.000 NA
ATOM     16  C   UNL     1       3.836   5.166  19.437  0.00  0.00    +0.000 A 
ATOM     17  H   UNL     1       2.752   1.982  21.390  0.00  0.00    +0.000 HD
ENDROOT
BRANCH   1  20
ATOM     18  C   UNL     1       6.410   6.103  15.654  0.00  0.00    +0.000 C 
ATOM     19  O   UNL     1       5.290   5.696  16.452  0.00  0.00    +0.000 OA
ATOM     20  C   UNL     1       5.642   5.893  17.836  0.00  0.00    +0.000 C 
ATOM     21  C   UNL     1       7.159   5.817  17.935  0.00  0.00    +0.000 C 
ATOM     22  C   UNL     1       7.596   6.377  16.590  0.00  0.00    +0.000 C 
BRANCH  18  24
ATOM     23  N   UNL     1       5.765   4.257  14.159  0.00  0.00    +0.000 N 
ATOM     24  C   UNL     1       6.776   5.124  14.525  0.00  0.00    +0.000 C 
ATOM     25  O   UNL     1       7.846   5.178  13.923  0.00  0.00    +0.000 OA
ATOM     26  H   UNL     1       4.921   4.216  14.720  0.00  0.00    +0.000 HD
BRANCH  23  28
ATOM     27  C   UNL     1       4.769   3.510  12.016  0.00  0.00    +0.000 C 
ATOM     28  C   UNL     1       5.922   3.404  12.997  0.00  0.00    +0.000 C 
ENDBRANCH  23  28
ENDBRANCH  18  24
BRANCH  21  29
ATOM     29  O   UNL     1       7.663   6.596  19.023  0.00  0.00    +0.000 OA
ATOM     30  H   UNL     1       7.469   6.080  19.836  0.00  0.00    +0.000 HD
ENDBRANCH  21  29
BRANCH  22  31
ATOM     31  O   UNL     1       7.869   7.786  16.760  0.00  0.00    +0.000 OA
ATOM     32  H   UNL     1       7.725   8.256  15.931  0.00  0.00    +0.000 HD
ENDBRANCH  22  31
ENDBRANCH   1  20
BRANCH  12  33
ATOM     33  C   UNL     1      -0.223  10.585  20.032  0.00  0.00    +0.000 C 
BRANCH  33  34
ATOM     34  C   UNL     1       0.907  11.566  19.827  0.00  0.00    +0.000 A 
ATOM     35  C   UNL     1       1.467  11.721  18.550  0.00  0.00    +0.000 A 
ATOM     36  C   UNL     1       2.432  12.704  18.307  0.00  0.00    +0.000 A 
ATOM     37  C   UNL     1       2.850  13.538  19.339  0.00  0.00    +0.000 A 
ATOM     38  C   UNL     1       2.310  13.392  20.615  0.00  0.00    +0.000 A 
ATOM     39  C   UNL     1       1.340  12.414  20.857  0.00  0.00    +0.000 A 
ENDBRANCH  33  34
ENDBRANCH  12  33
TORSDOF 7
ENDMDL
MODEL 7
REMARK VINA RESULT:      -7.5      1.546      2.420
REMARK  Name = 
REMARK  9 active torsions:
REMARK  status: ('A' for Active; 'I' for Inactive)
REMARK    1  A    between atoms: C_1  and  C_2
REMARK    2  A    between atoms: C_2  and  N_3
REMARK    3  A    between atoms: C_4  and  C_6
REMARK    4  A    between atoms: C_8  and  N_9
REMARK    5  A    between atoms: N_14  and  C_15
REMARK    6  A    between atoms: C_20  and  C_21
REMARK    7  A    between atoms: C_21  and  C_22
REMARK    8  A    between atoms: C_32  and  O_33
REMARK    9  A    between atoms: C_34  and  O_35
REMARK                            x       y       z     vdW  Elec       q    Type
REMARK                         _______ _______ _______ _____ _____    ______ ____
ROOT
ATOM      1  N   UNL     1       4.966   4.100  17.529  0.00  0.00    +0.000 N 
ATOM      2  C   UNL     1       5.151   2.791  17.890  0.00  0.00    +0.000 A 
ATOM      3  N   UNL     1       4.435   2.465  18.945  0.00  0.00    +0.000 NA
ATOM      4  C   UNL     1       3.745   3.616  19.270  0.00  0.00    +0.000 A 
ATOM      5  C   UNL     1       2.837   3.913  20.305  0.00  0.00    +0.000 A 
ATOM      6  N   UNL     1       2.526   2.980  21.292  0.00  0.00    +0.000 N 
ATOM      7  C   UNL     1       1.196   3.023  21.862  0.00  0.00    +0.000 C 
ATOM      8  N   UNL     1       2.319   5.167  20.339  0.00  0.00    +0.000 NA
ATOM      9  C   UNL     1       2.675   6.081  19.397  0.00  0.00    +0.000 A 
ATOM     10  N   UNL     1       2.067   7.373  19.477  0.00  0.00    +0.000 N 
ATOM     11  C   UNL     1       2.178   8.410  18.572  0.00  0.00    +0.000 A 
ATOM     12  C   UNL     1       1.306   9.374  19.031  0.00  0.00    +0.000 A 
ATOM     13  N   UNL     1       0.749   8.942  20.208  0.00  0.00    +0.000 NA
ATOM     14  N   UNL     1       1.222   7.732  20.476  0.00  0.00    +0.000 NA
ATOM     15  N   UNL     1       3.538   5.879  18.368  0.00  0.00    +0.000 NA
ATOM     16  C   UNL     1       4.039   4.636  18.381  0.00  0.00    +0.000 A 
ATOM     17  H   UNL     1       2.866   2.054  21.043  0.00  0.00    +0.000 HD
ENDROOT
BRANCH   1  20
ATOM     18  C   UNL     1       5.686   4.807  14.132  0.00  0.00    +0.000 C 
ATOM     19  O   UNL     1       4.824   4.793  15.279  0.00  0.00    +0.000 OA
ATOM     20  C   UNL     1       5.658   4.779  16.455  0.00  0.00    +0.000 C 
ATOM     21  C   UNL     1       6.990   4.155  16.062  0.00  0.00    +0.000 C 
ATOM     22  C   UNL     1       7.128   4.586  14.609  0.00  0.00    +0.000 C 
BRANCH  18  24
ATOM     23  N   UNL     1       6.301   2.995  12.584  0.00  0.00    +0.000 N 
ATOM     24  C   UNL     1       5.284   3.819  13.022  0.00  0.00    +0.000 C 
ATOM     25  O   UNL     1       4.125   3.699  12.632  0.00  0.00    +0.000 OA
ATOM     26  H   UNL     1       7.251   3.169  12.899  0.00  0.00    +0.000 HD
BRANCH  23  28
ATOM     27  C   UNL     1       7.214   1.491  10.838  0.00  0.00    +0.000 C 
ATOM     28  C   UNL     1       6.015   1.907  11.670  0.00  0.00    +0.000 C 
ENDBRANCH  23  28
ENDBRANCH  18  24
BRANCH  21  29
ATOM     29  O   UNL     1       8.067   4.642  16.865  0.00  0.00    +0.000 OA
ATOM     30  H   UNL     1       7.725   5.445  17.316  0.00  0.00    +0.000 HD
ENDBRANCH  21  29
BRANCH  22  31
ATOM     31  O   UNL     1       7.927   5.789  14.575  0.00  0.00    +0.000 OA
ATOM     32  H   UNL     1       8.129   6.030  13.664  0.00  0.00    +0.000 HD
ENDBRANCH  22  31
ENDBRANCH   1  20
BRANCH  12  33
ATOM     33  C   UNL     1       0.846  10.635  18.400  0.00  0.00    +0.000 C 
BRANCH  33  34
ATOM     34  C   UNL     1       1.651  11.782  18.962  0.00  0.00    +0.000 A 
ATOM     35  C   UNL     1       2.532  12.486  18.125  0.00  0.00    +0.000 A 
ATOM     36  C   UNL     1       3.201  13.624  18.588  0.00  0.00    +0.000 A 
ATOM     37  C   UNL     1       3.002  14.066  19.891  0.00  0.00    +0.000 A 
ATOM     38  C   UNL     1       2.138  13.374  20.737  0.00  0.00    +0.000 A 
ATOM     39  C   UNL     1       1.462  12.241  20.274  0.00  0.00    +0.000 A 
ENDBRANCH  33  34
ENDBRANCH  12  33
TORSDOF 7
ENDMDL
MODEL 8
REMARK VINA RESULT:      -7.3      3.231      8.750
REMARK  Name = 
REMARK  9 active torsions:
REMARK  status: ('A' for Active; 'I' for Inactive)
REMARK    1  A    between atoms: C_1  and  C_2
REMARK    2  A    between atoms: C_2  and  N_3
REMARK    3  A    between atoms: C_4  and  C_6
REMARK    4  A    between atoms: C_8  and  N_9
REMARK    5  A    between atoms: N_14  and  C_15
REMARK    6  A    between atoms: C_20  and  C_21
REMARK    7  A    between atoms: C_21  and  C_22
REMARK    8  A    between atoms: C_32  and  O_33
REMARK    9  A    between atoms: C_34  and  O_35
REMARK                            x       y       z     vdW  Elec       q    Type
REMARK                         _______ _______ _______ _____ _____    ______ ____
ROOT
ATOM      1  N   UNL     1       1.610   8.300  20.116  0.00  0.00    +0.000 N 
ATOM      2  C   UNL     1       0.730   8.115  21.150  0.00  0.00    +0.000 A 
ATOM      3  N   UNL     1       0.611   6.845  21.474  0.00  0.00    +0.000 NA
ATOM      4  C   UNL     1       1.467   6.182  20.618  0.00  0.00    +0.000 A 
ATOM      5  C   UNL     1       1.771   4.817  20.455  0.00  0.00    +0.000 A 
ATOM      6  N   UNL     1       1.119   3.832  21.193  0.00  0.00    +0.000 N 
ATOM      7  C   UNL     1       1.863   2.633  21.519  0.00  0.00    +0.000 C 
ATOM      8  N   UNL     1       2.685   4.491  19.507  0.00  0.00    +0.000 NA
ATOM      9  C   UNL     1       3.274   5.462  18.759  0.00  0.00    +0.000 A 
ATOM     10  N   UNL     1       4.250   5.048  17.799  0.00  0.00    +0.000 N 
ATOM     11  C   UNL     1       5.057   5.855  17.022  0.00  0.00    +0.000 A 
ATOM     12  C   UNL     1       5.905   4.983  16.371  0.00  0.00    +0.000 A 
ATOM     13  N   UNL     1       5.560   3.699  16.706  0.00  0.00    +0.000 NA
ATOM     14  N   UNL     1       4.551   3.746  17.565  0.00  0.00    +0.000 NA
ATOM     15  N   UNL     1       3.041   6.797  18.851  0.00  0.00    +0.000 NA
ATOM     16  C   UNL     1       2.121   7.075  19.785  0.00  0.00    +0.000 A 
ATOM     17  H   UNL     1       0.587   4.238  21.960  0.00  0.00    +0.000 HD
ENDROOT
BRANCH   1  20
ATOM     18  C   UNL     1       0.979  11.689  19.293  0.00  0.00    +0.000 C 
ATOM     19  O   UNL     1       1.269  10.631  20.219  0.00  0.00    +0.000 OA
ATOM     20  C   UNL     1       1.908   9.568  19.485  0.00  0.00    +0.000 C 
ATOM     21  C   UNL     1       1.456   9.679  18.035  0.00  0.00    +0.000 C 
ATOM     22  C   UNL     1       1.267  11.180  17.874  0.00  0.00    +0.000 C 
BRANCH  18  24
ATOM     23  N   UNL     1      -1.434  11.522  18.838  0.00  0.00    +0.000 N 
ATOM     24  C   UNL     1      -0.437  12.277  19.423  0.00  0.00    +0.000 C 
ATOM     25  O   UNL     1      -0.677  13.283  20.085  0.00  0.00    +0.000 OA
ATOM     26  H   UNL     1      -1.179  10.728  18.258  0.00  0.00    +0.000 HD
BRANCH  23  28
ATOM     27  C   UNL     1      -3.718  11.471  17.876  0.00  0.00    +0.000 C 
ATOM     28  C   UNL     1      -2.826  11.874  19.036  0.00  0.00    +0.000 C 
ENDBRANCH  23  28
ENDBRANCH  18  24
BRANCH  21  29
ATOM     29  O   UNL     1       2.436   9.167  17.129  0.00  0.00    +0.000 OA
ATOM     30  H   UNL     1       2.131   9.423  16.230  0.00  0.00    +0.000 HD
ENDBRANCH  21  29
BRANCH  22  31
ATOM     31  O   UNL     1       2.482  11.725  17.313  0.00  0.00    +0.000 OA
ATOM     32  H   UNL     1       2.808  11.155  16.606  0.00  0.00    +0.000 HD
ENDBRANCH  22  31
ENDBRANCH   1  20
BRANCH  12  33
ATOM     33  C   UNL     1       7.107   5.248  15.542  0.00  0.00    +0.000 C 
BRANCH  33  34
ATOM     34  C   UNL     1       6.845   4.759  14.138  0.00  0.00    +0.000 A 
ATOM     35  C   UNL     1       7.711   5.136  13.100  0.00  0.00    +0.000 A 
ATOM     36  C   UNL     1       7.561   4.605  11.814  0.00  0.00    +0.000 A 
ATOM     37  C   UNL     1       6.541   3.696  11.553  0.00  0.00    +0.000 A 
ATOM     38  C   UNL     1       5.668   3.317  12.570  0.00  0.00    +0.000 A 
ATOM     39  C   UNL     1       5.821   3.841  13.857  0.00  0.00    +0.000 A 
ENDBRANCH  33  34
ENDBRANCH  12  33
TORSDOF 7
ENDMDL
MODEL 9
REMARK VINA RESULT:      -7.3      1.257      1.933
REMARK  Name = 
REMARK  9 active torsions:
REMARK  status: ('A' for Active; 'I' for Inactive)
REMARK    1  A    between atoms: C_1  and  C_2
REMARK    2  A    between atoms: C_2  and  N_3
REMARK    3  A    between atoms: C_4  and  C_6
REMARK    4  A    between atoms: C_8  and  N_9
REMARK    5  A    between atoms: N_14  and  C_15
REMARK    6  A    between atoms: C_20  and  C_21
REMARK    7  A    between atoms: C_21  and  C_22
REMARK    8  A    between atoms: C_32  and  O_33
REMARK    9  A    between atoms: C_34  and  O_35
REMARK                            x       y       z     vdW  Elec       q    Type
REMARK                         _______ _______ _______ _____ _____    ______ ____
ROOT
ATOM      1  N   UNL     1       4.868   4.175  17.643  0.00  0.00    +0.000 N 
ATOM      2  C   UNL     1       5.040   2.851  17.954  0.00  0.00    +0.000 A 
ATOM      3  N   UNL     1       4.316   2.492  18.993  0.00  0.00    +0.000 NA
ATOM      4  C   UNL     1       3.635   3.636  19.359  0.00  0.00    +0.000 A 
ATOM      5  C   UNL     1       2.726   3.901  20.401  0.00  0.00    +0.000 A 
ATOM      6  N   UNL     1       2.402   2.934  21.350  0.00  0.00    +0.000 N 
ATOM      7  C   UNL     1       1.070   2.967  21.915  0.00  0.00    +0.000 C 
ATOM      8  N   UNL     1       2.219   5.157  20.481  0.00  0.00    +0.000 NA
ATOM      9  C   UNL     1       2.587   6.103  19.576  0.00  0.00    +0.000 A 
ATOM     10  N   UNL     1       1.991   7.397  19.703  0.00  0.00    +0.000 N 
ATOM     11  C   UNL     1       2.116   8.467  18.839  0.00  0.00    +0.000 A 
ATOM     12  C   UNL     1       1.250   9.421  19.332  0.00  0.00    +0.000 A 
ATOM     13  N   UNL     1       0.684   8.949  20.489  0.00  0.00    +0.000 NA
ATOM     14  N   UNL     1       1.145   7.726  20.712  0.00  0.00    +0.000 NA
ATOM     15  N   UNL     1       3.453   5.934  18.544  0.00  0.00    +0.000 NA
ATOM     16  C   UNL     1       3.943   4.686  18.511  0.00  0.00    +0.000 A 
ATOM     17  H   UNL     1       2.734   2.014  21.067  0.00  0.00    +0.000 HD
ENDROOT
BRANCH   1  20
ATOM     18  C   UNL     1       5.825   4.811  14.291  0.00  0.00    +0.000 C 
ATOM     19  O   UNL     1       4.863   4.737  15.352  0.00  0.00    +0.000 OA
ATOM     20  C   UNL     1       5.572   4.889  16.598  0.00  0.00    +0.000 C 
ATOM     21  C   UNL     1       7.004   4.428  16.367  0.00  0.00    +0.000 C 
ATOM     22  C   UNL     1       7.230   4.805  14.910  0.00  0.00    +0.000 C 
BRANCH  18  24
ATOM     23  N   UNL     1       4.537   3.859  12.422  0.00  0.00    +0.000 N 
ATOM     24  C   UNL     1       5.663   3.728  13.209  0.00  0.00    +0.000 C 
ATOM     25  O   UNL     1       6.522   2.877  12.993  0.00  0.00    +0.000 OA
ATOM     26  H   UNL     1       3.833   4.545  12.674  0.00  0.00    +0.000 HD
BRANCH  23  28
ATOM     27  C   UNL     1       3.241   3.476  10.344  0.00  0.00    +0.000 C 
ATOM     28  C   UNL     1       4.356   3.009  11.261  0.00  0.00    +0.000 C 
ENDBRANCH  23  28
ENDBRANCH  18  24
BRANCH  21  29
ATOM     29  O   UNL     1       7.926   5.091  17.235  0.00  0.00    +0.000 OA
ATOM     30  H   UNL     1       8.198   4.421  17.901  0.00  0.00    +0.000 HD
ENDBRANCH  21  29
BRANCH  22  31
ATOM     31  O   UNL     1       7.868   6.101  14.879  0.00  0.00    +0.000 OA
ATOM     32  H   UNL     1       8.141   6.360  15.767  0.00  0.00    +0.000 HD
ENDBRANCH  22  31
ENDBRANCH   1  20
BRANCH  12  33
ATOM     33  C   UNL     1       0.804  10.710  18.748  0.00  0.00    +0.000 C 
BRANCH  33  34
ATOM     34  C   UNL     1       0.889  11.780  19.810  0.00  0.00    +0.000 A 
ATOM     35  C   UNL     1       2.019  12.610  19.869  0.00  0.00    +0.000 A 
ATOM     36  C   UNL     1       2.072  13.683  20.765  0.00  0.00    +0.000 A 
ATOM     37  C   UNL     1       1.000  13.933  21.614  0.00  0.00    +0.000 A 
ATOM     38  C   UNL     1      -0.127  13.114  21.574  0.00  0.00    +0.000 A 
ATOM     39  C   UNL     1      -0.185  12.046  20.673  0.00  0.00    +0.000 A 
ENDBRANCH  33  34
ENDBRANCH  12  33
TORSDOF 7
ENDMDL
