MODEL 1
REMARK VINA RESULT:      -7.6      0.000      0.000
REMARK  Name = 
REMARK  5 active torsions:
REMARK  status: ('A' for Active; 'I' for Inactive)
REMARK    1  A    between atoms: C_1  and  C_2
REMARK    2  A    between atoms: C_11  and  C_12
REMARK    3  A    between atoms: C_18  and  C_19
REMARK    4  A    between atoms: N_21  and  C_22
REMARK    5  A    between atoms: N_21  and  C_23
REMARK                            x       y       z     vdW  Elec       q    Type
REMARK                         _______ _______ _______ _____ _____    ______ ____
ROOT
ATOM      1  C   UNL     1       1.980   3.335  21.649  0.00  0.00    +0.000 C 
ATOM      2  C   UNL     1       2.391   4.459  20.735  0.00  0.00    +0.000 A 
ATOM      3  N   UNL     1       1.680   5.592  20.973  0.00  0.00    +0.000 NA
ATOM      4  C   UNL     1       1.855   6.656  20.199  0.00  0.00    +0.000 A 
ATOM      5  C   UNL     1       1.088   7.774  20.516  0.00  0.00    +0.000 A 
ATOM      6  C   UNL     1       1.185   8.965  19.803  0.00  0.00    +0.000 A 
ATOM      7  C   UNL     1       2.033   9.014  18.715  0.00  0.00    +0.000 A 
ATOM      8 CL   UNL     1       2.231  10.480  17.841  0.00  0.00    +0.000 Cl
ATOM      9  C   UNL     1       2.751   7.876  18.342  0.00  0.00    +0.000 A 
ATOM     10  C   UNL     1       2.745   6.669  19.108  0.00  0.00    +0.000 A 
ATOM     11  C   UNL     1       3.551   5.477  18.861  0.00  0.00    +0.000 A 
ATOM     12  C   UNL     1       3.371   4.360  19.728  0.00  0.00    +0.000 A 
ENDROOT
BRANCH  11  13
ATOM     13  C   UNL     1       4.501   5.464  17.697  0.00  0.00    +0.000 A 
ATOM     14  C   UNL     1       4.206   4.737  16.522  0.00  0.00    +0.000 A 
ATOM     15  C   UNL     1       5.138   4.571  15.496  0.00  0.00    +0.000 A 
ATOM     16  C   UNL     1       6.353   5.241  15.557  0.00  0.00    +0.000 A 
ATOM     17  C   UNL     1       6.626   6.066  16.643  0.00  0.00    +0.000 A 
ATOM     18  C   UNL     1       5.727   6.149  17.715  0.00  0.00    +0.000 A 
ENDBRANCH  11  13
BRANCH  12  19
ATOM     19  C   UNL     1       4.026   3.013  19.571  0.00  0.00    +0.000 C 
ATOM     20  O   UNL     1       5.096   2.866  20.161  0.00  0.00    +0.000 OA
ATOM     21  N   UNL     1       3.487   1.979  18.798  0.00  0.00    +0.000 N 
ATOM     22  C   UNL     1       4.268   0.750  18.656  0.00  0.00    +0.000 C 
ATOM     23  C   UNL     1       2.302   2.031  17.961  0.00  0.00    +0.000 C 
ENDBRANCH  12  19
TORSDOF 2
ENDMDL
MODEL 2
REMARK VINA RESULT:      -7.4      0.173      1.009
REMARK  Name = 
REMARK  5 active torsions:
REMARK  status: ('A' for Active; 'I' for Inactive)
REMARK    1  A    between atoms: C_1  and  C_2
REMARK    2  A    between atoms: C_11  and  C_12
REMARK    3  A    between atoms: C_18  and  C_19
REMARK    4  A    between atoms: N_21  and  C_22
REMARK    5  A    between atoms: N_21  and  C_23
REMARK                            x       y       z     vdW  Elec       q    Type
REMARK                         _______ _______ _______ _____ _____    ______ ____
ROOT
ATOM      1  C   UNL     1       1.933   3.213  21.591  0.00  0.00    +0.000 C 
ATOM      2  C   UNL     1       2.378   4.349  20.706  0.00  0.00    +0.000 A 
ATOM      3  N   UNL     1       1.660   5.479  20.933  0.00  0.00    +0.000 NA
ATOM      4  C   UNL     1       1.864   6.552  20.178  0.00  0.00    +0.000 A 
ATOM      5  C   UNL     1       1.087   7.668  20.480  0.00  0.00    +0.000 A 
ATOM      6  C   UNL     1       1.211   8.867  19.786  0.00  0.00    +0.000 A 
ATOM      7  C   UNL     1       2.097   8.928  18.730  0.00  0.00    +0.000 A 
ATOM      8 CL   UNL     1       2.327  10.405  17.881  0.00  0.00    +0.000 Cl
ATOM      9  C   UNL     1       2.826   7.793  18.369  0.00  0.00    +0.000 A 
ATOM     10  C   UNL     1       2.792   6.578  19.119  0.00  0.00    +0.000 A 
ATOM     11  C   UNL     1       3.605   5.387  18.887  0.00  0.00    +0.000 A 
ATOM     12  C   UNL     1       3.393   4.260  19.733  0.00  0.00    +0.000 A 
ENDROOT
BRANCH  11  13
ATOM     13  C   UNL     1       4.596   5.387  17.758  0.00  0.00    +0.000 A 
ATOM     14  C   UNL     1       5.877   5.963  17.912  0.00  0.00    +0.000 A 
ATOM     15  C   UNL     1       6.754   6.124  16.836  0.00  0.00    +0.000 A 
ATOM     16  C   UNL     1       6.426   5.592  15.597  0.00  0.00    +0.000 A 
ATOM     17  C   UNL     1       5.225   4.908  15.441  0.00  0.00    +0.000 A 
ATOM     18  C   UNL     1       4.307   4.836  16.498  0.00  0.00    +0.000 A 
ENDBRANCH  11  13
BRANCH  12  19
ATOM     19  C   UNL     1       4.052   2.914  19.583  0.00  0.00    +0.000 C 
ATOM     20  O   UNL     1       5.084   2.748  20.233  0.00  0.00    +0.000 OA
ATOM     21  N   UNL     1       3.557   1.901  18.754  0.00  0.00    +0.000 N 
ATOM     22  C   UNL     1       4.342   0.672  18.630  0.00  0.00    +0.000 C 
ATOM     23  C   UNL     1       2.425   1.979  17.849  0.00  0.00    +0.000 C 
ENDBRANCH  12  19
TORSDOF 2
ENDMDL
MODEL 3
REMARK VINA RESULT:      -7.1      2.134      4.850
REMARK  Name = 
REMARK  5 active torsions:
REMARK  status: ('A' for Active; 'I' for Inactive)
REMARK    1  A    between atoms: C_1  and  C_2
REMARK    2  A    between atoms: C_11  and  C_12
REMARK    3  A    between atoms: C_18  and  C_19
REMARK    4  A    between atoms: N_21  and  C_22
REMARK    5  A    between atoms: N_21  and  C_23
REMARK                            x       y       z     vdW  Elec       q    Type
REMARK                         _______ _______ _______ _____ _____    ______ ____
ROOT
ATOM      1  C   UNL     1       3.698   1.874  17.525  0.00  0.00    +0.000 C 
ATOM      2  C   UNL     1       4.019   3.345  17.595  0.00  0.00    +0.000 A 
ATOM      3  N   UNL     1       5.312   3.598  17.264  0.00  0.00    +0.000 NA
ATOM      4  C   UNL     1       5.786   4.834  17.356  0.00  0.00    +0.000 A 
ATOM      5  C   UNL     1       7.119   5.006  16.994  0.00  0.00    +0.000 A 
ATOM      6  C   UNL     1       7.741   6.250  17.021  0.00  0.00    +0.000 A 
ATOM      7  C   UNL     1       7.019   7.336  17.473  0.00  0.00    +0.000 A 
ATOM      8 CL   UNL     1       7.726   8.903  17.468  0.00  0.00    +0.000 Cl
ATOM      9  C   UNL     1       5.705   7.164  17.910  0.00  0.00    +0.000 A 
ATOM     10  C   UNL     1       5.009   5.920  17.806  0.00  0.00    +0.000 A 
ATOM     11  C   UNL     1       3.606   5.677  18.126  0.00  0.00    +0.000 A 
ATOM     12  C   UNL     1       3.110   4.348  17.985  0.00  0.00    +0.000 A 
ENDROOT
BRANCH  11  13
ATOM     13  C   UNL     1       2.759   6.818  18.617  0.00  0.00    +0.000 A 
ATOM     14  C   UNL     1       2.351   7.851  17.745  0.00  0.00    +0.000 A 
ATOM     15  C   UNL     1       1.707   9.002  18.205  0.00  0.00    +0.000 A 
ATOM     16  C   UNL     1       1.334   9.093  19.539  0.00  0.00    +0.000 A 
ATOM     17  C   UNL     1       1.610   8.037  20.401  0.00  0.00    +0.000 A 
ATOM     18  C   UNL     1       2.343   6.929  19.954  0.00  0.00    +0.000 A 
ENDBRANCH  11  13
BRANCH  12  19
ATOM     19  C   UNL     1       1.730   3.881  18.366  0.00  0.00    +0.000 C 
ATOM     20  O   UNL     1       0.870   3.983  17.491  0.00  0.00    +0.000 OA
ATOM     21  N   UNL     1       1.409   3.374  19.630  0.00  0.00    +0.000 N 
ATOM     22  C   UNL     1       0.011   3.039  19.900  0.00  0.00    +0.000 C 
ATOM     23  C   UNL     1       2.276   3.293  20.792  0.00  0.00    +0.000 C 
ENDBRANCH  12  19
TORSDOF 2
ENDMDL
MODEL 4
REMARK VINA RESULT:      -7.0      2.165      4.919
REMARK  Name = 
REMARK  5 active torsions:
REMARK  status: ('A' for Active; 'I' for Inactive)
REMARK    1  A    between atoms: C_1  and  C_2
REMARK    2  A    between atoms: C_11  and  C_12
REMARK    3  A    between atoms: C_18  and  C_19
REMARK    4  A    between atoms: N_21  and  C_22
REMARK    5  A    between atoms: N_21  and  C_23
REMARK                            x       y       z     vdW  Elec       q    Type
REMARK                         _______ _______ _______ _____ _____    ______ ____
ROOT
ATOM      1  C   UNL     1       3.682   2.001  17.409  0.00  0.00    +0.000 C 
ATOM      2  C   UNL     1       4.032   3.464  17.508  0.00  0.00    +0.000 A 
ATOM      3  N   UNL     1       5.330   3.697  17.185  0.00  0.00    +0.000 NA
ATOM      4  C   UNL     1       5.829   4.922  17.301  0.00  0.00    +0.000 A 
ATOM      5  C   UNL     1       7.167   5.073  16.946  0.00  0.00    +0.000 A 
ATOM      6  C   UNL     1       7.813   6.305  16.998  0.00  0.00    +0.000 A 
ATOM      7  C   UNL     1       7.112   7.396  17.469  0.00  0.00    +0.000 A 
ATOM      8 CL   UNL     1       7.850   8.948  17.495  0.00  0.00    +0.000 Cl
ATOM      9  C   UNL     1       5.793   7.242  17.900  0.00  0.00    +0.000 A 
ATOM     10  C   UNL     1       5.073   6.014  17.771  0.00  0.00    +0.000 A 
ATOM     11  C   UNL     1       3.664   5.794  18.083  0.00  0.00    +0.000 A 
ATOM     12  C   UNL     1       3.142   4.478  17.915  0.00  0.00    +0.000 A 
ENDROOT
BRANCH  11  13
ATOM     13  C   UNL     1       2.839   6.941  18.593  0.00  0.00    +0.000 A 
ATOM     14  C   UNL     1       2.456   7.016  19.951  0.00  0.00    +0.000 A 
ATOM     15  C   UNL     1       1.556   7.977  20.418  0.00  0.00    +0.000 A 
ATOM     16  C   UNL     1       1.113   8.976  19.562  0.00  0.00    +0.000 A 
ATOM     17  C   UNL     1       1.568   9.004  18.248  0.00  0.00    +0.000 A 
ATOM     18  C   UNL     1       2.393   7.981  17.761  0.00  0.00    +0.000 A 
ENDBRANCH  11  13
BRANCH  12  19
ATOM     19  C   UNL     1       1.752   4.031  18.284  0.00  0.00    +0.000 C 
ATOM     20  O   UNL     1       0.897   4.165  17.409  0.00  0.00    +0.000 OA
ATOM     21  N   UNL     1       1.418   3.509  19.538  0.00  0.00    +0.000 N 
ATOM     22  C   UNL     1       0.012   3.196  19.798  0.00  0.00    +0.000 C 
ATOM     23  C   UNL     1       2.279   3.390  20.701  0.00  0.00    +0.000 C 
ENDBRANCH  12  19
TORSDOF 2
ENDMDL
MODEL 5
REMARK VINA RESULT:      -6.5      2.937      5.839
REMARK  Name = 
REMARK  5 active torsions:
REMARK  status: ('A' for Active; 'I' for Inactive)
REMARK    1  A    between atoms: C_1  and  C_2
REMARK    2  A    between atoms: C_11  and  C_12
REMARK    3  A    between atoms: C_18  and  C_19
REMARK    4  A    between atoms: N_21  and  C_22
REMARK    5  A    between atoms: N_21  and  C_23
REMARK                            x       y       z     vdW  Elec       q    Type
REMARK                         _______ _______ _______ _____ _____    ______ ____
ROOT
ATOM      1  C   UNL     1       7.176   4.355  16.179  0.00  0.00    +0.000 C 
ATOM      2  C   UNL     1       5.851   4.452  16.889  0.00  0.00    +0.000 A 
ATOM      3  N   UNL     1       5.251   3.239  17.010  0.00  0.00    +0.000 NA
ATOM      4  C   UNL     1       4.035   3.155  17.535  0.00  0.00    +0.000 A 
ATOM      5  C   UNL     1       3.495   1.875  17.625  0.00  0.00    +0.000 A 
ATOM      6  C   UNL     1       2.239   1.636  18.174  0.00  0.00    +0.000 A 
ATOM      7  C   UNL     1       1.488   2.716  18.592  0.00  0.00    +0.000 A 
ATOM      8 CL   UNL     1      -0.043   2.466  19.331  0.00  0.00    +0.000 Cl
ATOM      9  C   UNL     1       1.987   4.011  18.438  0.00  0.00    +0.000 A 
ATOM     10  C   UNL     1       3.308   4.282  17.967  0.00  0.00    +0.000 A 
ATOM     11  C   UNL     1       3.952   5.590  17.886  0.00  0.00    +0.000 A 
ATOM     12  C   UNL     1       5.273   5.651  17.351  0.00  0.00    +0.000 A 
ENDROOT
BRANCH  11  13
ATOM     13  C   UNL     1       3.195   6.809  18.332  0.00  0.00    +0.000 A 
ATOM     14  C   UNL     1       2.748   6.941  19.666  0.00  0.00    +0.000 A 
ATOM     15  C   UNL     1       1.904   7.979  20.067  0.00  0.00    +0.000 A 
ATOM     16  C   UNL     1       1.587   8.992  19.172  0.00  0.00    +0.000 A 
ATOM     17  C   UNL     1       2.113   8.957  17.885  0.00  0.00    +0.000 A 
ATOM     18  C   UNL     1       2.878   7.863  17.460  0.00  0.00    +0.000 A 
ENDBRANCH  11  13
BRANCH  12  19
ATOM     19  C   UNL     1       6.056   6.909  17.088  0.00  0.00    +0.000 C 
ATOM     20  O   UNL     1       5.670   7.591  16.138  0.00  0.00    +0.000 OA
ATOM     21  N   UNL     1       7.166   7.299  17.844  0.00  0.00    +0.000 N 
ATOM     22  C   UNL     1       7.893   8.499  17.428  0.00  0.00    +0.000 C 
ATOM     23  C   UNL     1       7.806   6.557  18.915  0.00  0.00    +0.000 C 
ENDBRANCH  12  19
TORSDOF 2
ENDMDL
MODEL 6
REMARK VINA RESULT:      -6.1      7.369     10.676
REMARK  Name = 
REMARK  5 active torsions:
REMARK  status: ('A' for Active; 'I' for Inactive)
REMARK    1  A    between atoms: C_1  and  C_2
REMARK    2  A    between atoms: C_11  and  C_12
REMARK    3  A    between atoms: C_18  and  C_19
REMARK    4  A    between atoms: N_21  and  C_22
REMARK    5  A    between atoms: N_21  and  C_23
REMARK                            x       y       z     vdW  Elec       q    Type
REMARK                         _______ _______ _______ _____ _____    ______ ____
ROOT
ATOM      1  C   UNL     1      -2.459  10.912  16.449  0.00  0.00    +0.000 C 
ATOM      2  C   UNL     1      -3.086  11.365  17.742  0.00  0.00    +0.000 A 
ATOM      3  N   UNL     1      -4.427  11.150  17.758  0.00  0.00    +0.000 NA
ATOM      4  C   UNL     1      -5.150  11.569  18.789  0.00  0.00    +0.000 A 
ATOM      5  C   UNL     1      -6.516  11.305  18.725  0.00  0.00    +0.000 A 
ATOM      6  C   UNL     1      -7.390  11.668  19.745  0.00  0.00    +0.000 A 
ATOM      7  C   UNL     1      -6.886  12.361  20.828  0.00  0.00    +0.000 A 
ATOM      8 CL   UNL     1      -7.916  12.778  22.139  0.00  0.00    +0.000 Cl
ATOM      9  C   UNL     1      -5.532  12.699  20.867  0.00  0.00    +0.000 A 
ATOM     10  C   UNL     1      -4.593  12.259  19.884  0.00  0.00    +0.000 A 
ATOM     11  C   UNL     1      -3.148  12.462  19.907  0.00  0.00    +0.000 A 
ATOM     12  C   UNL     1      -2.388  11.971  18.806  0.00  0.00    +0.000 A 
ENDROOT
BRANCH  11  13
ATOM     13  C   UNL     1      -2.531  13.202  21.060  0.00  0.00    +0.000 A 
ATOM     14  C   UNL     1      -2.023  12.511  22.182  0.00  0.00    +0.000 A 
ATOM     15  C   UNL     1      -1.596  13.175  23.335  0.00  0.00    +0.000 A 
ATOM     16  C   UNL     1      -1.544  14.561  23.348  0.00  0.00    +0.000 A 
ATOM     17  C   UNL     1      -1.920  15.273  22.213  0.00  0.00    +0.000 A 
ATOM     18  C   UNL     1      -2.439  14.604  21.097  0.00  0.00    +0.000 A 
ENDBRANCH  11  13
BRANCH  12  19
ATOM     19  C   UNL     1      -0.911  12.177  18.597  0.00  0.00    +0.000 C 
ATOM     20  O   UNL     1      -0.596  13.191  17.972  0.00  0.00    +0.000 OA
ATOM     21  N   UNL     1       0.065  11.286  19.054  0.00  0.00    +0.000 N 
ATOM     22  C   UNL     1       1.460  11.558  18.707  0.00  0.00    +0.000 C 
ATOM     23  C   UNL     1      -0.148  10.005  19.703  0.00  0.00    +0.000 C 
ENDBRANCH  12  19
TORSDOF 2
ENDMDL
MODEL 7
REMARK VINA RESULT:      -6.1      8.405     11.750
REMARK  Name = 
REMARK  5 active torsions:
REMARK  status: ('A' for Active; 'I' for Inactive)
REMARK    1  A    between atoms: C_1  and  C_2
REMARK    2  A    between atoms: C_11  and  C_12
REMARK    3  A    between atoms: C_18  and  C_19
REMARK    4  A    between atoms: N_21  and  C_22
REMARK    5  A    between atoms: N_21  and  C_23
REMARK                            x       y       z     vdW  Elec       q    Type
REMARK                         _______ _______ _______ _____ _____    ______ ____
ROOT
ATOM      1  C   UNL     1      -7.249  12.557  17.770  0.00  0.00    +0.000 C 
ATOM      2  C   UNL     1      -5.819  12.378  18.210  0.00  0.00    +0.000 A 
ATOM      3  N   UNL     1      -5.139  11.533  17.392  0.00  0.00    +0.000 NA
ATOM      4  C   UNL     1      -3.889  11.196  17.684  0.00  0.00    +0.000 A 
ATOM      5  C   UNL     1      -3.266  10.329  16.790  0.00  0.00    +0.000 A 
ATOM      6  C   UNL     1      -1.950   9.909  16.960  0.00  0.00    +0.000 A 
ATOM      7  C   UNL     1      -1.265  10.331  18.081  0.00  0.00    +0.000 A 
ATOM      8 CL   UNL     1       0.381   9.887  18.303  0.00  0.00    +0.000 Cl
ATOM      9  C   UNL     1      -1.903  11.139  19.024  0.00  0.00    +0.000 A 
ATOM     10  C   UNL     1      -3.219  11.663  18.832  0.00  0.00    +0.000 A 
ATOM     11  C   UNL     1      -3.917  12.605  19.701  0.00  0.00    +0.000 A 
ATOM     12  C   UNL     1      -5.246  12.980  19.348  0.00  0.00    +0.000 A 
ENDROOT
BRANCH  11  13
ATOM     13  C   UNL     1      -3.226  13.111  20.936  0.00  0.00    +0.000 A 
ATOM     14  C   UNL     1      -2.395  14.252  20.892  0.00  0.00    +0.000 A 
ATOM     15  C   UNL     1      -1.614  14.646  21.980  0.00  0.00    +0.000 A 
ATOM     16  C   UNL     1      -1.742  13.984  23.193  0.00  0.00    +0.000 A 
ATOM     17  C   UNL     1      -2.645  12.931  23.307  0.00  0.00    +0.000 A 
ATOM     18  C   UNL     1      -3.352  12.480  22.185  0.00  0.00    +0.000 A 
ENDBRANCH  11  13
BRANCH  12  19
ATOM     19  C   UNL     1      -6.161  13.850  20.169  0.00  0.00    +0.000 C 
ATOM     20  O   UNL     1      -6.073  15.061  19.965  0.00  0.00    +0.000 OA
ATOM     21  N   UNL     1      -7.052  13.347  21.122  0.00  0.00    +0.000 N 
ATOM     22  C   UNL     1      -7.821  14.306  21.917  0.00  0.00    +0.000 C 
ATOM     23  C   UNL     1      -7.194  11.968  21.554  0.00  0.00    +0.000 C 
ENDBRANCH  12  19
TORSDOF 2
ENDMDL
MODEL 8
REMARK VINA RESULT:      -6.0      8.419     11.780
REMARK  Name = 
REMARK  5 active torsions:
REMARK  status: ('A' for Active; 'I' for Inactive)
REMARK    1  A    between atoms: C_1  and  C_2
REMARK    2  A    between atoms: C_11  and  C_12
REMARK    3  A    between atoms: C_18  and  C_19
REMARK    4  A    between atoms: N_21  and  C_22
REMARK    5  A    between atoms: N_21  and  C_23
REMARK                            x       y       z     vdW  Elec       q    Type
REMARK                         _______ _______ _______ _____ _____    ______ ____
ROOT
ATOM      1  C   UNL     1      -7.218  12.649  17.690  0.00  0.00    +0.000 C 
ATOM      2  C   UNL     1      -5.797  12.441  18.145  0.00  0.00    +0.000 A 
ATOM      3  N   UNL     1      -5.119  11.600  17.320  0.00  0.00    +0.000 NA
ATOM      4  C   UNL     1      -3.877  11.240  17.623  0.00  0.00    +0.000 A 
ATOM      5  C   UNL     1      -3.255  10.379  16.722  0.00  0.00    +0.000 A 
ATOM      6  C   UNL     1      -1.948   9.938  16.902  0.00  0.00    +0.000 A 
ATOM      7  C   UNL     1      -1.272  10.328  18.040  0.00  0.00    +0.000 A 
ATOM      8 CL   UNL     1       0.364   9.856  18.275  0.00  0.00    +0.000 Cl
ATOM      9  C   UNL     1      -1.911  11.129  18.988  0.00  0.00    +0.000 A 
ATOM     10  C   UNL     1      -3.216  11.675  18.788  0.00  0.00    +0.000 A 
ATOM     11  C   UNL     1      -3.912  12.612  19.665  0.00  0.00    +0.000 A 
ATOM     12  C   UNL     1      -5.231  13.014  19.301  0.00  0.00    +0.000 A 
ENDROOT
BRANCH  11  13
ATOM     13  C   UNL     1      -3.231  13.085  20.919  0.00  0.00    +0.000 A 
ATOM     14  C   UNL     1      -3.408  12.406  22.145  0.00  0.00    +0.000 A 
ATOM     15  C   UNL     1      -2.925  12.915  23.353  0.00  0.00    +0.000 A 
ATOM     16  C   UNL     1      -2.134  14.055  23.350  0.00  0.00    +0.000 A 
ATOM     17  C   UNL     1      -1.836  14.680  22.143  0.00  0.00    +0.000 A 
ATOM     18  C   UNL     1      -2.405  14.221  20.948  0.00  0.00    +0.000 A 
ENDBRANCH  11  13
BRANCH  12  19
ATOM     19  C   UNL     1      -6.144  13.881  20.126  0.00  0.00    +0.000 C 
ATOM     20  O   UNL     1      -6.074  15.091  19.907  0.00  0.00    +0.000 OA
ATOM     21  N   UNL     1      -7.014  13.379  21.098  0.00  0.00    +0.000 N 
ATOM     22  C   UNL     1      -7.783  14.338  21.893  0.00  0.00    +0.000 C 
ATOM     23  C   UNL     1      -7.134  12.004  21.547  0.00  0.00    +0.000 C 
ENDBRANCH  12  19
TORSDOF 2
ENDMDL
MODEL 9
REMARK VINA RESULT:      -6.0      2.435      4.570
REMARK  Name = 
REMARK  5 active torsions:
REMARK  status: ('A' for Active; 'I' for Inactive)
REMARK    1  A    between atoms: C_1  and  C_2
REMARK    2  A    between atoms: C_11  and  C_12
REMARK    3  A    between atoms: C_18  and  C_19
REMARK    4  A    between atoms: N_21  and  C_22
REMARK    5  A    between atoms: N_21  and  C_23
REMARK                            x       y       z     vdW  Elec       q    Type
REMARK                         _______ _______ _______ _____ _____    ______ ____
ROOT
ATOM      1  C   UNL     1       4.282   7.469  16.379  0.00  0.00    +0.000 C 
ATOM      2  C   UNL     1       3.341   7.303  17.544  0.00  0.00    +0.000 A 
ATOM      3  N   UNL     1       2.840   8.494  17.963  0.00  0.00    +0.000 NA
ATOM      4  C   UNL     1       2.060   8.540  19.036  0.00  0.00    +0.000 A 
ATOM      5  C   UNL     1       1.586   9.800  19.394  0.00  0.00    +0.000 A 
ATOM      6  C   UNL     1       0.743   9.993  20.483  0.00  0.00    +0.000 A 
ATOM      7  C   UNL     1       0.411   8.901  21.260  0.00  0.00    +0.000 A 
ATOM      8 CL   UNL     1      -0.675   9.081  22.580  0.00  0.00    +0.000 Cl
ATOM      9  C   UNL     1       0.940   7.645  20.957  0.00  0.00    +0.000 A 
ATOM     10  C   UNL     1       1.731   7.398  19.792  0.00  0.00    +0.000 A 
ATOM     11  C   UNL     1       2.225   6.103  19.334  0.00  0.00    +0.000 A 
ATOM     12  C   UNL     1       3.031   6.074  18.159  0.00  0.00    +0.000 A 
ENDROOT
BRANCH  11  13
ATOM     13  C   UNL     1       1.895   4.870  20.129  0.00  0.00    +0.000 A 
ATOM     14  C   UNL     1       2.558   4.587  21.343  0.00  0.00    +0.000 A 
ATOM     15  C   UNL     1       2.393   3.374  22.016  0.00  0.00    +0.000 A 
ATOM     16  C   UNL     1       1.455   2.458  21.559  0.00  0.00    +0.000 A 
ATOM     17  C   UNL     1       0.694   2.760  20.434  0.00  0.00    +0.000 A 
ATOM     18  C   UNL     1       0.935   3.935  19.709  0.00  0.00    +0.000 A 
ENDBRANCH  11  13
BRANCH  12  19
ATOM     19  C   UNL     1       3.717   4.859  17.594  0.00  0.00    +0.000 C 
ATOM     20  O   UNL     1       3.036   4.160  16.843  0.00  0.00    +0.000 OA
ATOM     21  N   UNL     1       5.037   4.508  17.897  0.00  0.00    +0.000 N 
ATOM     22  C   UNL     1       5.556   3.253  17.352  0.00  0.00    +0.000 C 
ATOM     23  C   UNL     1       5.927   5.160  18.840  0.00  0.00    +0.000 C 
ENDBRANCH  12  19
TORSDOF 2
ENDMDL
