MODEL 1
REMARK VINA RESULT:      -8.8      0.000      0.000
REMARK  Name = 
REMARK  12 active torsions:
REMARK  status: ('A' for Active; 'I' for Inactive)
REMARK    1  A    between atoms: C_1  and  C_2
REMARK    2  A    between atoms: C_2  and  C_3
REMARK    3  A    between atoms: C_3  and  C_4
REMARK    4  A    between atoms: N_5  and  C_6
REMARK    5  A    between atoms: C_13  and  C_14
REMARK    6  A    between atoms: C_14  and  C_15
REMARK    7  A    between atoms: C_15  and  C_16
REMARK    8  A    between atoms: C_16  and  C_17
REMARK    9  A    between atoms: N_18  and  C_19
REMARK   10  A    between atoms: C_19  and  C_20
REMARK   11  A    between atoms: C_23  and  C_24
REMARK   12  A    between atoms: C_29  and  C_30
REMARK                            x       y       z     vdW  Elec       q    Type
REMARK                         _______ _______ _______ _____ _____    ______ ____
ROOT
ATOM      1  C   UNL     1       3.203   5.890  20.024  0.00  0.00    +0.000 C 
ENDROOT
BRANCH   1  10
ATOM      2  C   UNL     1       6.292   4.829  15.905  0.00  0.00    +0.000 A 
ATOM      3  C   UNL     1       6.648   5.552  17.051  0.00  0.00    +0.000 A 
ATOM      4  C   UNL     1       5.776   5.708  18.140  0.00  0.00    +0.000 A 
ATOM      5  C   UNL     1       4.514   5.102  18.027  0.00  0.00    +0.000 A 
ATOM      6  C   UNL     1       4.155   4.342  16.926  0.00  0.00    +0.000 A 
ATOM      7  C   UNL     1       5.050   4.189  15.864  0.00  0.00    +0.000 A 
ATOM      8  N   UNL     1       2.893   3.828  17.065  0.00  0.00    +0.000 NA
ATOM      9  C   UNL     1       2.466   4.232  18.239  0.00  0.00    +0.000 A 
ATOM     10  N   UNL     1       3.395   5.070  18.834  0.00  0.00    +0.000 N 
BRANCH   2  12
ATOM     11  C   UNL     1       6.796   4.890  13.645  0.00  0.00    +0.000 C 
ATOM     12  N   UNL     1       7.223   4.729  14.852  0.00  0.00    +0.000 NA
BRANCH  11  13
ATOM     13  C   UNL     1       7.704   4.714  12.465  0.00  0.00    +0.000 C 
BRANCH  13  15
ATOM     14  C   UNL     1       5.865   3.065  11.991  0.00  0.00    +0.000 C 
ATOM     15  C   UNL     1       7.296   3.474  11.681  0.00  0.00    +0.000 C 
ENDBRANCH  13  15
ENDBRANCH  11  13
ENDBRANCH   2  12
BRANCH   9  16
ATOM     16  C   UNL     1       1.139   3.870  18.837  0.00  0.00    +0.000 C 
BRANCH  16  17
ATOM     17  C   UNL     1       1.107   2.476  19.478  0.00  0.00    +0.000 C 
BRANCH  17  18
ATOM     18  C   UNL     1       2.184   2.246  20.543  0.00  0.00    +0.000 C 
ATOM     19  C   UNL     1       1.856   3.002  21.825  0.00  0.00    +0.000 C 
ENDBRANCH  17  18
ENDBRANCH  16  17
ENDBRANCH   9  16
ENDBRANCH   1  10
BRANCH   1  20
ATOM     20  C   UNL     1       2.448   7.166  19.755  0.00  0.00    +0.000 A 
ATOM     21  C   UNL     1       1.641   7.773  20.720  0.00  0.00    +0.000 A 
ATOM     22  C   UNL     1       0.839   8.869  20.389  0.00  0.00    +0.000 A 
ATOM     23  C   UNL     1       0.757   9.347  19.074  0.00  0.00    +0.000 A 
ATOM     24  C   UNL     1       1.696   8.833  18.159  0.00  0.00    +0.000 A 
ATOM     25  C   UNL     1       2.545   7.775  18.499  0.00  0.00    +0.000 A 
BRANCH  23  26
ATOM     26  C   UNL     1      -0.304  10.299  18.636  0.00  0.00    +0.000 A 
ATOM     27  C   UNL     1      -1.400   9.803  17.895  0.00  0.00    +0.000 A 
ATOM     28  C   UNL     1      -2.455  10.621  17.486  0.00  0.00    +0.000 A 
ATOM     29  C   UNL     1      -2.441  11.973  17.793  0.00  0.00    +0.000 A 
ATOM     30  C   UNL     1      -1.379  12.505  18.520  0.00  0.00    +0.000 A 
ATOM     31  C   UNL     1      -0.307  11.691  18.959  0.00  0.00    +0.000 A 
BRANCH  31  32
ATOM     32  C   UNL     1       0.747  12.342  19.743  0.00  0.00    +0.000 A 
ATOM     33  N   UNL     1       0.912  12.377  21.052  0.00  0.00    +0.000 NA
ATOM     34  N   UNL     1       2.119  12.988  21.282  0.00  0.00    +0.000 NA
ATOM     35  N   UNL     1       2.680  13.373  20.144  0.00  0.00    +0.000 NA
ATOM     36  N   UNL     1       1.817  13.002  19.193  0.00  0.00    +0.000 N 
ATOM     37  H   UNL     1       2.027  13.192  18.224  0.00  0.00    +0.000 HD
ENDBRANCH  31  32
ENDBRANCH  23  26
ENDBRANCH   1  20
TORSDOF 10
ENDMDL
MODEL 2
REMARK VINA RESULT:      -8.7      2.051      2.820
REMARK  Name = 
REMARK  12 active torsions:
REMARK  status: ('A' for Active; 'I' for Inactive)
REMARK    1  A    between atoms: C_1  and  C_2
REMARK    2  A    between atoms: C_2  and  C_3
REMARK    3  A    between atoms: C_3  and  C_4
REMARK    4  A    between atoms: N_5  and  C_6
REMARK    5  A    between atoms: C_13  and  C_14
REMARK    6  A    between atoms: C_14  and  C_15
REMARK    7  A    between atoms: C_15  and  C_16
REMARK    8  A    between atoms: C_16  and  C_17
REMARK    9  A    between atoms: N_18  and  C_19
REMARK   10  A    between atoms: C_19  and  C_20
REMARK   11  A    between atoms: C_23  and  C_24
REMARK   12  A    between atoms: C_29  and  C_30
REMARK                            x       y       z     vdW  Elec       q    Type
REMARK                         _______ _______ _______ _____ _____    ______ ____
ROOT
ATOM      1  C   UNL     1       2.796   6.237  20.312  0.00  0.00    +0.000 C 
ENDROOT
BRANCH   1  10
ATOM      2  C   UNL     1       5.436   4.641  16.056  0.00  0.00    +0.000 A 
ATOM      3  C   UNL     1       5.879   5.557  17.019  0.00  0.00    +0.000 A 
ATOM      4  C   UNL     1       5.134   5.855  18.170  0.00  0.00    +0.000 A 
ATOM      5  C   UNL     1       3.908   5.186  18.316  0.00  0.00    +0.000 A 
ATOM      6  C   UNL     1       3.468   4.240  17.404  0.00  0.00    +0.000 A 
ATOM      7  C   UNL     1       4.239   3.951  16.275  0.00  0.00    +0.000 A 
ATOM      8  N   UNL     1       2.265   3.704  17.782  0.00  0.00    +0.000 NA
ATOM      9  C   UNL     1       1.957   4.279  18.922  0.00  0.00    +0.000 A 
ATOM     10  N   UNL     1       2.896   5.241  19.253  0.00  0.00    +0.000 N 
BRANCH   2  12
ATOM     11  C   UNL     1       5.660   4.042  13.830  0.00  0.00    +0.000 C 
ATOM     12  N   UNL     1       6.240   4.407  14.924  0.00  0.00    +0.000 NA
BRANCH  11  13
ATOM     13  C   UNL     1       6.450   3.691  12.605  0.00  0.00    +0.000 C 
BRANCH  13  15
ATOM     14  C   UNL     1       4.294   3.217  11.401  0.00  0.00    +0.000 C 
ATOM     15  C   UNL     1       5.673   2.690  11.761  0.00  0.00    +0.000 C 
ENDBRANCH  13  15
ENDBRANCH  11  13
ENDBRANCH   2  12
BRANCH   9  16
ATOM     16  C   UNL     1       0.734   3.965  19.733  0.00  0.00    +0.000 C 
BRANCH  16  17
ATOM     17  C   UNL     1       0.931   2.817  20.731  0.00  0.00    +0.000 C 
BRANCH  17  18
ATOM     18  C   UNL     1       2.110   3.008  21.690  0.00  0.00    +0.000 C 
ATOM     19  C   UNL     1       3.342   2.259  21.198  0.00  0.00    +0.000 C 
ENDBRANCH  17  18
ENDBRANCH  16  17
ENDBRANCH   9  16
ENDBRANCH   1  10
BRANCH   1  20
ATOM     20  C   UNL     1       2.086   7.496  19.883  0.00  0.00    +0.000 A 
ATOM     21  C   UNL     1       2.258   8.055  18.614  0.00  0.00    +0.000 A 
ATOM     22  C   UNL     1       1.703   9.300  18.304  0.00  0.00    +0.000 A 
ATOM     23  C   UNL     1       1.026  10.060  19.266  0.00  0.00    +0.000 A 
ATOM     24  C   UNL     1       0.721   9.413  20.479  0.00  0.00    +0.000 A 
ATOM     25  C   UNL     1       1.223   8.142  20.776  0.00  0.00    +0.000 A 
BRANCH  23  26
ATOM     26  C   UNL     1       0.697  11.500  19.057  0.00  0.00    +0.000 A 
ATOM     27  C   UNL     1       1.647  12.477  19.436  0.00  0.00    +0.000 A 
ATOM     28  C   UNL     1       1.433  13.842  19.234  0.00  0.00    +0.000 A 
ATOM     29  C   UNL     1       0.250  14.278  18.657  0.00  0.00    +0.000 A 
ATOM     30  C   UNL     1      -0.714  13.350  18.271  0.00  0.00    +0.000 A 
ATOM     31  C   UNL     1      -0.512  11.960  18.452  0.00  0.00    +0.000 A 
BRANCH  31  32
ATOM     32  C   UNL     1      -1.574  11.065  17.983  0.00  0.00    +0.000 A 
ATOM     33  N   UNL     1      -1.497  10.040  17.157  0.00  0.00    +0.000 NA
ATOM     34  N   UNL     1      -2.734   9.444  17.150  0.00  0.00    +0.000 NA
ATOM     35  N   UNL     1      -3.585  10.109  17.917  0.00  0.00    +0.000 NA
ATOM     36  N   UNL     1      -2.877  11.132  18.409  0.00  0.00    +0.000 N 
ATOM     37  H   UNL     1      -3.318  11.793  19.032  0.00  0.00    +0.000 HD
ENDBRANCH  31  32
ENDBRANCH  23  26
ENDBRANCH   1  20
TORSDOF 10
ENDMDL
MODEL 3
REMARK VINA RESULT:      -8.7      1.021      1.288
REMARK  Name = 
REMARK  12 active torsions:
REMARK  status: ('A' for Active; 'I' for Inactive)
REMARK    1  A    between atoms: C_1  and  C_2
REMARK    2  A    between atoms: C_2  and  C_3
REMARK    3  A    between atoms: C_3  and  C_4
REMARK    4  A    between atoms: N_5  and  C_6
REMARK    5  A    between atoms: C_13  and  C_14
REMARK    6  A    between atoms: C_14  and  C_15
REMARK    7  A    between atoms: C_15  and  C_16
REMARK    8  A    between atoms: C_16  and  C_17
REMARK    9  A    between atoms: N_18  and  C_19
REMARK   10  A    between atoms: C_19  and  C_20
REMARK   11  A    between atoms: C_23  and  C_24
REMARK   12  A    between atoms: C_29  and  C_30
REMARK                            x       y       z     vdW  Elec       q    Type
REMARK                         _______ _______ _______ _____ _____    ______ ____
ROOT
ATOM      1  C   UNL     1       3.290   6.498  19.886  0.00  0.00    +0.000 C 
ENDROOT
BRANCH   1  10
ATOM      2  C   UNL     1       5.659   4.623  15.584  0.00  0.00    +0.000 A 
ATOM      3  C   UNL     1       6.180   5.565  16.482  0.00  0.00    +0.000 A 
ATOM      4  C   UNL     1       5.504   5.939  17.653  0.00  0.00    +0.000 A 
ATOM      5  C   UNL     1       4.265   5.321  17.889  0.00  0.00    +0.000 A 
ATOM      6  C   UNL     1       3.749   4.352  17.043  0.00  0.00    +0.000 A 
ATOM      7  C   UNL     1       4.453   3.987  15.892  0.00  0.00    +0.000 A 
ATOM      8  N   UNL     1       2.550   3.876  17.502  0.00  0.00    +0.000 NA
ATOM      9  C   UNL     1       2.318   4.511  18.629  0.00  0.00    +0.000 A 
ATOM     10  N   UNL     1       3.304   5.453  18.870  0.00  0.00    +0.000 N 
BRANCH   2  12
ATOM     11  C   UNL     1       5.775   3.766  13.435  0.00  0.00    +0.000 C 
ATOM     12  N   UNL     1       6.397   4.312  14.426  0.00  0.00    +0.000 NA
BRANCH  11  13
ATOM     13  C   UNL     1       6.503   3.326  12.201  0.00  0.00    +0.000 C 
BRANCH  13  15
ATOM     14  C   UNL     1       6.496   1.080  11.071  0.00  0.00    +0.000 C 
ATOM     15  C   UNL     1       5.669   2.296  11.451  0.00  0.00    +0.000 C 
ENDBRANCH  13  15
ENDBRANCH  11  13
ENDBRANCH   2  12
BRANCH   9  16
ATOM     16  C   UNL     1       1.128   4.277  19.511  0.00  0.00    +0.000 C 
BRANCH  16  17
ATOM     17  C   UNL     1       1.206   2.978  20.326  0.00  0.00    +0.000 C 
BRANCH  17  18
ATOM     18  C   UNL     1       2.267   2.989  21.431  0.00  0.00    +0.000 C 
ATOM     19  C   UNL     1       3.585   2.414  20.930  0.00  0.00    +0.000 C 
ENDBRANCH  17  18
ENDBRANCH  16  17
ENDBRANCH   9  16
ENDBRANCH   1  10
BRANCH   1  20
ATOM     20  C   UNL     1       2.335   7.622  19.575  0.00  0.00    +0.000 A 
ATOM     21  C   UNL     1       1.455   8.139  20.528  0.00  0.00    +0.000 A 
ATOM     22  C   UNL     1       0.483   9.075  20.164  0.00  0.00    +0.000 A 
ATOM     23  C   UNL     1       0.307   9.468  18.831  0.00  0.00    +0.000 A 
ATOM     24  C   UNL     1       1.302   9.066  17.920  0.00  0.00    +0.000 A 
ATOM     25  C   UNL     1       2.315   8.175  18.290  0.00  0.00    +0.000 A 
BRANCH  23  26
ATOM     26  C   UNL     1      -0.900  10.216  18.373  0.00  0.00    +0.000 A 
ATOM     27  C   UNL     1      -1.581   9.766  17.218  0.00  0.00    +0.000 A 
ATOM     28  C   UNL     1      -2.742  10.385  16.750  0.00  0.00    +0.000 A 
ATOM     29  C   UNL     1      -3.255  11.488  17.416  0.00  0.00    +0.000 A 
ATOM     30  C   UNL     1      -2.614  11.966  18.556  0.00  0.00    +0.000 A 
ATOM     31  C   UNL     1      -1.444  11.345  19.058  0.00  0.00    +0.000 A 
BRANCH  31  32
ATOM     32  C   UNL     1      -0.864  11.905  20.282  0.00  0.00    +0.000 A 
ATOM     33  N   UNL     1      -1.266  11.776  21.531  0.00  0.00    +0.000 NA
ATOM     34  N   UNL     1      -0.311  12.370  22.318  0.00  0.00    +0.000 NA
ATOM     35  N   UNL     1       0.648  12.905  21.577  0.00  0.00    +0.000 NA
ATOM     36  N   UNL     1       0.291  12.646  20.315  0.00  0.00    +0.000 N 
ATOM     37  H   UNL     1       0.875  12.962  19.554  0.00  0.00    +0.000 HD
ENDBRANCH  31  32
ENDBRANCH  23  26
ENDBRANCH   1  20
TORSDOF 10
ENDMDL
MODEL 4
REMARK VINA RESULT:      -8.4      3.023     10.178
REMARK  Name = 
REMARK  12 active torsions:
REMARK  status: ('A' for Active; 'I' for Inactive)
REMARK    1  A    between atoms: C_1  and  C_2
REMARK    2  A    between atoms: C_2  and  C_3
REMARK    3  A    between atoms: C_3  and  C_4
REMARK    4  A    between atoms: N_5  and  C_6
REMARK    5  A    between atoms: C_13  and  C_14
REMARK    6  A    between atoms: C_14  and  C_15
REMARK    7  A    between atoms: C_15  and  C_16
REMARK    8  A    between atoms: C_16  and  C_17
REMARK    9  A    between atoms: N_18  and  C_19
REMARK   10  A    between atoms: C_19  and  C_20
REMARK   11  A    between atoms: C_23  and  C_24
REMARK   12  A    between atoms: C_29  and  C_30
REMARK                            x       y       z     vdW  Elec       q    Type
REMARK                         _______ _______ _______ _____ _____    ______ ____
ROOT
ATOM      1  C   UNL     1       1.587  10.340  18.012  0.00  0.00    +0.000 C 
ENDROOT
BRANCH   1  10
ATOM      2  C   UNL     1      -3.638  10.894  17.855  0.00  0.00    +0.000 A 
ATOM      3  C   UNL     1      -2.871   9.986  17.111  0.00  0.00    +0.000 A 
ATOM      4  C   UNL     1      -1.485   9.855  17.287  0.00  0.00    +0.000 A 
ATOM      5  C   UNL     1      -0.893  10.683  18.254  0.00  0.00    +0.000 A 
ATOM      6  C   UNL     1      -1.634  11.555  19.036  0.00  0.00    +0.000 A 
ATOM      7  C   UNL     1      -3.015  11.653  18.850  0.00  0.00    +0.000 A 
ATOM      8  N   UNL     1      -0.838  12.226  19.926  0.00  0.00    +0.000 NA
ATOM      9  C   UNL     1       0.380  11.775  19.731  0.00  0.00    +0.000 A 
ATOM     10  N   UNL     1       0.407  10.882  18.673  0.00  0.00    +0.000 N 
BRANCH   2  12
ATOM     11  C   UNL     1      -5.669  11.986  18.075  0.00  0.00    +0.000 C 
ATOM     12  N   UNL     1      -5.022  10.972  17.608  0.00  0.00    +0.000 NA
BRANCH  11  13
ATOM     13  C   UNL     1      -7.156  12.100  17.931  0.00  0.00    +0.000 C 
BRANCH  13  15
ATOM     14  C   UNL     1      -6.609  14.380  18.840  0.00  0.00    +0.000 C 
ATOM     15  C   UNL     1      -7.568  13.565  17.988  0.00  0.00    +0.000 C 
ENDBRANCH  13  15
ENDBRANCH  11  13
ENDBRANCH   2  12
BRANCH   9  16
ATOM     16  C   UNL     1       1.584  12.200  20.519  0.00  0.00    +0.000 C 
BRANCH  16  17
ATOM     17  C   UNL     1       1.899  13.698  20.411  0.00  0.00    +0.000 C 
BRANCH  17  18
ATOM     18  C   UNL     1       1.948  14.231  18.975  0.00  0.00    +0.000 C 
ATOM     19  C   UNL     1       1.001  15.411  18.797  0.00  0.00    +0.000 C 
ENDBRANCH  17  18
ENDBRANCH  16  17
ENDBRANCH   9  16
ENDBRANCH   1  10
BRANCH   1  20
ATOM     20  C   UNL     1       1.997   8.987  18.537  0.00  0.00    +0.000 A 
ATOM     21  C   UNL     1       2.636   8.038  17.735  0.00  0.00    +0.000 A 
ATOM     22  C   UNL     1       2.866   6.744  18.211  0.00  0.00    +0.000 A 
ATOM     23  C   UNL     1       2.401   6.332  19.467  0.00  0.00    +0.000 A 
ATOM     24  C   UNL     1       1.911   7.341  20.318  0.00  0.00    +0.000 A 
ATOM     25  C   UNL     1       1.733   8.654  19.870  0.00  0.00    +0.000 A 
BRANCH  23  26
ATOM     26  C   UNL     1       2.358   4.897  19.870  0.00  0.00    +0.000 A 
ATOM     27  C   UNL     1       1.154   4.372  20.392  0.00  0.00    +0.000 A 
ATOM     28  C   UNL     1       1.019   3.029  20.752  0.00  0.00    +0.000 A 
ATOM     29  C   UNL     1       2.096   2.166  20.614  0.00  0.00    +0.000 A 
ATOM     30  C   UNL     1       3.302   2.641  20.106  0.00  0.00    +0.000 A 
ATOM     31  C   UNL     1       3.456   3.995  19.720  0.00  0.00    +0.000 A 
BRANCH  31  32
ATOM     32  C   UNL     1       4.755   4.388  19.167  0.00  0.00    +0.000 A 
ATOM     33  N   UNL     1       5.737   5.059  19.739  0.00  0.00    +0.000 NA
ATOM     34  N   UNL     1       6.790   5.045  18.859  0.00  0.00    +0.000 NA
ATOM     35  N   UNL     1       6.463   4.421  17.737  0.00  0.00    +0.000 NA
ATOM     36  N   UNL     1       5.193   4.041  17.913  0.00  0.00    +0.000 N 
ATOM     37  H   UNL     1       4.714   3.539  17.180  0.00  0.00    +0.000 HD
ENDBRANCH  31  32
ENDBRANCH  23  26
ENDBRANCH   1  20
TORSDOF 10
ENDMDL
MODEL 5
REMARK VINA RESULT:      -8.3      2.993     10.158
REMARK  Name = 
REMARK  12 active torsions:
REMARK  status: ('A' for Active; 'I' for Inactive)
REMARK    1  A    between atoms: C_1  and  C_2
REMARK    2  A    between atoms: C_2  and  C_3
REMARK    3  A    between atoms: C_3  and  C_4
REMARK    4  A    between atoms: N_5  and  C_6
REMARK    5  A    between atoms: C_13  and  C_14
REMARK    6  A    between atoms: C_14  and  C_15
REMARK    7  A    between atoms: C_15  and  C_16
REMARK    8  A    between atoms: C_16  and  C_17
REMARK    9  A    between atoms: N_18  and  C_19
REMARK   10  A    between atoms: C_19  and  C_20
REMARK   11  A    between atoms: C_23  and  C_24
REMARK   12  A    between atoms: C_29  and  C_30
REMARK                            x       y       z     vdW  Elec       q    Type
REMARK                         _______ _______ _______ _____ _____    ______ ____
ROOT
ATOM      1  C   UNL     1       1.648  10.359  17.967  0.00  0.00    +0.000 C 
ENDROOT
BRANCH   1  10
ATOM      2  C   UNL     1      -3.537  11.185  18.225  0.00  0.00    +0.000 A 
ATOM      3  C   UNL     1      -2.883  10.220  17.447  0.00  0.00    +0.000 A 
ATOM      4  C   UNL     1      -1.496  10.020  17.513  0.00  0.00    +0.000 A 
ATOM      5  C   UNL     1      -0.783  10.839  18.402  0.00  0.00    +0.000 A 
ATOM      6  C   UNL     1      -1.411  11.768  19.217  0.00  0.00    +0.000 A 
ATOM      7  C   UNL     1      -2.796  11.934  19.143  0.00  0.00    +0.000 A 
ATOM      8  N   UNL     1      -0.510  12.418  20.019  0.00  0.00    +0.000 NA
ATOM      9  C   UNL     1       0.663  11.898  19.738  0.00  0.00    +0.000 A 
ATOM     10  N   UNL     1       0.556  10.980  18.708  0.00  0.00    +0.000 N 
BRANCH   2  12
ATOM     11  C   UNL     1      -5.646  11.380  19.165  0.00  0.00    +0.000 C 
ATOM     12  N   UNL     1      -4.932  11.329  18.091  0.00  0.00    +0.000 NA
BRANCH  11  13
ATOM     13  C   UNL     1      -7.142  11.447  19.107  0.00  0.00    +0.000 C 
BRANCH  13  15
ATOM     14  C   UNL     1      -7.630   9.464  20.575  0.00  0.00    +0.000 C 
ATOM     15  C   UNL     1      -7.729  10.973  20.431  0.00  0.00    +0.000 C 
ENDBRANCH  13  15
ENDBRANCH  11  13
ENDBRANCH   2  12
BRANCH   9  16
ATOM     16  C   UNL     1       1.948  12.278  20.412  0.00  0.00    +0.000 C 
BRANCH  16  17
ATOM     17  C   UNL     1       2.590  13.554  19.850  0.00  0.00    +0.000 C 
BRANCH  17  18
ATOM     18  C   UNL     1       1.979  14.039  18.531  0.00  0.00    +0.000 C 
ATOM     19  C   UNL     1       2.536  15.402  18.139  0.00  0.00    +0.000 C 
ENDBRANCH  17  18
ENDBRANCH  16  17
ENDBRANCH   9  16
ENDBRANCH   1  10
BRANCH   1  20
ATOM     20  C   UNL     1       2.035   9.003  18.499  0.00  0.00    +0.000 A 
ATOM     21  C   UNL     1       2.683   8.049  17.710  0.00  0.00    +0.000 A 
ATOM     22  C   UNL     1       2.891   6.753  18.189  0.00  0.00    +0.000 A 
ATOM     23  C   UNL     1       2.396   6.343  19.434  0.00  0.00    +0.000 A 
ATOM     24  C   UNL     1       1.897   7.355  20.276  0.00  0.00    +0.000 A 
ATOM     25  C   UNL     1       1.739   8.670  19.825  0.00  0.00    +0.000 A 
BRANCH  23  26
ATOM     26  C   UNL     1       2.333   4.908  19.833  0.00  0.00    +0.000 A 
ATOM     27  C   UNL     1       1.115   4.394  20.335  0.00  0.00    +0.000 A 
ATOM     28  C   UNL     1       0.962   3.052  20.690  0.00  0.00    +0.000 A 
ATOM     29  C   UNL     1       2.031   2.178  20.568  0.00  0.00    +0.000 A 
ATOM     30  C   UNL     1       3.250   2.642  20.080  0.00  0.00    +0.000 A 
ATOM     31  C   UNL     1       3.423   3.995  19.699  0.00  0.00    +0.000 A 
BRANCH  31  32
ATOM     32  C   UNL     1       4.736   4.376  19.168  0.00  0.00    +0.000 A 
ATOM     33  N   UNL     1       5.715   5.036  19.756  0.00  0.00    +0.000 NA
ATOM     34  N   UNL     1       6.782   5.013  18.893  0.00  0.00    +0.000 NA
ATOM     35  N   UNL     1       6.465   4.395  17.764  0.00  0.00    +0.000 NA
ATOM     36  N   UNL     1       5.189   4.028  17.920  0.00  0.00    +0.000 N 
ATOM     37  H   UNL     1       4.717   3.531  17.178  0.00  0.00    +0.000 HD
ENDBRANCH  31  32
ENDBRANCH  23  26
ENDBRANCH   1  20
TORSDOF 10
ENDMDL
MODEL 6
REMARK VINA RESULT:      -8.2      3.064     10.298
REMARK  Name = 
REMARK  12 active torsions:
REMARK  status: ('A' for Active; 'I' for Inactive)
REMARK    1  A    between atoms: C_1  and  C_2
REMARK    2  A    between atoms: C_2  and  C_3
REMARK    3  A    between atoms: C_3  and  C_4
REMARK    4  A    between atoms: N_5  and  C_6
REMARK    5  A    between atoms: C_13  and  C_14
REMARK    6  A    between atoms: C_14  and  C_15
REMARK    7  A    between atoms: C_15  and  C_16
REMARK    8  A    between atoms: C_16  and  C_17
REMARK    9  A    between atoms: N_18  and  C_19
REMARK   10  A    between atoms: C_19  and  C_20
REMARK   11  A    between atoms: C_23  and  C_24
REMARK   12  A    between atoms: C_29  and  C_30
REMARK                            x       y       z     vdW  Elec       q    Type
REMARK                         _______ _______ _______ _____ _____    ______ ____
ROOT
ATOM      1  C   UNL     1       1.529  10.384  17.870  0.00  0.00    +0.000 C 
ENDROOT
BRANCH   1  10
ATOM      2  C   UNL     1      -0.051  13.462  21.828  0.00  0.00    +0.000 A 
ATOM      3  C   UNL     1       1.240  13.392  21.288  0.00  0.00    +0.000 A 
ATOM      4  C   UNL     1       1.544  12.599  20.171  0.00  0.00    +0.000 A 
ATOM      5  C   UNL     1       0.484  11.868  19.611  0.00  0.00    +0.000 A 
ATOM      6  C   UNL     1      -0.812  11.955  20.096  0.00  0.00    +0.000 A 
ATOM      7  C   UNL     1      -1.088  12.766  21.200  0.00  0.00    +0.000 A 
ATOM      8  N   UNL     1      -1.671  11.178  19.365  0.00  0.00    +0.000 NA
ATOM      9  C   UNL     1      -0.944  10.627  18.420  0.00  0.00    +0.000 A 
ATOM     10  N   UNL     1       0.391  10.964  18.573  0.00  0.00    +0.000 N 
BRANCH   2  12
ATOM     11  C   UNL     1      -1.486  14.566  23.273  0.00  0.00    +0.000 C 
ATOM     12  N   UNL     1      -0.269  14.273  22.958  0.00  0.00    +0.000 NA
BRANCH  11  13
ATOM     13  C   UNL     1      -1.799  15.493  24.408  0.00  0.00    +0.000 C 
BRANCH  13  15
ATOM     14  C   UNL     1      -2.419  17.694  23.363  0.00  0.00    +0.000 C 
ATOM     15  C   UNL     1      -2.938  16.424  24.014  0.00  0.00    +0.000 C 
ENDBRANCH  13  15
ENDBRANCH  11  13
ENDBRANCH   2  12
BRANCH   9  16
ATOM     16  C   UNL     1      -1.478   9.723  17.349  0.00  0.00    +0.000 C 
BRANCH  16  17
ATOM     17  C   UNL     1      -2.931  10.021  16.955  0.00  0.00    +0.000 C 
BRANCH  17  18
ATOM     18  C   UNL     1      -3.081  10.898  15.708  0.00  0.00    +0.000 C 
ATOM     19  C   UNL     1      -3.111  10.050  14.443  0.00  0.00    +0.000 C 
ENDBRANCH  17  18
ENDBRANCH  16  17
ENDBRANCH   9  16
ENDBRANCH   1  10
BRANCH   1  20
ATOM     20  C   UNL     1       1.955   9.048  18.424  0.00  0.00    +0.000 A 
ATOM     21  C   UNL     1       2.578   8.078  17.636  0.00  0.00    +0.000 A 
ATOM     22  C   UNL     1       2.823   6.799  18.144  0.00  0.00    +0.000 A 
ATOM     23  C   UNL     1       2.388   6.422  19.422  0.00  0.00    +0.000 A 
ATOM     24  C   UNL     1       1.914   7.454  20.254  0.00  0.00    +0.000 A 
ATOM     25  C   UNL     1       1.722   8.753  19.772  0.00  0.00    +0.000 A 
BRANCH  23  26
ATOM     26  C   UNL     1       2.359   4.999  19.867  0.00  0.00    +0.000 A 
ATOM     27  C   UNL     1       1.160   4.479  20.406  0.00  0.00    +0.000 A 
ATOM     28  C   UNL     1       1.039   3.146  20.806  0.00  0.00    +0.000 A 
ATOM     29  C   UNL     1       2.123   2.289  20.691  0.00  0.00    +0.000 A 
ATOM     30  C   UNL     1       3.324   2.760  20.167  0.00  0.00    +0.000 A 
ATOM     31  C   UNL     1       3.465   4.103  19.741  0.00  0.00    +0.000 A 
BRANCH  31  32
ATOM     32  C   UNL     1       4.760   4.491  19.175  0.00  0.00    +0.000 A 
ATOM     33  N   UNL     1       5.696   5.267  19.688  0.00  0.00    +0.000 NA
ATOM     34  N   UNL     1       6.771   5.204  18.837  0.00  0.00    +0.000 NA
ATOM     35  N   UNL     1       6.500   4.444  17.786  0.00  0.00    +0.000 NA
ATOM     36  N   UNL     1       5.244   4.028  17.978  0.00  0.00    +0.000 N 
ATOM     37  H   UNL     1       4.807   3.425  17.296  0.00  0.00    +0.000 HD
ENDBRANCH  31  32
ENDBRANCH  23  26
ENDBRANCH   1  20
TORSDOF 10
ENDMDL
MODEL 7
REMARK VINA RESULT:      -7.9      3.266      9.042
REMARK  Name = 
REMARK  12 active torsions:
REMARK  status: ('A' for Active; 'I' for Inactive)
REMARK    1  A    between atoms: C_1  and  C_2
REMARK    2  A    between atoms: C_2  and  C_3
REMARK    3  A    between atoms: C_3  and  C_4
REMARK    4  A    between atoms: N_5  and  C_6
REMARK    5  A    between atoms: C_13  and  C_14
REMARK    6  A    between atoms: C_14  and  C_15
REMARK    7  A    between atoms: C_15  and  C_16
REMARK    8  A    between atoms: C_16  and  C_17
REMARK    9  A    between atoms: N_18  and  C_19
REMARK   10  A    between atoms: C_19  and  C_20
REMARK   11  A    between atoms: C_23  and  C_24
REMARK   12  A    between atoms: C_29  and  C_30
REMARK                            x       y       z     vdW  Elec       q    Type
REMARK                         _______ _______ _______ _____ _____    ______ ____
ROOT
ATOM      1  C   UNL     1       0.233  10.487  18.823  0.00  0.00    +0.000 C 
ENDROOT
BRANCH   1  10
ATOM      2  C   UNL     1       3.543  14.507  19.539  0.00  0.00    +0.000 A 
ATOM      3  C   UNL     1       3.342  13.793  18.351  0.00  0.00    +0.000 A 
ATOM      4  C   UNL     1       2.369  12.788  18.236  0.00  0.00    +0.000 A 
ATOM      5  C   UNL     1       1.597  12.526  19.379  0.00  0.00    +0.000 A 
ATOM      6  C   UNL     1       1.743  13.250  20.552  0.00  0.00    +0.000 A 
ATOM      7  C   UNL     1       2.709  14.257  20.632  0.00  0.00    +0.000 A 
ATOM      8  N   UNL     1       0.857  12.833  21.509  0.00  0.00    +0.000 NA
ATOM      9  C   UNL     1       0.145  11.880  20.951  0.00  0.00    +0.000 A 
ATOM     10  N   UNL     1       0.608  11.611  19.674  0.00  0.00    +0.000 N 
BRANCH   2  12
ATOM     11  C   UNL     1       5.466  15.461  18.665  0.00  0.00    +0.000 C 
ATOM     12  N   UNL     1       4.549  15.493  19.574  0.00  0.00    +0.000 NA
BRANCH  11  13
ATOM     13  C   UNL     1       6.617  16.420  18.682  0.00  0.00    +0.000 C 
BRANCH  13  15
ATOM     14  C   UNL     1       7.636  14.288  17.821  0.00  0.00    +0.000 C 
ATOM     15  C   UNL     1       7.911  15.677  18.374  0.00  0.00    +0.000 C 
ENDBRANCH  13  15
ENDBRANCH  11  13
ENDBRANCH   2  12
BRANCH   9  16
ATOM     16  C   UNL     1      -0.985  11.155  21.620  0.00  0.00    +0.000 C 
BRANCH  16  17
ATOM     17  C   UNL     1      -1.475  11.826  22.910  0.00  0.00    +0.000 C 
BRANCH  17  18
ATOM     18  C   UNL     1      -2.817  12.552  22.774  0.00  0.00    +0.000 C 
ATOM     19  C   UNL     1      -3.642  12.420  24.049  0.00  0.00    +0.000 C 
ENDBRANCH  17  18
ENDBRANCH  16  17
ENDBRANCH   9  16
ENDBRANCH   1  10
BRANCH   1  20
ATOM     20  C   UNL     1       1.147   9.297  18.969  0.00  0.00    +0.000 A 
ATOM     21  C   UNL     1       1.833   8.746  17.884  0.00  0.00    +0.000 A 
ATOM     22  C   UNL     1       2.550   7.555  18.028  0.00  0.00    +0.000 A 
ATOM     23  C   UNL     1       2.547   6.838  19.232  0.00  0.00    +0.000 A 
ATOM     24  C   UNL     1       1.992   7.489  20.350  0.00  0.00    +0.000 A 
ATOM     25  C   UNL     1       1.323   8.710  20.227  0.00  0.00    +0.000 A 
BRANCH  23  26
ATOM     26  C   UNL     1       3.039   5.433  19.324  0.00  0.00    +0.000 A 
ATOM     27  C   UNL     1       2.343   4.521  20.151  0.00  0.00    +0.000 A 
ATOM     28  C   UNL     1       2.714   3.179  20.258  0.00  0.00    +0.000 A 
ATOM     29  C   UNL     1       3.808   2.705  19.549  0.00  0.00    +0.000 A 
ATOM     30  C   UNL     1       4.523   3.570  18.724  0.00  0.00    +0.000 A 
ATOM     31  C   UNL     1       4.155   4.931  18.588  0.00  0.00    +0.000 A 
BRANCH  31  32
ATOM     32  C   UNL     1       4.954   5.749  17.671  0.00  0.00    +0.000 A 
ATOM     33  N   UNL     1       5.940   6.582  17.940  0.00  0.00    +0.000 NA
ATOM     34  N   UNL     1       6.452   6.992  16.734  0.00  0.00    +0.000 NA
ATOM     35  N   UNL     1       5.770   6.467  15.726  0.00  0.00    +0.000 NA
ATOM     36  N   UNL     1       4.822   5.722  16.305  0.00  0.00    +0.000 N 
ATOM     37  H   UNL     1       4.164   5.214  15.731  0.00  0.00    +0.000 HD
ENDBRANCH  31  32
ENDBRANCH  23  26
ENDBRANCH   1  20
TORSDOF 10
ENDMDL
MODEL 8
REMARK VINA RESULT:      -7.9      1.949      2.662
REMARK  Name = 
REMARK  12 active torsions:
REMARK  status: ('A' for Active; 'I' for Inactive)
REMARK    1  A    between atoms: C_1  and  C_2
REMARK    2  A    between atoms: C_2  and  C_3
REMARK    3  A    between atoms: C_3  and  C_4
REMARK    4  A    between atoms: N_5  and  C_6
REMARK    5  A    between atoms: C_13  and  C_14
REMARK    6  A    between atoms: C_14  and  C_15
REMARK    7  A    between atoms: C_15  and  C_16
REMARK    8  A    between atoms: C_16  and  C_17
REMARK    9  A    between atoms: N_18  and  C_19
REMARK   10  A    between atoms: C_19  and  C_20
REMARK   11  A    between atoms: C_23  and  C_24
REMARK   12  A    between atoms: C_29  and  C_30
REMARK                            x       y       z     vdW  Elec       q    Type
REMARK                         _______ _______ _______ _____ _____    ______ ____
ROOT
ATOM      1  C   UNL     1       3.161   6.096  19.957  0.00  0.00    +0.000 C 
ENDROOT
BRANCH   1  10
ATOM      2  C   UNL     1       6.106   4.581  15.874  0.00  0.00    +0.000 A 
ATOM      3  C   UNL     1       6.509   5.401  16.936  0.00  0.00    +0.000 A 
ATOM      4  C   UNL     1       5.673   5.679  18.028  0.00  0.00    +0.000 A 
ATOM      5  C   UNL     1       4.397   5.094  18.009  0.00  0.00    +0.000 A 
ATOM      6  C   UNL     1       3.990   4.241  16.995  0.00  0.00    +0.000 A 
ATOM      7  C   UNL     1       4.850   3.968  15.928  0.00  0.00    +0.000 A 
ATOM      8  N   UNL     1       2.722   3.771  17.217  0.00  0.00    +0.000 NA
ATOM      9  C   UNL     1       2.339   4.294  18.359  0.00  0.00    +0.000 A 
ATOM     10  N   UNL     1       3.301   5.163  18.845  0.00  0.00    +0.000 N 
BRANCH   2  12
ATOM     11  C   UNL     1       7.060   5.243  13.869  0.00  0.00    +0.000 C 
ATOM     12  N   UNL     1       7.002   4.361  14.810  0.00  0.00    +0.000 NA
BRANCH  11  13
ATOM     13  C   UNL     1       7.924   5.042  12.661  0.00  0.00    +0.000 C 
BRANCH  13  15
ATOM     14  C   UNL     1       6.063   3.374  12.383  0.00  0.00    +0.000 C 
ATOM     15  C   UNL     1       7.366   3.907  11.812  0.00  0.00    +0.000 C 
ENDBRANCH  13  15
ENDBRANCH  11  13
ENDBRANCH   2  12
BRANCH   9  16
ATOM     16  C   UNL     1       1.023   4.020  19.024  0.00  0.00    +0.000 C 
BRANCH  16  17
ATOM     17  C   UNL     1       1.037   2.791  19.943  0.00  0.00    +0.000 C 
BRANCH  17  18
ATOM     18  C   UNL     1       1.968   2.918  21.153  0.00  0.00    +0.000 C 
ATOM     19  C   UNL     1       1.368   2.240  22.379  0.00  0.00    +0.000 C 
ENDBRANCH  17  18
ENDBRANCH  16  17
ENDBRANCH   9  16
ENDBRANCH   1  10
BRANCH   1  20
ATOM     20  C   UNL     1       2.397   7.344  19.596  0.00  0.00    +0.000 A 
ATOM     21  C   UNL     1       2.522   7.962  18.349  0.00  0.00    +0.000 A 
ATOM     22  C   UNL     1       1.916   9.197  18.103  0.00  0.00    +0.000 A 
ATOM     23  C   UNL     1       1.232   9.891  19.110  0.00  0.00    +0.000 A 
ATOM     24  C   UNL     1       0.978   9.183  20.300  0.00  0.00    +0.000 A 
ATOM     25  C   UNL     1       1.531   7.920  20.532  0.00  0.00    +0.000 A 
BRANCH  23  26
ATOM     26  C   UNL     1       0.848  11.325  18.969  0.00  0.00    +0.000 A 
ATOM     27  C   UNL     1       1.778  12.320  19.348  0.00  0.00    +0.000 A 
ATOM     28  C   UNL     1       1.511  13.683  19.208  0.00  0.00    +0.000 A 
ATOM     29  C   UNL     1       0.292  14.099  18.694  0.00  0.00    +0.000 A 
ATOM     30  C   UNL     1      -0.655  13.153  18.310  0.00  0.00    +0.000 A 
ATOM     31  C   UNL     1      -0.399  11.765  18.429  0.00  0.00    +0.000 A 
BRANCH  31  32
ATOM     32  C   UNL     1      -1.448  10.852  17.967  0.00  0.00    +0.000 A 
ATOM     33  N   UNL     1      -2.483  10.367  18.627  0.00  0.00    +0.000 NA
ATOM     34  N   UNL     1      -3.243   9.675  17.718  0.00  0.00    +0.000 NA
ATOM     35  N   UNL     1      -2.674   9.682  16.521  0.00  0.00    +0.000 NA
ATOM     36  N   UNL     1      -1.547  10.383  16.681  0.00  0.00    +0.000 N 
ATOM     37  H   UNL     1      -0.931  10.527  15.894  0.00  0.00    +0.000 HD
ENDBRANCH  31  32
ENDBRANCH  23  26
ENDBRANCH   1  20
TORSDOF 10
ENDMDL
MODEL 9
REMARK VINA RESULT:      -7.8      2.576      9.976
REMARK  Name = 
REMARK  12 active torsions:
REMARK  status: ('A' for Active; 'I' for Inactive)
REMARK    1  A    between atoms: C_1  and  C_2
REMARK    2  A    between atoms: C_2  and  C_3
REMARK    3  A    between atoms: C_3  and  C_4
REMARK    4  A    between atoms: N_5  and  C_6
REMARK    5  A    between atoms: C_13  and  C_14
REMARK    6  A    between atoms: C_14  and  C_15
REMARK    7  A    between atoms: C_15  and  C_16
REMARK    8  A    between atoms: C_16  and  C_17
REMARK    9  A    between atoms: N_18  and  C_19
REMARK   10  A    between atoms: C_19  and  C_20
REMARK   11  A    between atoms: C_23  and  C_24
REMARK   12  A    between atoms: C_29  and  C_30
REMARK                            x       y       z     vdW  Elec       q    Type
REMARK                         _______ _______ _______ _____ _____    ______ ____
ROOT
ATOM      1  C   UNL     1       0.057   9.585  20.046  0.00  0.00    +0.000 C 
ENDROOT
BRANCH   1  10
ATOM      2  C   UNL     1       0.904  14.759  19.665  0.00  0.00    +0.000 A 
ATOM      3  C   UNL     1       1.711  13.828  20.332  0.00  0.00    +0.000 A 
ATOM      4  C   UNL     1       1.446  12.450  20.304  0.00  0.00    +0.000 A 
ATOM      5  C   UNL     1       0.321  12.041  19.570  0.00  0.00    +0.000 A 
ATOM      6  C   UNL     1      -0.466  12.935  18.862  0.00  0.00    +0.000 A 
ATOM      7  C   UNL     1      -0.169  14.300  18.894  0.00  0.00    +0.000 A 
ATOM      8  N   UNL     1      -1.479  12.293  18.200  0.00  0.00    +0.000 NA
ATOM      9  C   UNL     1      -1.327  11.015  18.460  0.00  0.00    +0.000 A 
ATOM     10  N   UNL     1      -0.282  10.819  19.348  0.00  0.00    +0.000 N 
BRANCH   2  12
ATOM     11  C   UNL     1       2.325  16.451  20.360  0.00  0.00    +0.000 C 
ATOM     12  N   UNL     1       1.233  16.126  19.754  0.00  0.00    +0.000 NA
BRANCH  11  13
ATOM     13  C   UNL     1       2.704  17.886  20.571  0.00  0.00    +0.000 C 
BRANCH  13  15
ATOM     14  C   UNL     1       2.110  17.752  23.011  0.00  0.00    +0.000 C 
ATOM     15  C   UNL     1       1.869  18.478  21.699  0.00  0.00    +0.000 C 
ENDBRANCH  13  15
ENDBRANCH  11  13
ENDBRANCH   2  12
BRANCH   9  16
ATOM     16  C   UNL     1      -2.191   9.921  17.905  0.00  0.00    +0.000 C 
BRANCH  16  17
ATOM     17  C   UNL     1      -3.273  10.418  16.937  0.00  0.00    +0.000 C 
BRANCH  17  18
ATOM     18  C   UNL     1      -2.756  10.774  15.540  0.00  0.00    +0.000 C 
ATOM     19  C   UNL     1      -3.576  10.081  14.460  0.00  0.00    +0.000 C 
ENDBRANCH  17  18
ENDBRANCH  16  17
ENDBRANCH   9  16
ENDBRANCH   1  10
BRANCH   1  20
ATOM     20  C   UNL     1       1.204   8.838  19.415  0.00  0.00    +0.000 A 
ATOM     21  C   UNL     1       1.674   9.137  18.134  0.00  0.00    +0.000 A 
ATOM     22  C   UNL     1       2.636   8.328  17.523  0.00  0.00    +0.000 A 
ATOM     23  C   UNL     1       3.104   7.157  18.133  0.00  0.00    +0.000 A 
ATOM     24  C   UNL     1       2.746   6.964  19.481  0.00  0.00    +0.000 A 
ATOM     25  C   UNL     1       1.828   7.804  20.121  0.00  0.00    +0.000 A 
BRANCH  23  26
ATOM     26  C   UNL     1       3.885   6.127  17.390  0.00  0.00    +0.000 A 
ATOM     27  C   UNL     1       4.993   6.540  16.615  0.00  0.00    +0.000 A 
ATOM     28  C   UNL     1       5.800   5.634  15.924  0.00  0.00    +0.000 A 
ATOM     29  C   UNL     1       5.515   4.277  15.974  0.00  0.00    +0.000 A 
ATOM     30  C   UNL     1       4.431   3.826  16.723  0.00  0.00    +0.000 A 
ATOM     31  C   UNL     1       3.609   4.726  17.444  0.00  0.00    +0.000 A 
BRANCH  31  32
ATOM     32  C   UNL     1       2.513   4.147  18.227  0.00  0.00    +0.000 A 
ATOM     33  N   UNL     1       1.251   3.969  17.890  0.00  0.00    +0.000 NA
ATOM     34  N   UNL     1       0.665   3.263  18.912  0.00  0.00    +0.000 NA
ATOM     35  N   UNL     1       1.528   3.045  19.893  0.00  0.00    +0.000 NA
ATOM     36  N   UNL     1       2.664   3.619  19.485  0.00  0.00    +0.000 N 
ATOM     37  H   UNL     1       3.482   3.586  20.076  0.00  0.00    +0.000 HD
ENDBRANCH  31  32
ENDBRANCH  23  26
ENDBRANCH   1  20
TORSDOF 10
ENDMDL
