MODEL 1
REMARK VINA RESULT:      -7.5      0.000      0.000
REMARK  Name = 
REMARK  6 active torsions:
REMARK  status: ('A' for Active; 'I' for Inactive)
REMARK    1  A    between atoms: C_1  and  N_2
REMARK    2  A    between atoms: N_2  and  C_3
REMARK    3  A    between atoms: C_3  and  C_4
REMARK    4  A    between atoms: N_12  and  C_13
REMARK    5  A    between atoms: C_14  and  C_16
REMARK    6  A    between atoms: C_19  and  N_20
REMARK                            x       y       z     vdW  Elec       q    Type
REMARK                         _______ _______ _______ _____ _____    ______ ____
ROOT
ATOM      1  C   UNL     1       7.719   5.777  19.587  0.00  0.00    +0.000 C 
ATOM      2  N   UNL     1       7.003   5.630  18.316  0.00  0.00    +0.000 N 
ATOM      3  C   UNL     1       7.566   4.732  17.409  0.00  0.00    +0.000 C 
ATOM      4  O   UNL     1       8.586   4.076  17.702  0.00  0.00    +0.000 OA
ENDROOT
BRANCH   3   5
ATOM      5  C   UNL     1       6.959   4.471  16.076  0.00  0.00    +0.000 A 
ATOM      6  C   UNL     1       5.838   3.663  15.915  0.00  0.00    +0.000 A 
ATOM      7  C   UNL     1       5.384   3.316  14.644  0.00  0.00    +0.000 A 
ATOM      8  C   UNL     1       5.944   3.901  13.518  0.00  0.00    +0.000 A 
ATOM      9  C   UNL     1       7.032   4.763  13.678  0.00  0.00    +0.000 A 
ATOM     10  C   UNL     1       7.539   5.047  14.947  0.00  0.00    +0.000 A 
BRANCH   8  11
ATOM     11  N   UNL     1       5.554   3.472  12.248  0.00  0.00    +0.000 N 
ATOM     12  H   UNL     1       6.030   3.935  11.486  0.00  0.00    +0.000 HD
ATOM     13  H   UNL     1       5.529   2.462  12.146  0.00  0.00    +0.000 HD
ENDBRANCH   8  11
ENDBRANCH   3   5
BRANCH   2  14
ATOM     14  C   UNL     1       5.653   6.214  18.195  0.00  0.00    +0.000 C 
BRANCH  14  15
ATOM     15  C   UNL     1       4.594   5.385  18.859  0.00  0.00    +0.000 A 
ATOM     16  C   UNL     1       4.665   4.116  19.358  0.00  0.00    +0.000 A 
ATOM     17  C   UNL     1       3.393   3.728  19.829  0.00  0.00    +0.000 A 
ATOM     18  C   UNL     1       2.891   2.552  20.413  0.00  0.00    +0.000 A 
ATOM     19  C   UNL     1       1.548   2.488  20.783  0.00  0.00    +0.000 A 
ATOM     20  C   UNL     1       0.707   3.579  20.579  0.00  0.00    +0.000 A 
ATOM     21  C   UNL     1       1.183   4.758  19.999  0.00  0.00    +0.000 A 
ATOM     22  C   UNL     1       2.533   4.816  19.625  0.00  0.00    +0.000 A 
ATOM     23  N   UNL     1       3.280   5.820  19.025  0.00  0.00    +0.000 N 
ATOM     24  C   UNL     1       2.769   7.102  18.601  0.00  0.00    +0.000 C 
ENDBRANCH  14  15
ENDBRANCH   2  14
TORSDOF 4
ENDMDL
MODEL 2
REMARK VINA RESULT:      -7.2      2.356      6.443
REMARK  Name = 
REMARK  6 active torsions:
REMARK  status: ('A' for Active; 'I' for Inactive)
REMARK    1  A    between atoms: C_1  and  N_2
REMARK    2  A    between atoms: N_2  and  C_3
REMARK    3  A    between atoms: C_3  and  C_4
REMARK    4  A    between atoms: N_12  and  C_13
REMARK    5  A    between atoms: C_14  and  C_16
REMARK    6  A    between atoms: C_19  and  N_20
REMARK                            x       y       z     vdW  Elec       q    Type
REMARK                         _______ _______ _______ _____ _____    ______ ____
ROOT
ATOM      1  C   UNL     1       3.182   2.813  20.328  0.00  0.00    +0.000 C 
ATOM      2  N   UNL     1       3.293   4.201  19.869  0.00  0.00    +0.000 N 
ATOM      3  C   UNL     1       2.121   4.954  19.941  0.00  0.00    +0.000 C 
ATOM      4  O   UNL     1       1.072   4.469  20.412  0.00  0.00    +0.000 OA
ENDROOT
BRANCH   3   5
ATOM      5  C   UNL     1       2.070   6.378  19.513  0.00  0.00    +0.000 A 
ATOM      6  C   UNL     1       1.769   7.410  20.396  0.00  0.00    +0.000 A 
ATOM      7  C   UNL     1       1.581   8.712  19.936  0.00  0.00    +0.000 A 
ATOM      8  C   UNL     1       1.848   9.032  18.614  0.00  0.00    +0.000 A 
ATOM      9  C   UNL     1       2.210   8.008  17.734  0.00  0.00    +0.000 A 
ATOM     10  C   UNL     1       2.321   6.689  18.178  0.00  0.00    +0.000 A 
BRANCH   8  11
ATOM     11  N   UNL     1       1.559  10.312  18.138  0.00  0.00    +0.000 N 
ATOM     12  H   UNL     1       2.330  10.963  18.192  0.00  0.00    +0.000 HD
ATOM     13  H   UNL     1       1.095  10.319  17.236  0.00  0.00    +0.000 HD
ENDBRANCH   8  11
ENDBRANCH   3   5
BRANCH   2  14
ATOM     14  C   UNL     1       4.638   4.757  19.623  0.00  0.00    +0.000 C 
BRANCH  14  15
ATOM     15  C   UNL     1       5.057   4.662  18.187  0.00  0.00    +0.000 A 
ATOM     16  C   UNL     1       4.421   4.078  17.129  0.00  0.00    +0.000 A 
ATOM     17  C   UNL     1       5.233   4.183  15.981  0.00  0.00    +0.000 A 
ATOM     18  C   UNL     1       5.093   3.754  14.649  0.00  0.00    +0.000 A 
ATOM     19  C   UNL     1       6.104   4.028  13.729  0.00  0.00    +0.000 A 
ATOM     20  C   UNL     1       7.244   4.724  14.119  0.00  0.00    +0.000 A 
ATOM     21  C   UNL     1       7.407   5.161  15.437  0.00  0.00    +0.000 A 
ATOM     22  C   UNL     1       6.390   4.878  16.360  0.00  0.00    +0.000 A 
ATOM     23  N   UNL     1       6.271   5.159  17.714  0.00  0.00    +0.000 N 
ATOM     24  C   UNL     1       7.266   5.827  18.520  0.00  0.00    +0.000 C 
ENDBRANCH  14  15
ENDBRANCH   2  14
TORSDOF 4
ENDMDL
MODEL 3
REMARK VINA RESULT:      -7.1      0.161      1.033
REMARK  Name = 
REMARK  6 active torsions:
REMARK  status: ('A' for Active; 'I' for Inactive)
REMARK    1  A    between atoms: C_1  and  N_2
REMARK    2  A    between atoms: N_2  and  C_3
REMARK    3  A    between atoms: C_3  and  C_4
REMARK    4  A    between atoms: N_12  and  C_13
REMARK    5  A    between atoms: C_14  and  C_16
REMARK    6  A    between atoms: C_19  and  N_20
REMARK                            x       y       z     vdW  Elec       q    Type
REMARK                         _______ _______ _______ _____ _____    ______ ____
ROOT
ATOM      1  C   UNL     1       7.696   5.815  19.537  0.00  0.00    +0.000 C 
ATOM      2  N   UNL     1       6.999   5.620  18.262  0.00  0.00    +0.000 N 
ATOM      3  C   UNL     1       7.588   4.706  17.387  0.00  0.00    +0.000 C 
ATOM      4  O   UNL     1       8.614   4.075  17.711  0.00  0.00    +0.000 OA
ENDROOT
BRANCH   3   5
ATOM      5  C   UNL     1       7.001   4.400  16.054  0.00  0.00    +0.000 A 
ATOM      6  C   UNL     1       7.513   4.933  14.876  0.00  0.00    +0.000 A 
ATOM      7  C   UNL     1       6.853   4.750  13.663  0.00  0.00    +0.000 A 
ATOM      8  C   UNL     1       5.762   3.899  13.582  0.00  0.00    +0.000 A 
ATOM      9  C   UNL     1       5.279   3.311  14.754  0.00  0.00    +0.000 A 
ATOM     10  C   UNL     1       5.892   3.558  15.984  0.00  0.00    +0.000 A 
BRANCH   8  11
ATOM     11  N   UNL     1       5.045   3.802  12.388  0.00  0.00    +0.000 N 
ATOM     12  H   UNL     1       4.343   4.518  12.261  0.00  0.00    +0.000 HD
ATOM     13  H   UNL     1       5.629   3.669  11.569  0.00  0.00    +0.000 HD
ENDBRANCH   8  11
ENDBRANCH   3   5
BRANCH   2  14
ATOM     14  C   UNL     1       5.642   6.180  18.108  0.00  0.00    +0.000 C 
BRANCH  14  15
ATOM     15  C   UNL     1       4.591   5.368  18.805  0.00  0.00    +0.000 A 
ATOM     16  C   UNL     1       4.669   4.114  19.340  0.00  0.00    +0.000 A 
ATOM     17  C   UNL     1       3.403   3.738  19.834  0.00  0.00    +0.000 A 
ATOM     18  C   UNL     1       2.909   2.578  20.456  0.00  0.00    +0.000 A 
ATOM     19  C   UNL     1       1.570   2.522  20.840  0.00  0.00    +0.000 A 
ATOM     20  C   UNL     1       0.724   3.605  20.613  0.00  0.00    +0.000 A 
ATOM     21  C   UNL     1       1.192   4.768  19.996  0.00  0.00    +0.000 A 
ATOM     22  C   UNL     1       2.538   4.817  19.607  0.00  0.00    +0.000 A 
ATOM     23  N   UNL     1       3.278   5.805  18.971  0.00  0.00    +0.000 N 
ATOM     24  C   UNL     1       2.760   7.074  18.515  0.00  0.00    +0.000 C 
ENDBRANCH  14  15
ENDBRANCH   2  14
TORSDOF 4
ENDMDL
MODEL 4
REMARK VINA RESULT:      -7.1      2.297      6.518
REMARK  Name = 
REMARK  6 active torsions:
REMARK  status: ('A' for Active; 'I' for Inactive)
REMARK    1  A    between atoms: C_1  and  N_2
REMARK    2  A    between atoms: N_2  and  C_3
REMARK    3  A    between atoms: C_3  and  C_4
REMARK    4  A    between atoms: N_12  and  C_13
REMARK    5  A    between atoms: C_14  and  C_16
REMARK    6  A    between atoms: C_19  and  N_20
REMARK                            x       y       z     vdW  Elec       q    Type
REMARK                         _______ _______ _______ _____ _____    ______ ____
ROOT
ATOM      1  C   UNL     1       4.076   2.550  19.905  0.00  0.00    +0.000 C 
ATOM      2  N   UNL     1       3.900   3.954  19.525  0.00  0.00    +0.000 N 
ATOM      3  C   UNL     1       2.640   4.494  19.784  0.00  0.00    +0.000 C 
ATOM      4  O   UNL     1       1.754   3.820  20.345  0.00  0.00    +0.000 OA
ENDROOT
BRANCH   3   5
ATOM      5  C   UNL     1       2.304   5.907  19.455  0.00  0.00    +0.000 A 
ATOM      6  C   UNL     1       2.397   6.410  18.162  0.00  0.00    +0.000 A 
ATOM      7  C   UNL     1       2.223   7.770  17.910  0.00  0.00    +0.000 A 
ATOM      8  C   UNL     1       1.796   8.618  18.921  0.00  0.00    +0.000 A 
ATOM      9  C   UNL     1       1.642   8.105  20.211  0.00  0.00    +0.000 A 
ATOM     10  C   UNL     1       1.895   6.758  20.479  0.00  0.00    +0.000 A 
BRANCH   8  11
ATOM     11  N   UNL     1       1.724   9.993  18.687  0.00  0.00    +0.000 N 
ATOM     12  H   UNL     1       1.084  10.260  17.953  0.00  0.00    +0.000 HD
ATOM     13  H   UNL     1       1.615  10.547  19.531  0.00  0.00    +0.000 HD
ENDBRANCH   8  11
ENDBRANCH   3   5
BRANCH   2  14
ATOM     14  C   UNL     1       5.094   4.740  19.156  0.00  0.00    +0.000 C 
BRANCH  14  15
ATOM     15  C   UNL     1       5.432   4.640  17.698  0.00  0.00    +0.000 A 
ATOM     16  C   UNL     1       4.814   3.937  16.704  0.00  0.00    +0.000 A 
ATOM     17  C   UNL     1       5.533   4.097  15.502  0.00  0.00    +0.000 A 
ATOM     18  C   UNL     1       5.367   3.599  14.198  0.00  0.00    +0.000 A 
ATOM     19  C   UNL     1       6.275   3.962  13.204  0.00  0.00    +0.000 A 
ATOM     20  C   UNL     1       7.338   4.812  13.495  0.00  0.00    +0.000 A 
ATOM     21  C   UNL     1       7.524   5.320  14.784  0.00  0.00    +0.000 A 
ATOM     22  C   UNL     1       6.611   4.948  15.780  0.00  0.00    +0.000 A 
ATOM     23  N   UNL     1       6.540   5.267  17.130  0.00  0.00    +0.000 N 
ATOM     24  C   UNL     1       7.488   6.088  17.845  0.00  0.00    +0.000 C 
ENDBRANCH  14  15
ENDBRANCH   2  14
TORSDOF 4
ENDMDL
MODEL 5
REMARK VINA RESULT:      -7.0      1.256      1.288
REMARK  Name = 
REMARK  6 active torsions:
REMARK  status: ('A' for Active; 'I' for Inactive)
REMARK    1  A    between atoms: C_1  and  N_2
REMARK    2  A    between atoms: N_2  and  C_3
REMARK    3  A    between atoms: C_3  and  C_4
REMARK    4  A    between atoms: N_12  and  C_13
REMARK    5  A    between atoms: C_14  and  C_16
REMARK    6  A    between atoms: C_19  and  N_20
REMARK                            x       y       z     vdW  Elec       q    Type
REMARK                         _______ _______ _______ _____ _____    ______ ____
ROOT
ATOM      1  C   UNL     1       6.679   5.811  18.925  0.00  0.00    +0.000 C 
ATOM      2  N   UNL     1       6.296   5.630  17.522  0.00  0.00    +0.000 N 
ATOM      3  C   UNL     1       7.195   4.901  16.743  0.00  0.00    +0.000 C 
ATOM      4  O   UNL     1       8.226   4.407  17.242  0.00  0.00    +0.000 OA
ENDROOT
BRANCH   3   5
ATOM      5  C   UNL     1       6.950   4.631  15.299  0.00  0.00    +0.000 A 
ATOM      6  C   UNL     1       5.977   3.736  14.866  0.00  0.00    +0.000 A 
ATOM      7  C   UNL     1       5.873   3.391  13.520  0.00  0.00    +0.000 A 
ATOM      8  C   UNL     1       6.632   4.055  12.568  0.00  0.00    +0.000 A 
ATOM      9  C   UNL     1       7.568   5.000  12.993  0.00  0.00    +0.000 A 
ATOM     10  C   UNL     1       7.729   5.288  14.350  0.00  0.00    +0.000 A 
BRANCH   8  11
ATOM     11  N   UNL     1       6.597   3.633  11.237  0.00  0.00    +0.000 N 
ATOM     12  H   UNL     1       5.668   3.511  10.860  0.00  0.00    +0.000 HD
ATOM     13  H   UNL     1       7.208   4.163  10.623  0.00  0.00    +0.000 HD
ENDBRANCH   8  11
ENDBRANCH   3   5
BRANCH   2  14
ATOM     14  C   UNL     1       4.923   5.987  17.113  0.00  0.00    +0.000 C 
BRANCH  14  15
ATOM     15  C   UNL     1       3.882   5.089  17.713  0.00  0.00    +0.000 A 
ATOM     16  C   UNL     1       3.526   3.816  17.373  0.00  0.00    +0.000 A 
ATOM     17  C   UNL     1       2.447   3.402  18.180  0.00  0.00    +0.000 A 
ATOM     18  C   UNL     1       1.685   2.223  18.252  0.00  0.00    +0.000 A 
ATOM     19  C   UNL     1       0.660   2.124  19.192  0.00  0.00    +0.000 A 
ATOM     20  C   UNL     1       0.390   3.181  20.057  0.00  0.00    +0.000 A 
ATOM     21  C   UNL     1       1.133   4.364  20.004  0.00  0.00    +0.000 A 
ATOM     22  C   UNL     1       2.159   4.460  19.054  0.00  0.00    +0.000 A 
ATOM     23  N   UNL     1       3.042   5.488  18.752  0.00  0.00    +0.000 N 
ATOM     24  C   UNL     1       3.062   6.785  19.387  0.00  0.00    +0.000 C 
ENDBRANCH  14  15
ENDBRANCH   2  14
TORSDOF 4
ENDMDL
MODEL 6
REMARK VINA RESULT:      -7.0      2.941      4.610
REMARK  Name = 
REMARK  6 active torsions:
REMARK  status: ('A' for Active; 'I' for Inactive)
REMARK    1  A    between atoms: C_1  and  N_2
REMARK    2  A    between atoms: N_2  and  C_3
REMARK    3  A    between atoms: C_3  and  C_4
REMARK    4  A    between atoms: N_12  and  C_13
REMARK    5  A    between atoms: C_14  and  C_16
REMARK    6  A    between atoms: C_19  and  N_20
REMARK                            x       y       z     vdW  Elec       q    Type
REMARK                         _______ _______ _______ _____ _____    ______ ____
ROOT
ATOM      1  C   UNL     1       2.333   4.584  20.732  0.00  0.00    +0.000 C 
ATOM      2  N   UNL     1       3.200   4.971  19.615  0.00  0.00    +0.000 N 
ATOM      3  C   UNL     1       4.191   4.050  19.274  0.00  0.00    +0.000 C 
ATOM      4  O   UNL     1       4.283   2.956  19.866  0.00  0.00    +0.000 OA
ENDROOT
BRANCH   3   5
ATOM      5  C   UNL     1       5.150   4.298  18.163  0.00  0.00    +0.000 A 
ATOM      6  C   UNL     1       6.366   4.942  18.362  0.00  0.00    +0.000 A 
ATOM      7  C   UNL     1       7.173   5.294  17.281  0.00  0.00    +0.000 A 
ATOM      8  C   UNL     1       6.853   4.866  16.002  0.00  0.00    +0.000 A 
ATOM      9  C   UNL     1       5.661   4.164  15.805  0.00  0.00    +0.000 A 
ATOM     10  C   UNL     1       4.812   3.881  16.877  0.00  0.00    +0.000 A 
BRANCH   8  11
ATOM     11  N   UNL     1       7.608   5.308  14.913  0.00  0.00    +0.000 N 
ATOM     12  H   UNL     1       8.582   5.038  14.942  0.00  0.00    +0.000 HD
ATOM     13  H   UNL     1       7.173   5.132  14.014  0.00  0.00    +0.000 HD
ENDBRANCH   8  11
ENDBRANCH   3   5
BRANCH   2  14
ATOM     14  C   UNL     1       2.813   6.136  18.794  0.00  0.00    +0.000 C 
BRANCH  14  15
ATOM     15  C   UNL     1       2.135   7.212  19.588  0.00  0.00    +0.000 A 
ATOM     16  C   UNL     1       1.685   7.194  20.877  0.00  0.00    +0.000 A 
ATOM     17  C   UNL     1       1.053   8.421  21.167  0.00  0.00    +0.000 A 
ATOM     18  C   UNL     1       0.408   8.935  22.306  0.00  0.00    +0.000 A 
ATOM     19  C   UNL     1      -0.123  10.224  22.271  0.00  0.00    +0.000 A 
ATOM     20  C   UNL     1      -0.016  11.001  21.121  0.00  0.00    +0.000 A 
ATOM     21  C   UNL     1       0.619  10.511  19.976  0.00  0.00    +0.000 A 
ATOM     22  C   UNL     1       1.147   9.213  20.015  0.00  0.00    +0.000 A 
ATOM     23  N   UNL     1       1.806   8.458  19.054  0.00  0.00    +0.000 N 
ATOM     24  C   UNL     1       2.075   8.879  17.700  0.00  0.00    +0.000 C 
ENDBRANCH  14  15
ENDBRANCH   2  14
TORSDOF 4
ENDMDL
MODEL 7
REMARK VINA RESULT:      -6.9      3.498      5.258
REMARK  Name = 
REMARK  6 active torsions:
REMARK  status: ('A' for Active; 'I' for Inactive)
REMARK    1  A    between atoms: C_1  and  N_2
REMARK    2  A    between atoms: N_2  and  C_3
REMARK    3  A    between atoms: C_3  and  C_4
REMARK    4  A    between atoms: N_12  and  C_13
REMARK    5  A    between atoms: C_14  and  C_16
REMARK    6  A    between atoms: C_19  and  N_20
REMARK                            x       y       z     vdW  Elec       q    Type
REMARK                         _______ _______ _______ _____ _____    ______ ____
ROOT
ATOM      1  C   UNL     1       1.205   5.172  20.566  0.00  0.00    +0.000 C 
ATOM      2  N   UNL     1       2.364   5.484  19.725  0.00  0.00    +0.000 N 
ATOM      3  C   UNL     1       3.061   4.382  19.227  0.00  0.00    +0.000 C 
ATOM      4  O   UNL     1       2.675   3.218  19.460  0.00  0.00    +0.000 OA
ENDROOT
BRANCH   3   5
ATOM      5  C   UNL     1       4.260   4.533  18.358  0.00  0.00    +0.000 A 
ATOM      6  C   UNL     1       4.191   4.427  16.973  0.00  0.00    +0.000 A 
ATOM      7  C   UNL     1       5.350   4.422  16.198  0.00  0.00    +0.000 A 
ATOM      8  C   UNL     1       6.580   4.684  16.781  0.00  0.00    +0.000 A 
ATOM      9  C   UNL     1       6.647   4.852  18.166  0.00  0.00    +0.000 A 
ATOM     10  C   UNL     1       5.496   4.776  18.952  0.00  0.00    +0.000 A 
BRANCH   8  11
ATOM     11  N   UNL     1       7.745   4.575  16.018  0.00  0.00    +0.000 N 
ATOM     12  H   UNL     1       7.948   3.639  15.696  0.00  0.00    +0.000 HD
ATOM     13  H   UNL     1       7.823   5.273  15.286  0.00  0.00    +0.000 HD
ENDBRANCH   8  11
ENDBRANCH   3   5
BRANCH   2  14
ATOM     14  C   UNL     1       2.548   6.874  19.265  0.00  0.00    +0.000 C 
BRANCH  14  15
ATOM     15  C   UNL     1       1.776   7.867  20.081  0.00  0.00    +0.000 A 
ATOM     16  C   UNL     1       1.457   7.846  21.409  0.00  0.00    +0.000 A 
ATOM     17  C   UNL     1       0.658   8.968  21.714  0.00  0.00    +0.000 A 
ATOM     18  C   UNL     1       0.045   9.432  22.891  0.00  0.00    +0.000 A 
ATOM     19  C   UNL     1      -0.695  10.613  22.861  0.00  0.00    +0.000 A 
ATOM     20  C   UNL     1      -0.827  11.333  21.677  0.00  0.00    +0.000 A 
ATOM     21  C   UNL     1      -0.228  10.892  20.494  0.00  0.00    +0.000 A 
ATOM     22  C   UNL     1       0.511   9.701  20.529  0.00  0.00    +0.000 A 
ATOM     23  N   UNL     1       1.195   9.011  19.536  0.00  0.00    +0.000 N 
ATOM     24  C   UNL     1       1.263   9.397  18.146  0.00  0.00    +0.000 C 
ENDBRANCH  14  15
ENDBRANCH   2  14
TORSDOF 4
ENDMDL
MODEL 8
REMARK VINA RESULT:      -6.9      2.843      4.421
REMARK  Name = 
REMARK  6 active torsions:
REMARK  status: ('A' for Active; 'I' for Inactive)
REMARK    1  A    between atoms: C_1  and  N_2
REMARK    2  A    between atoms: N_2  and  C_3
REMARK    3  A    between atoms: C_3  and  C_4
REMARK    4  A    between atoms: N_12  and  C_13
REMARK    5  A    between atoms: C_14  and  C_16
REMARK    6  A    between atoms: C_19  and  N_20
REMARK                            x       y       z     vdW  Elec       q    Type
REMARK                         _______ _______ _______ _____ _____    ______ ____
ROOT
ATOM      1  C   UNL     1       2.666   4.365  20.767  0.00  0.00    +0.000 C 
ATOM      2  N   UNL     1       3.321   4.865  19.554  0.00  0.00    +0.000 N 
ATOM      3  C   UNL     1       4.459   4.164  19.153  0.00  0.00    +0.000 C 
ATOM      4  O   UNL     1       4.847   3.156  19.776  0.00  0.00    +0.000 OA
ENDROOT
BRANCH   3   5
ATOM      5  C   UNL     1       5.236   4.548  17.942  0.00  0.00    +0.000 A 
ATOM      6  C   UNL     1       4.973   4.006  16.689  0.00  0.00    +0.000 A 
ATOM      7  C   UNL     1       5.811   4.269  15.607  0.00  0.00    +0.000 A 
ATOM      8  C   UNL     1       6.829   5.202  15.723  0.00  0.00    +0.000 A 
ATOM      9  C   UNL     1       7.060   5.796  16.966  0.00  0.00    +0.000 A 
ATOM     10  C   UNL     1       6.270   5.472  18.071  0.00  0.00    +0.000 A 
BRANCH   8  11
ATOM     11  N   UNL     1       7.727   5.383  14.668  0.00  0.00    +0.000 N 
ATOM     12  H   UNL     1       8.698   5.259  14.919  0.00  0.00    +0.000 HD
ATOM     13  H   UNL     1       7.469   4.889  13.821  0.00  0.00    +0.000 HD
ENDBRANCH   8  11
ENDBRANCH   3   5
BRANCH   2  14
ATOM     14  C   UNL     1       2.612   5.863  18.730  0.00  0.00    +0.000 C 
BRANCH  14  15
ATOM     15  C   UNL     1       2.046   6.993  19.538  0.00  0.00    +0.000 A 
ATOM     16  C   UNL     1       1.582   7.001  20.822  0.00  0.00    +0.000 A 
ATOM     17  C   UNL     1       1.084   8.284  21.130  0.00  0.00    +0.000 A 
ATOM     18  C   UNL     1       0.485   8.845  22.272  0.00  0.00    +0.000 A 
ATOM     19  C   UNL     1       0.099  10.184  22.257  0.00  0.00    +0.000 A 
ATOM     20  C   UNL     1       0.303  10.965  21.123  0.00  0.00    +0.000 A 
ATOM     21  C   UNL     1       0.895  10.430  19.975  0.00  0.00    +0.000 A 
ATOM     22  C   UNL     1       1.277   9.082  19.994  0.00  0.00    +0.000 A 
ATOM     23  N   UNL     1       1.861   8.276  19.025  0.00  0.00    +0.000 N 
ATOM     24  C   UNL     1       2.191   8.690  17.682  0.00  0.00    +0.000 C 
ENDBRANCH  14  15
ENDBRANCH   2  14
TORSDOF 4
ENDMDL
MODEL 9
REMARK VINA RESULT:      -6.9      3.614      5.403
REMARK  Name = 
REMARK  6 active torsions:
REMARK  status: ('A' for Active; 'I' for Inactive)
REMARK    1  A    between atoms: C_1  and  N_2
REMARK    2  A    between atoms: N_2  and  C_3
REMARK    3  A    between atoms: C_3  and  C_4
REMARK    4  A    between atoms: N_12  and  C_13
REMARK    5  A    between atoms: C_14  and  C_16
REMARK    6  A    between atoms: C_19  and  N_20
REMARK                            x       y       z     vdW  Elec       q    Type
REMARK                         _______ _______ _______ _____ _____    ______ ____
ROOT
ATOM      1  C   UNL     1       1.320   5.365  20.623  0.00  0.00    +0.000 C 
ATOM      2  N   UNL     1       2.442   5.784  19.778  0.00  0.00    +0.000 N 
ATOM      3  C   UNL     1       3.273   4.757  19.328  0.00  0.00    +0.000 C 
ATOM      4  O   UNL     1       3.029   3.565  19.602  0.00  0.00    +0.000 OA
ENDROOT
BRANCH   3   5
ATOM      5  C   UNL     1       4.454   5.021  18.461  0.00  0.00    +0.000 A 
ATOM      6  C   UNL     1       5.696   5.365  18.984  0.00  0.00    +0.000 A 
ATOM      7  C   UNL     1       6.741   5.752  18.147  0.00  0.00    +0.000 A 
ATOM      8  C   UNL     1       6.609   5.648  16.771  0.00  0.00    +0.000 A 
ATOM      9  C   UNL     1       5.381   5.244  16.241  0.00  0.00    +0.000 A 
ATOM     10  C   UNL     1       4.309   4.932  17.079  0.00  0.00    +0.000 A 
BRANCH   8  11
ATOM     11  N   UNL     1       7.620   6.134  15.938  0.00  0.00    +0.000 N 
ATOM     12  H   UNL     1       7.722   5.632  15.067  0.00  0.00    +0.000 HD
ATOM     13  H   UNL     1       7.601   7.142  15.816  0.00  0.00    +0.000 HD
ENDBRANCH   8  11
ENDBRANCH   3   5
BRANCH   2  14
ATOM     14  C   UNL     1       2.461   7.169  19.267  0.00  0.00    +0.000 C 
BRANCH  14  15
ATOM     15  C   UNL     1       1.672   8.118  20.119  0.00  0.00    +0.000 A 
ATOM     16  C   UNL     1       1.412   8.078  21.459  0.00  0.00    +0.000 A 
ATOM     17  C   UNL     1       0.568   9.154  21.802  0.00  0.00    +0.000 A 
ATOM     18  C   UNL     1      -0.018   9.583  23.006  0.00  0.00    +0.000 A 
ATOM     19  C   UNL     1      -0.821  10.723  23.011  0.00  0.00    +0.000 A 
ATOM     20  C   UNL     1      -1.042  11.437  21.837  0.00  0.00    +0.000 A 
ATOM     21  C   UNL     1      -0.470  11.030  20.628  0.00  0.00    +0.000 A 
ATOM     22  C   UNL     1       0.332   9.880  20.627  0.00  0.00    +0.000 A 
ATOM     23  N   UNL     1       1.009   9.230  19.604  0.00  0.00    +0.000 N 
ATOM     24  C   UNL     1       0.997   9.621  18.214  0.00  0.00    +0.000 C 
ENDBRANCH  14  15
ENDBRANCH   2  14
TORSDOF 4
ENDMDL
