MODEL 1
REMARK VINA RESULT:      -8.1      0.000      0.000
REMARK  Name = 
REMARK  11 active torsions:
REMARK  status: ('A' for Active; 'I' for Inactive)
REMARK    1  A    between atoms: C_1  and  O_2
REMARK    2  A    between atoms: O_2  and  C_3
REMARK    3  A    between atoms: C_3  and  C_4
REMARK    4  A    between atoms: C_4  and  O_5
REMARK    5  A    between atoms: O_5  and  C_6
REMARK    6  A    between atoms: N_13  and  C_14
REMARK    7  A    between atoms: C_18  and  O_19
REMARK    8  A    between atoms: O_19  and  C_20
REMARK    9  A    between atoms: C_20  and  C_21
REMARK   10  A    between atoms: C_33  and  O_34
REMARK   11  A    between atoms: O_34  and  C_35
REMARK                            x       y       z     vdW  Elec       q    Type
REMARK                         _______ _______ _______ _____ _____    ______ ____
ROOT
ATOM      1  C   UNL     1       3.539   5.218  19.083  0.00  0.00    +0.000 A 
ATOM      2  C   UNL     1       3.485   6.282  18.147  0.00  0.00    +0.000 A 
ATOM      3  C   UNL     1       2.744   7.476  18.341  0.00  0.00    +0.000 A 
ATOM      4  N   UNL     1       2.748   8.453  17.441  0.00  0.00    +0.000 NA
ATOM      5  C   UNL     1       2.023   9.554  17.716  0.00  0.00    +0.000 A 
ATOM      6  N   UNL     1       1.342   9.783  18.837  0.00  0.00    +0.000 NA
ATOM      7  C   UNL     1       1.360   8.829  19.767  0.00  0.00    +0.000 A 
ATOM      8  N   UNL     1       0.725   9.085  21.012  0.00  0.00    +0.000 N 
ATOM      9  C   UNL     1       2.003   7.586  19.523  0.00  0.00    +0.000 A 
ATOM     10  C   UNL     1       1.952   6.473  20.361  0.00  0.00    +0.000 A 
ATOM     11  C   UNL     1       2.775   5.346  20.244  0.00  0.00    +0.000 A 
ATOM     12  H   UNL     1       1.368   8.961  21.796  0.00  0.00    +0.000 HD
ENDROOT
BRANCH   8  13
ATOM     13  C   UNL     1      -0.241  10.076  21.268  0.00  0.00    +0.000 C 
ATOM     14  C   UNL     1      -0.981  10.719  20.396  0.00  0.00    +0.000 C 
ATOM     15  C   UNL     1      -1.763  11.950  20.687  0.00  0.00    +0.000 C 
ATOM     16  O   UNL     1      -2.295  12.551  19.763  0.00  0.00    +0.000 OA
ATOM     17  C   UNL     1      -1.765  12.433  22.099  0.00  0.00    +0.000 C 
ATOM     18  C   UNL     1      -1.136  11.705  23.025  0.00  0.00    +0.000 C 
ATOM     19  C   UNL     1      -0.402  10.451  22.730  0.00  0.00    +0.000 C 
ATOM     20  O   UNL     1       0.081   9.788  23.637  0.00  0.00    +0.000 OA
BRANCH  17  21
ATOM     21  O   UNL     1      -2.343  13.636  22.499  0.00  0.00    +0.000 OA
BRANCH  21  22
ATOM     22  C   UNL     1      -2.795  13.752  23.852  0.00  0.00    +0.000 C 
BRANCH  22  23
ATOM     23  C   UNL     1      -4.311  13.842  23.896  0.00  0.00    +0.000 A 
ATOM     24  C   UNL     1      -5.077  12.677  24.094  0.00  0.00    +0.000 A 
ATOM     25  C   UNL     1      -6.475  12.728  24.127  0.00  0.00    +0.000 A 
ATOM     26  C   UNL     1      -7.128  13.945  23.946  0.00  0.00    +0.000 A 
ATOM     27  C   UNL     1      -6.379  15.095  23.726  0.00  0.00    +0.000 A 
ATOM     28  F   UNL     1      -7.009  16.262  23.540  0.00  0.00    +0.000 F 
ATOM     29  C   UNL     1      -4.987  15.054  23.692  0.00  0.00    +0.000 A 
ENDBRANCH  22  23
ENDBRANCH  21  22
ENDBRANCH  17  21
ENDBRANCH   8  13
BRANCH  11  30
ATOM     30  O   UNL     1       2.641   4.659  21.406  0.00  0.00    +0.000 OA
ATOM     31  C   UNL     1       1.968   3.453  21.611  0.00  0.00    +0.000 C 
ENDBRANCH  11  30
BRANCH   1  32
ATOM     32  O   UNL     1       4.369   4.188  18.716  0.00  0.00    +0.000 OA
BRANCH  32  33
ATOM     33  C   UNL     1       3.878   3.367  17.659  0.00  0.00    +0.000 C 
BRANCH  33  34
ATOM     34  C   UNL     1       2.915   2.283  18.097  0.00  0.00    +0.000 C 
BRANCH  34  36
ATOM     35  C   UNL     1       0.623   2.366  18.709  0.00  0.00    +0.000 C 
ATOM     36  O   UNL     1       1.604   2.761  17.766  0.00  0.00    +0.000 OA
ENDBRANCH  34  36
ENDBRANCH  33  34
ENDBRANCH  32  33
ENDBRANCH   1  32
TORSDOF 9
ENDMDL
MODEL 2
REMARK VINA RESULT:      -8.0      1.247      1.983
REMARK  Name = 
REMARK  11 active torsions:
REMARK  status: ('A' for Active; 'I' for Inactive)
REMARK    1  A    between atoms: C_1  and  O_2
REMARK    2  A    between atoms: O_2  and  C_3
REMARK    3  A    between atoms: C_3  and  C_4
REMARK    4  A    between atoms: C_4  and  O_5
REMARK    5  A    between atoms: O_5  and  C_6
REMARK    6  A    between atoms: N_13  and  C_14
REMARK    7  A    between atoms: C_18  and  O_19
REMARK    8  A    between atoms: O_19  and  C_20
REMARK    9  A    between atoms: C_20  and  C_21
REMARK   10  A    between atoms: C_33  and  O_34
REMARK   11  A    between atoms: O_34  and  C_35
REMARK                            x       y       z     vdW  Elec       q    Type
REMARK                         _______ _______ _______ _____ _____    ______ ____
ROOT
ATOM      1  C   UNL     1       3.377   5.112  19.149  0.00  0.00    +0.000 A 
ATOM      2  C   UNL     1       3.408   6.190  18.227  0.00  0.00    +0.000 A 
ATOM      3  C   UNL     1       2.710   7.411  18.407  0.00  0.00    +0.000 A 
ATOM      4  N   UNL     1       2.794   8.399  17.523  0.00  0.00    +0.000 NA
ATOM      5  C   UNL     1       2.104   9.526  17.784  0.00  0.00    +0.000 A 
ATOM      6  N   UNL     1       1.386   9.769  18.878  0.00  0.00    +0.000 NA
ATOM      7  C   UNL     1       1.323   8.803  19.794  0.00  0.00    +0.000 A 
ATOM      8  N   UNL     1       0.646   9.068  21.014  0.00  0.00    +0.000 N 
ATOM      9  C   UNL     1       1.924   7.536  19.558  0.00  0.00    +0.000 A 
ATOM     10  C   UNL     1       1.790   6.416  20.377  0.00  0.00    +0.000 A 
ATOM     11  C   UNL     1       2.570   5.257  20.277  0.00  0.00    +0.000 A 
ATOM     12  H   UNL     1       1.249   8.907  21.822  0.00  0.00    +0.000 HD
ENDROOT
BRANCH   8  13
ATOM     13  C   UNL     1      -0.287  10.096  21.243  0.00  0.00    +0.000 C 
ATOM     14  C   UNL     1      -1.004  10.742  20.355  0.00  0.00    +0.000 C 
ATOM     15  C   UNL     1      -1.746  12.004  20.613  0.00  0.00    +0.000 C 
ATOM     16  O   UNL     1      -2.256  12.601  19.673  0.00  0.00    +0.000 OA
ATOM     17  C   UNL     1      -1.736  12.520  22.014  0.00  0.00    +0.000 C 
ATOM     18  C   UNL     1      -1.134  11.794  22.958  0.00  0.00    +0.000 C 
ATOM     19  C   UNL     1      -0.440  10.510  22.696  0.00  0.00    +0.000 C 
ATOM     20  O   UNL     1       0.019   9.854  23.619  0.00  0.00    +0.000 OA
BRANCH  17  21
ATOM     21  O   UNL     1      -2.275  13.751  22.384  0.00  0.00    +0.000 OA
BRANCH  21  22
ATOM     22  C   UNL     1      -2.718  13.916  23.735  0.00  0.00    +0.000 C 
BRANCH  22  23
ATOM     23  C   UNL     1      -4.233  14.017  23.786  0.00  0.00    +0.000 A 
ATOM     24  C   UNL     1      -4.853  15.280  23.732  0.00  0.00    +0.000 A 
ATOM     25  C   UNL     1      -6.246  15.404  23.789  0.00  0.00    +0.000 A 
ATOM     26  C   UNL     1      -7.038  14.265  23.916  0.00  0.00    +0.000 A 
ATOM     27  C   UNL     1      -6.431  13.017  23.994  0.00  0.00    +0.000 A 
ATOM     28  F   UNL     1      -7.194  11.925  24.129  0.00  0.00    +0.000 F 
ATOM     29  C   UNL     1      -5.045  12.884  23.938  0.00  0.00    +0.000 A 
ENDBRANCH  22  23
ENDBRANCH  21  22
ENDBRANCH  17  21
ENDBRANCH   8  13
BRANCH  11  30
ATOM     30  O   UNL     1       2.357   4.560  21.422  0.00  0.00    +0.000 OA
ATOM     31  C   UNL     1       2.083   3.197  21.554  0.00  0.00    +0.000 C 
ENDBRANCH  11  30
BRANCH   1  32
ATOM     32  O   UNL     1       4.178   4.052  18.802  0.00  0.00    +0.000 OA
BRANCH  32  33
ATOM     33  C   UNL     1       5.220   4.362  17.879  0.00  0.00    +0.000 C 
BRANCH  33  34
ATOM     34  C   UNL     1       4.957   3.915  16.456  0.00  0.00    +0.000 C 
BRANCH  34  36
ATOM     35  C   UNL     1       6.717   4.810  15.139  0.00  0.00    +0.000 C 
ATOM     36  O   UNL     1       6.246   3.690  15.867  0.00  0.00    +0.000 OA
ENDBRANCH  34  36
ENDBRANCH  33  34
ENDBRANCH  32  33
ENDBRANCH   1  32
TORSDOF 9
ENDMDL
MODEL 3
REMARK VINA RESULT:      -7.7      4.033     10.159
REMARK  Name = 
REMARK  11 active torsions:
REMARK  status: ('A' for Active; 'I' for Inactive)
REMARK    1  A    between atoms: C_1  and  O_2
REMARK    2  A    between atoms: O_2  and  C_3
REMARK    3  A    between atoms: C_3  and  C_4
REMARK    4  A    between atoms: C_4  and  O_5
REMARK    5  A    between atoms: O_5  and  C_6
REMARK    6  A    between atoms: N_13  and  C_14
REMARK    7  A    between atoms: C_18  and  O_19
REMARK    8  A    between atoms: O_19  and  C_20
REMARK    9  A    between atoms: C_20  and  C_21
REMARK   10  A    between atoms: C_33  and  O_34
REMARK   11  A    between atoms: O_34  and  C_35
REMARK                            x       y       z     vdW  Elec       q    Type
REMARK                         _______ _______ _______ _____ _____    ______ ____
ROOT
ATOM      1  C   UNL     1      -3.387  11.633  18.368  0.00  0.00    +0.000 A 
ATOM      2  C   UNL     1      -2.461  12.133  19.319  0.00  0.00    +0.000 A 
ATOM      3  C   UNL     1      -1.162  11.601  19.520  0.00  0.00    +0.000 A 
ATOM      4  N   UNL     1      -0.324  12.125  20.408  0.00  0.00    +0.000 NA
ATOM      5  C   UNL     1       0.893  11.560  20.523  0.00  0.00    +0.000 A 
ATOM      6  N   UNL     1       1.362  10.553  19.788  0.00  0.00    +0.000 NA
ATOM      7  C   UNL     1       0.547  10.042  18.865  0.00  0.00    +0.000 A 
ATOM      8  N   UNL     1       1.052   9.035  18.000  0.00  0.00    +0.000 N 
ATOM      9  C   UNL     1      -0.794  10.496  18.745  0.00  0.00    +0.000 A 
ATOM     10  C   UNL     1      -1.767   9.929  17.923  0.00  0.00    +0.000 A 
ATOM     11  C   UNL     1      -3.001  10.519  17.623  0.00  0.00    +0.000 A 
ATOM     12  H   UNL     1       0.947   9.295  17.017  0.00  0.00    +0.000 HD
ENDROOT
BRANCH   8  13
ATOM     13  C   UNL     1       2.191   8.239  18.221  0.00  0.00    +0.000 C 
ATOM     14  C   UNL     1       3.246   8.117  17.451  0.00  0.00    +0.000 C 
ATOM     15  C   UNL     1       4.277   7.053  17.580  0.00  0.00    +0.000 C 
ATOM     16  O   UNL     1       5.136   6.945  16.714  0.00  0.00    +0.000 OA
ATOM     17  C   UNL     1       4.134   6.109  18.727  0.00  0.00    +0.000 C 
ATOM     18  C   UNL     1       3.147   6.311  19.603  0.00  0.00    +0.000 C 
ATOM     19  C   UNL     1       2.156   7.408  19.491  0.00  0.00    +0.000 C 
ATOM     20  O   UNL     1       1.328   7.588  20.372  0.00  0.00    +0.000 OA
BRANCH  17  21
ATOM     21  O   UNL     1       4.943   4.988  18.906  0.00  0.00    +0.000 OA
BRANCH  21  22
ATOM     22  C   UNL     1       4.579   3.778  18.234  0.00  0.00    +0.000 C 
BRANCH  22  23
ATOM     23  C   UNL     1       3.275   3.235  18.794  0.00  0.00    +0.000 A 
ATOM     24  C   UNL     1       2.152   3.107  17.955  0.00  0.00    +0.000 A 
ATOM     25  C   UNL     1       0.935   2.622  18.446  0.00  0.00    +0.000 A 
ATOM     26  C   UNL     1       0.820   2.271  19.789  0.00  0.00    +0.000 A 
ATOM     27  C   UNL     1       1.919   2.417  20.628  0.00  0.00    +0.000 A 
ATOM     28  F   UNL     1       1.802   2.091  21.922  0.00  0.00    +0.000 F 
ATOM     29  C   UNL     1       3.134   2.899  20.148  0.00  0.00    +0.000 A 
ENDBRANCH  22  23
ENDBRANCH  21  22
ENDBRANCH  17  21
ENDBRANCH   8  13
BRANCH  11  30
ATOM     30  O   UNL     1      -3.502   9.829  16.567  0.00  0.00    +0.000 OA
ATOM     31  C   UNL     1      -3.492  10.200  15.222  0.00  0.00    +0.000 C 
ENDBRANCH  11  30
BRANCH   1  32
ATOM     32  O   UNL     1      -4.561  12.341  18.300  0.00  0.00    +0.000 OA
BRANCH  32  33
ATOM     33  C   UNL     1      -5.575  11.915  19.207  0.00  0.00    +0.000 C 
BRANCH  33  34
ATOM     34  C   UNL     1      -6.674  11.082  18.579  0.00  0.00    +0.000 C 
BRANCH  34  36
ATOM     35  C   UNL     1      -7.525  11.355  20.778  0.00  0.00    +0.000 C 
ATOM     36  O   UNL     1      -7.389  10.484  19.669  0.00  0.00    +0.000 OA
ENDBRANCH  34  36
ENDBRANCH  33  34
ENDBRANCH  32  33
ENDBRANCH   1  32
TORSDOF 9
ENDMDL
MODEL 4
REMARK VINA RESULT:      -7.6      1.707      2.130
REMARK  Name = 
REMARK  11 active torsions:
REMARK  status: ('A' for Active; 'I' for Inactive)
REMARK    1  A    between atoms: C_1  and  O_2
REMARK    2  A    between atoms: O_2  and  C_3
REMARK    3  A    between atoms: C_3  and  C_4
REMARK    4  A    between atoms: C_4  and  O_5
REMARK    5  A    between atoms: O_5  and  C_6
REMARK    6  A    between atoms: N_13  and  C_14
REMARK    7  A    between atoms: C_18  and  O_19
REMARK    8  A    between atoms: O_19  and  C_20
REMARK    9  A    between atoms: C_20  and  C_21
REMARK   10  A    between atoms: C_33  and  O_34
REMARK   11  A    between atoms: O_34  and  C_35
REMARK                            x       y       z     vdW  Elec       q    Type
REMARK                         _______ _______ _______ _____ _____    ______ ____
ROOT
ATOM      1  C   UNL     1       3.873   4.057  19.657  0.00  0.00    +0.000 A 
ATOM      2  C   UNL     1       4.122   5.006  18.633  0.00  0.00    +0.000 A 
ATOM      3  C   UNL     1       3.484   6.270  18.547  0.00  0.00    +0.000 A 
ATOM      4  N   UNL     1       3.774   7.132  17.579  0.00  0.00    +0.000 NA
ATOM      5  C   UNL     1       3.125   8.313  17.584  0.00  0.00    +0.000 A 
ATOM      6  N   UNL     1       2.255   8.724  18.504  0.00  0.00    +0.000 NA
ATOM      7  C   UNL     1       1.982   7.885  19.504  0.00  0.00    +0.000 A 
ATOM      8  N   UNL     1       1.134   8.333  20.552  0.00  0.00    +0.000 N 
ATOM      9  C   UNL     1       2.531   6.574  19.525  0.00  0.00    +0.000 A 
ATOM     10  C   UNL     1       2.194   5.574  20.436  0.00  0.00    +0.000 A 
ATOM     11  C   UNL     1       2.904   4.379  20.607  0.00  0.00    +0.000 A 
ATOM     12  H   UNL     1       1.586   8.250  21.464  0.00  0.00    +0.000 HD
ENDROOT
BRANCH   8  13
ATOM     13  C   UNL     1       0.244   9.421  20.497  0.00  0.00    +0.000 C 
ATOM     14  C   UNL     1      -0.608   9.713  19.543  0.00  0.00    +0.000 C 
ATOM     15  C   UNL     1      -1.307  11.018  19.395  0.00  0.00    +0.000 C 
ATOM     16  O   UNL     1      -1.962  11.233  18.383  0.00  0.00    +0.000 OA
ATOM     17  C   UNL     1      -1.077  12.033  20.464  0.00  0.00    +0.000 C 
ATOM     18  C   UNL     1      -0.329  11.696  21.516  0.00  0.00    +0.000 C 
ATOM     19  C   UNL     1       0.321  10.373  21.677  0.00  0.00    +0.000 C 
ATOM     20  O   UNL     1       0.925  10.099  22.705  0.00  0.00    +0.000 OA
BRANCH  17  21
ATOM     21  O   UNL     1      -1.557  13.340  20.399  0.00  0.00    +0.000 OA
BRANCH  21  22
ATOM     22  C   UNL     1      -2.937  13.569  20.702  0.00  0.00    +0.000 C 
BRANCH  22  23
ATOM     23  C   UNL     1      -3.135  13.691  22.203  0.00  0.00    +0.000 A 
ATOM     24  C   UNL     1      -2.500  14.729  22.911  0.00  0.00    +0.000 A 
ATOM     25  C   UNL     1      -2.654  14.860  24.296  0.00  0.00    +0.000 A 
ATOM     26  C   UNL     1      -3.435  13.942  24.995  0.00  0.00    +0.000 A 
ATOM     27  C   UNL     1      -4.045  12.901  24.306  0.00  0.00    +0.000 A 
ATOM     28  F   UNL     1      -4.784  12.012  24.982  0.00  0.00    +0.000 F 
ATOM     29  C   UNL     1      -3.897  12.763  22.927  0.00  0.00    +0.000 A 
ENDBRANCH  22  23
ENDBRANCH  21  22
ENDBRANCH  17  21
ENDBRANCH   8  13
BRANCH  11  30
ATOM     30  O   UNL     1       2.464   3.843  21.774  0.00  0.00    +0.000 OA
ATOM     31  C   UNL     1       1.798   2.631  21.958  0.00  0.00    +0.000 C 
ENDBRANCH  11  30
BRANCH   1  32
ATOM     32  O   UNL     1       4.650   2.928  19.578  0.00  0.00    +0.000 OA
BRANCH  32  33
ATOM     33  C   UNL     1       3.945   1.732  19.257  0.00  0.00    +0.000 C 
BRANCH  33  34
ATOM     34  C   UNL     1       2.894   1.889  18.177  0.00  0.00    +0.000 C 
BRANCH  34  36
ATOM     35  C   UNL     1       0.647   2.548  18.565  0.00  0.00    +0.000 C 
ATOM     36  O   UNL     1       1.640   1.565  18.795  0.00  0.00    +0.000 OA
ENDBRANCH  34  36
ENDBRANCH  33  34
ENDBRANCH  32  33
ENDBRANCH   1  32
TORSDOF 9
ENDMDL
MODEL 5
REMARK VINA RESULT:      -7.5      2.627      3.972
REMARK  Name = 
REMARK  11 active torsions:
REMARK  status: ('A' for Active; 'I' for Inactive)
REMARK    1  A    between atoms: C_1  and  O_2
REMARK    2  A    between atoms: O_2  and  C_3
REMARK    3  A    between atoms: C_3  and  C_4
REMARK    4  A    between atoms: C_4  and  O_5
REMARK    5  A    between atoms: O_5  and  C_6
REMARK    6  A    between atoms: N_13  and  C_14
REMARK    7  A    between atoms: C_18  and  O_19
REMARK    8  A    between atoms: O_19  and  C_20
REMARK    9  A    between atoms: C_20  and  C_21
REMARK   10  A    between atoms: C_33  and  O_34
REMARK   11  A    between atoms: O_34  and  C_35
REMARK                            x       y       z     vdW  Elec       q    Type
REMARK                         _______ _______ _______ _____ _____    ______ ____
ROOT
ATOM      1  C   UNL     1       4.877   4.563  17.441  0.00  0.00    +0.000 A 
ATOM      2  C   UNL     1       3.905   3.946  18.270  0.00  0.00    +0.000 A 
ATOM      3  C   UNL     1       2.994   4.658  19.091  0.00  0.00    +0.000 A 
ATOM      4  N   UNL     1       2.086   4.030  19.830  0.00  0.00    +0.000 NA
ATOM      5  C   UNL     1       1.255   4.789  20.572  0.00  0.00    +0.000 A 
ATOM      6  N   UNL     1       1.220   6.120  20.593  0.00  0.00    +0.000 NA
ATOM      7  C   UNL     1       2.099   6.765  19.826  0.00  0.00    +0.000 A 
ATOM      8  N   UNL     1       2.022   8.181  19.752  0.00  0.00    +0.000 N 
ATOM      9  C   UNL     1       3.089   6.053  19.096  0.00  0.00    +0.000 A 
ATOM     10  C   UNL     1       4.143   6.633  18.390  0.00  0.00    +0.000 A 
ATOM     11  C   UNL     1       4.963   5.955  17.480  0.00  0.00    +0.000 A 
ATOM     12  H   UNL     1       1.922   8.503  18.788  0.00  0.00    +0.000 HD
ENDROOT
BRANCH   8  13
ATOM     13  C   UNL     1       1.371   9.030  20.666  0.00  0.00    +0.000 C 
ATOM     14  C   UNL     1       1.227   8.858  21.959  0.00  0.00    +0.000 C 
ATOM     15  C   UNL     1       0.289   9.624  22.821  0.00  0.00    +0.000 C 
ATOM     16  O   UNL     1       0.127   9.276  23.984  0.00  0.00    +0.000 OA
ATOM     17  C   UNL     1      -0.481  10.726  22.172  0.00  0.00    +0.000 C 
ATOM     18  C   UNL     1      -0.236  11.008  20.891  0.00  0.00    +0.000 C 
ATOM     19  C   UNL     1       0.741  10.269  20.055  0.00  0.00    +0.000 C 
ATOM     20  O   UNL     1       0.979  10.632  18.912  0.00  0.00    +0.000 OA
BRANCH  17  21
ATOM     21  O   UNL     1      -1.487  11.444  22.816  0.00  0.00    +0.000 OA
BRANCH  21  22
ATOM     22  C   UNL     1      -1.939  12.661  22.214  0.00  0.00    +0.000 C 
BRANCH  22  23
ATOM     23  C   UNL     1      -3.457  12.723  22.224  0.00  0.00    +0.000 A 
ATOM     24  C   UNL     1      -4.162  12.813  21.008  0.00  0.00    +0.000 A 
ATOM     25  C   UNL     1      -5.559  12.884  20.987  0.00  0.00    +0.000 A 
ATOM     26  C   UNL     1      -6.271  12.881  22.184  0.00  0.00    +0.000 A 
ATOM     27  C   UNL     1      -5.580  12.816  23.389  0.00  0.00    +0.000 A 
ATOM     28  F   UNL     1      -6.266  12.827  24.539  0.00  0.00    +0.000 F 
ATOM     29  C   UNL     1      -4.189  12.746  23.419  0.00  0.00    +0.000 A 
ENDBRANCH  22  23
ENDBRANCH  21  22
ENDBRANCH  17  21
ENDBRANCH   8  13
BRANCH  11  30
ATOM     30  O   UNL     1       5.629   6.912  16.787  0.00  0.00    +0.000 OA
ATOM     31  C   UNL     1       6.879   7.462  17.077  0.00  0.00    +0.000 C 
ENDBRANCH  11  30
BRANCH   1  32
ATOM     32  O   UNL     1       5.610   3.683  16.684  0.00  0.00    +0.000 OA
BRANCH  32  33
ATOM     33  C   UNL     1       5.582   3.928  15.280  0.00  0.00    +0.000 C 
BRANCH  33  34
ATOM     34  C   UNL     1       6.881   4.455  14.705  0.00  0.00    +0.000 C 
BRANCH  34  36
ATOM     35  C   UNL     1       5.682   3.471  12.908  0.00  0.00    +0.000 C 
ATOM     36  O   UNL     1       6.790   4.269  13.286  0.00  0.00    +0.000 OA
ENDBRANCH  34  36
ENDBRANCH  33  34
ENDBRANCH  32  33
ENDBRANCH   1  32
TORSDOF 9
ENDMDL
MODEL 6
REMARK VINA RESULT:      -7.5      4.042     11.255
REMARK  Name = 
REMARK  11 active torsions:
REMARK  status: ('A' for Active; 'I' for Inactive)
REMARK    1  A    between atoms: C_1  and  O_2
REMARK    2  A    between atoms: O_2  and  C_3
REMARK    3  A    between atoms: C_3  and  C_4
REMARK    4  A    between atoms: C_4  and  O_5
REMARK    5  A    between atoms: O_5  and  C_6
REMARK    6  A    between atoms: N_13  and  C_14
REMARK    7  A    between atoms: C_18  and  O_19
REMARK    8  A    between atoms: O_19  and  C_20
REMARK    9  A    between atoms: C_20  and  C_21
REMARK   10  A    between atoms: C_33  and  O_34
REMARK   11  A    between atoms: O_34  and  C_35
REMARK                            x       y       z     vdW  Elec       q    Type
REMARK                         _______ _______ _______ _____ _____    ______ ____
ROOT
ATOM      1  C   UNL     1      -1.152  14.234  21.595  0.00  0.00    +0.000 A 
ATOM      2  C   UNL     1      -1.305  13.226  22.582  0.00  0.00    +0.000 A 
ATOM      3  C   UNL     1      -0.820  11.900  22.445  0.00  0.00    +0.000 A 
ATOM      4  N   UNL     1      -0.969  11.001  23.412  0.00  0.00    +0.000 NA
ATOM      5  C   UNL     1      -0.467   9.770  23.198  0.00  0.00    +0.000 A 
ATOM      6  N   UNL     1       0.219   9.379  22.125  0.00  0.00    +0.000 NA
ATOM      7  C   UNL     1       0.411  10.281  21.163  0.00  0.00    +0.000 A 
ATOM      8  N   UNL     1       1.221   9.924  20.052  0.00  0.00    +0.000 N 
ATOM      9  C   UNL     1      -0.177  11.573  21.247  0.00  0.00    +0.000 A 
ATOM     10  C   UNL     1      -0.166  12.531  20.234  0.00  0.00    +0.000 A 
ATOM     11  C   UNL     1      -0.524  13.874  20.403  0.00  0.00    +0.000 A 
ATOM     12  H   UNL     1       1.997  10.577  19.926  0.00  0.00    +0.000 HD
ENDROOT
BRANCH   8  13
ATOM     13  C   UNL     1       1.554   8.618  19.648  0.00  0.00    +0.000 C 
ATOM     14  C   UNL     1       1.520   7.522  20.368  0.00  0.00    +0.000 C 
ATOM     15  C   UNL     1       2.156   6.233  19.987  0.00  0.00    +0.000 C 
ATOM     16  O   UNL     1       2.193   5.321  20.803  0.00  0.00    +0.000 OA
ATOM     17  C   UNL     1       2.806   6.170  18.645  0.00  0.00    +0.000 C 
ATOM     18  C   UNL     1       2.719   7.232  17.841  0.00  0.00    +0.000 C 
ATOM     19  C   UNL     1       2.037   8.495  18.214  0.00  0.00    +0.000 C 
ATOM     20  O   UNL     1       1.921   9.400  17.400  0.00  0.00    +0.000 OA
BRANCH  17  21
ATOM     21  O   UNL     1       3.550   5.077  18.202  0.00  0.00    +0.000 OA
BRANCH  21  22
ATOM     22  C   UNL     1       4.489   5.285  17.142  0.00  0.00    +0.000 C 
BRANCH  22  23
ATOM     23  C   UNL     1       5.779   5.872  17.687  0.00  0.00    +0.000 A 
ATOM     24  C   UNL     1       6.355   6.996  17.066  0.00  0.00    +0.000 A 
ATOM     25  C   UNL     1       7.549   7.551  17.539  0.00  0.00    +0.000 A 
ATOM     26  C   UNL     1       8.194   6.978  18.632  0.00  0.00    +0.000 A 
ATOM     27  C   UNL     1       7.644   5.853  19.236  0.00  0.00    +0.000 A 
ATOM     28  F   UNL     1       8.272   5.296  20.279  0.00  0.00    +0.000 F 
ATOM     29  C   UNL     1       6.455   5.294  18.772  0.00  0.00    +0.000 A 
ENDBRANCH  22  23
ENDBRANCH  21  22
ENDBRANCH  17  21
ENDBRANCH   8  13
BRANCH  11  30
ATOM     30  O   UNL     1      -0.078  14.525  19.299  0.00  0.00    +0.000 OA
ATOM     31  C   UNL     1       1.234  14.609  18.829  0.00  0.00    +0.000 C 
ENDBRANCH  11  30
BRANCH   1  32
ATOM     32  O   UNL     1      -1.643  15.462  21.966  0.00  0.00    +0.000 OA
BRANCH  32  33
ATOM     33  C   UNL     1      -2.540  15.442  23.074  0.00  0.00    +0.000 C 
BRANCH  33  34
ATOM     34  C   UNL     1      -3.999  15.619  22.708  0.00  0.00    +0.000 C 
BRANCH  34  36
ATOM     35  C   UNL     1      -6.069  15.767  23.862  0.00  0.00    +0.000 C 
ATOM     36  O   UNL     1      -4.747  15.259  23.879  0.00  0.00    +0.000 OA
ENDBRANCH  34  36
ENDBRANCH  33  34
ENDBRANCH  32  33
ENDBRANCH   1  32
TORSDOF 9
ENDMDL
MODEL 7
REMARK VINA RESULT:      -7.5      2.590      4.035
REMARK  Name = 
REMARK  11 active torsions:
REMARK  status: ('A' for Active; 'I' for Inactive)
REMARK    1  A    between atoms: C_1  and  O_2
REMARK    2  A    between atoms: O_2  and  C_3
REMARK    3  A    between atoms: C_3  and  C_4
REMARK    4  A    between atoms: C_4  and  O_5
REMARK    5  A    between atoms: O_5  and  C_6
REMARK    6  A    between atoms: N_13  and  C_14
REMARK    7  A    between atoms: C_18  and  O_19
REMARK    8  A    between atoms: O_19  and  C_20
REMARK    9  A    between atoms: C_20  and  C_21
REMARK   10  A    between atoms: C_33  and  O_34
REMARK   11  A    between atoms: O_34  and  C_35
REMARK                            x       y       z     vdW  Elec       q    Type
REMARK                         _______ _______ _______ _____ _____    ______ ____
ROOT
ATOM      1  C   UNL     1       4.968   4.613  17.211  0.00  0.00    +0.000 A 
ATOM      2  C   UNL     1       4.254   3.949  18.242  0.00  0.00    +0.000 A 
ATOM      3  C   UNL     1       3.373   4.597  19.144  0.00  0.00    +0.000 A 
ATOM      4  N   UNL     1       2.710   3.923  20.077  0.00  0.00    +0.000 NA
ATOM      5  C   UNL     1       1.888   4.622  20.883  0.00  0.00    +0.000 A 
ATOM      6  N   UNL     1       1.630   5.925  20.798  0.00  0.00    +0.000 NA
ATOM      7  C   UNL     1       2.257   6.610  19.842  0.00  0.00    +0.000 A 
ATOM      8  N   UNL     1       1.929   7.980  19.663  0.00  0.00    +0.000 N 
ATOM      9  C   UNL     1       3.229   5.983  19.015  0.00  0.00    +0.000 A 
ATOM     10  C   UNL     1       4.047   6.637  18.094  0.00  0.00    +0.000 A 
ATOM     11  C   UNL     1       4.820   5.996  17.118  0.00  0.00    +0.000 A 
ATOM     12  H   UNL     1       1.628   8.174  18.707  0.00  0.00    +0.000 HD
ENDROOT
BRANCH   8  13
ATOM     13  C   UNL     1       1.292   8.814  20.601  0.00  0.00    +0.000 C 
ATOM     14  C   UNL     1       1.488   8.860  21.897  0.00  0.00    +0.000 C 
ATOM     15  C   UNL     1       0.592   9.539  22.870  0.00  0.00    +0.000 C 
ATOM     16  O   UNL     1       0.789   9.389  24.069  0.00  0.00    +0.000 OA
ATOM     17  C   UNL     1      -0.568  10.293  22.310  0.00  0.00    +0.000 C 
ATOM     18  C   UNL     1      -0.695  10.378  20.984  0.00  0.00    +0.000 C 
ATOM     19  C   UNL     1       0.235   9.738  20.023  0.00  0.00    +0.000 C 
ATOM     20  O   UNL     1       0.110   9.924  18.821  0.00  0.00    +0.000 OA
BRANCH  17  21
ATOM     21  O   UNL     1      -1.562  10.871  23.098  0.00  0.00    +0.000 OA
BRANCH  21  22
ATOM     22  C   UNL     1      -1.659  12.298  23.124  0.00  0.00    +0.000 C 
BRANCH  22  23
ATOM     23  C   UNL     1      -3.116  12.729  23.123  0.00  0.00    +0.000 A 
ATOM     24  C   UNL     1      -3.957  12.356  24.189  0.00  0.00    +0.000 A 
ATOM     25  C   UNL     1      -5.306  12.728  24.208  0.00  0.00    +0.000 A 
ATOM     26  C   UNL     1      -5.836  13.466  23.153  0.00  0.00    +0.000 A 
ATOM     27  C   UNL     1      -5.017  13.817  22.087  0.00  0.00    +0.000 A 
ATOM     28  F   UNL     1      -5.532  14.516  21.067  0.00  0.00    +0.000 F 
ATOM     29  C   UNL     1      -3.673  13.452  22.059  0.00  0.00    +0.000 A 
ENDBRANCH  22  23
ENDBRANCH  21  22
ENDBRANCH  17  21
ENDBRANCH   8  13
BRANCH  11  30
ATOM     30  O   UNL     1       5.198   6.962  16.243  0.00  0.00    +0.000 OA
ATOM     31  C   UNL     1       4.887   7.056  14.886  0.00  0.00    +0.000 C 
ENDBRANCH  11  30
BRANCH   1  32
ATOM     32  O   UNL     1       5.713   3.778  16.416  0.00  0.00    +0.000 OA
BRANCH  32  33
ATOM     33  C   UNL     1       6.985   4.292  16.028  0.00  0.00    +0.000 C 
BRANCH  33  34
ATOM     34  C   UNL     1       7.169   4.461  14.534  0.00  0.00    +0.000 C 
BRANCH  34  36
ATOM     35  C   UNL     1       6.240   3.659  12.502  0.00  0.00    +0.000 C 
ATOM     36  O   UNL     1       6.213   3.587  13.917  0.00  0.00    +0.000 OA
ENDBRANCH  34  36
ENDBRANCH  33  34
ENDBRANCH  32  33
ENDBRANCH   1  32
TORSDOF 9
ENDMDL
MODEL 8
REMARK VINA RESULT:      -7.5      2.860      4.460
REMARK  Name = 
REMARK  11 active torsions:
REMARK  status: ('A' for Active; 'I' for Inactive)
REMARK    1  A    between atoms: C_1  and  O_2
REMARK    2  A    between atoms: O_2  and  C_3
REMARK    3  A    between atoms: C_3  and  C_4
REMARK    4  A    between atoms: C_4  and  O_5
REMARK    5  A    between atoms: O_5  and  C_6
REMARK    6  A    between atoms: N_13  and  C_14
REMARK    7  A    between atoms: C_18  and  O_19
REMARK    8  A    between atoms: O_19  and  C_20
REMARK    9  A    between atoms: C_20  and  C_21
REMARK   10  A    between atoms: C_33  and  O_34
REMARK   11  A    between atoms: O_34  and  C_35
REMARK                            x       y       z     vdW  Elec       q    Type
REMARK                         _______ _______ _______ _____ _____    ______ ____
ROOT
ATOM      1  C   UNL     1       4.884   4.521  17.447  0.00  0.00    +0.000 A 
ATOM      2  C   UNL     1       3.900   3.883  18.245  0.00  0.00    +0.000 A 
ATOM      3  C   UNL     1       2.978   4.573  19.072  0.00  0.00    +0.000 A 
ATOM      4  N   UNL     1       2.059   3.926  19.781  0.00  0.00    +0.000 NA
ATOM      5  C   UNL     1       1.219   4.666  20.531  0.00  0.00    +0.000 A 
ATOM      6  N   UNL     1       1.184   5.995  20.588  0.00  0.00    +0.000 NA
ATOM      7  C   UNL     1       2.074   6.661  19.851  0.00  0.00    +0.000 A 
ATOM      8  N   UNL     1       1.998   8.078  19.815  0.00  0.00    +0.000 N 
ATOM      9  C   UNL     1       3.073   5.968  19.116  0.00  0.00    +0.000 A 
ATOM     10  C   UNL     1       4.137   6.566  18.441  0.00  0.00    +0.000 A 
ATOM     11  C   UNL     1       4.969   5.911  17.524  0.00  0.00    +0.000 A 
ATOM     12  H   UNL     1       1.912   8.426  18.858  0.00  0.00    +0.000 HD
ENDROOT
BRANCH   8  13
ATOM     13  C   UNL     1       1.335   8.903  20.742  0.00  0.00    +0.000 C 
ATOM     14  C   UNL     1       1.461   8.904  22.048  0.00  0.00    +0.000 C 
ATOM     15  C   UNL     1       0.532   9.580  22.993  0.00  0.00    +0.000 C 
ATOM     16  O   UNL     1       0.659   9.388  24.195  0.00  0.00    +0.000 OA
ATOM     17  C   UNL     1      -0.573  10.385  22.395  0.00  0.00    +0.000 C 
ATOM     18  C   UNL     1      -0.626  10.513  21.067  0.00  0.00    +0.000 C 
ATOM     19  C   UNL     1       0.337   9.875  20.138  0.00  0.00    +0.000 C 
ATOM     20  O   UNL     1       0.283  10.100  18.937  0.00  0.00    +0.000 OA
BRANCH  17  21
ATOM     21  O   UNL     1      -1.592  10.968  23.146  0.00  0.00    +0.000 OA
BRANCH  21  22
ATOM     22  C   UNL     1      -2.328  12.048  22.562  0.00  0.00    +0.000 C 
BRANCH  22  23
ATOM     23  C   UNL     1      -2.223  13.289  23.432  0.00  0.00    +0.000 A 
ATOM     24  C   UNL     1      -3.282  13.634  24.293  0.00  0.00    +0.000 A 
ATOM     25  C   UNL     1      -3.218  14.778  25.096  0.00  0.00    +0.000 A 
ATOM     26  C   UNL     1      -2.097  15.603  25.038  0.00  0.00    +0.000 A 
ATOM     27  C   UNL     1      -1.058  15.281  24.173  0.00  0.00    +0.000 A 
ATOM     28  F   UNL     1       0.013  16.083  24.109  0.00  0.00    +0.000 F 
ATOM     29  C   UNL     1      -1.113  14.145  23.369  0.00  0.00    +0.000 A 
ENDBRANCH  22  23
ENDBRANCH  21  22
ENDBRANCH  17  21
ENDBRANCH   8  13
BRANCH  11  30
ATOM     30  O   UNL     1       5.646   6.886  16.867  0.00  0.00    +0.000 OA
ATOM     31  C   UNL     1       6.918   7.385  17.153  0.00  0.00    +0.000 C 
ENDBRANCH  11  30
BRANCH   1  32
ATOM     32  O   UNL     1       5.626   3.661  16.676  0.00  0.00    +0.000 OA
BRANCH  32  33
ATOM     33  C   UNL     1       5.736   4.025  15.302  0.00  0.00    +0.000 C 
BRANCH  33  34
ATOM     34  C   UNL     1       7.133   4.407  14.859  0.00  0.00    +0.000 C 
BRANCH  34  36
ATOM     35  C   UNL     1       8.138   5.485  12.999  0.00  0.00    +0.000 C 
ATOM     36  O   UNL     1       6.966   5.337  13.780  0.00  0.00    +0.000 OA
ENDBRANCH  34  36
ENDBRANCH  33  34
ENDBRANCH  32  33
ENDBRANCH   1  32
TORSDOF 9
ENDMDL
MODEL 9
REMARK VINA RESULT:      -7.5      1.226      2.149
REMARK  Name = 
REMARK  11 active torsions:
REMARK  status: ('A' for Active; 'I' for Inactive)
REMARK    1  A    between atoms: C_1  and  O_2
REMARK    2  A    between atoms: O_2  and  C_3
REMARK    3  A    between atoms: C_3  and  C_4
REMARK    4  A    between atoms: C_4  and  O_5
REMARK    5  A    between atoms: O_5  and  C_6
REMARK    6  A    between atoms: N_13  and  C_14
REMARK    7  A    between atoms: C_18  and  O_19
REMARK    8  A    between atoms: O_19  and  C_20
REMARK    9  A    between atoms: C_20  and  C_21
REMARK   10  A    between atoms: C_33  and  O_34
REMARK   11  A    between atoms: O_34  and  C_35
REMARK                            x       y       z     vdW  Elec       q    Type
REMARK                         _______ _______ _______ _____ _____    ______ ____
ROOT
ATOM      1  C   UNL     1       3.634   5.204  18.711  0.00  0.00    +0.000 A 
ATOM      2  C   UNL     1       3.566   6.335  17.858  0.00  0.00    +0.000 A 
ATOM      3  C   UNL     1       2.825   7.508  18.151  0.00  0.00    +0.000 A 
ATOM      4  N   UNL     1       2.816   8.551  17.327  0.00  0.00    +0.000 NA
ATOM      5  C   UNL     1       2.092   9.626  17.694  0.00  0.00    +0.000 A 
ATOM      6  N   UNL     1       1.425   9.768  18.837  0.00  0.00    +0.000 NA
ATOM      7  C   UNL     1       1.457   8.746  19.693  0.00  0.00    +0.000 A 
ATOM      8  N   UNL     1       0.838   8.906  20.961  0.00  0.00    +0.000 N 
ATOM      9  C   UNL     1       2.100   7.527  19.347  0.00  0.00    +0.000 A 
ATOM     10  C   UNL     1       2.061   6.354  20.100  0.00  0.00    +0.000 A 
ATOM     11  C   UNL     1       2.885   5.242  19.887  0.00  0.00    +0.000 A 
ATOM     12  H   UNL     1       1.491   8.725  21.725  0.00  0.00    +0.000 HD
ENDROOT
BRANCH   8  13
ATOM     13  C   UNL     1      -0.126   9.872  21.303  0.00  0.00    +0.000 C 
ATOM     14  C   UNL     1      -0.836  10.619  20.492  0.00  0.00    +0.000 C 
ATOM     15  C   UNL     1      -1.616  11.818  20.901  0.00  0.00    +0.000 C 
ATOM     16  O   UNL     1      -2.116  12.528  20.038  0.00  0.00    +0.000 OA
ATOM     17  C   UNL     1      -1.654  12.135  22.359  0.00  0.00    +0.000 C 
ATOM     18  C   UNL     1      -1.058  11.298  23.211  0.00  0.00    +0.000 C 
ATOM     19  C   UNL     1      -0.327  10.078  22.794  0.00  0.00    +0.000 C 
ATOM     20  O   UNL     1       0.126   9.310  23.631  0.00  0.00    +0.000 OA
BRANCH  17  21
ATOM     21  O   UNL     1      -2.233  13.291  22.879  0.00  0.00    +0.000 OA
BRANCH  21  22
ATOM     22  C   UNL     1      -3.327  13.148  23.791  0.00  0.00    +0.000 C 
BRANCH  22  23
ATOM     23  C   UNL     1      -3.924  14.506  24.116  0.00  0.00    +0.000 A 
ATOM     24  C   UNL     1      -3.161  15.457  24.819  0.00  0.00    +0.000 A 
ATOM     25  C   UNL     1      -3.689  16.712  25.143  0.00  0.00    +0.000 A 
ATOM     26  C   UNL     1      -4.996  17.027  24.781  0.00  0.00    +0.000 A 
ATOM     27  C   UNL     1      -5.764  16.083  24.108  0.00  0.00    +0.000 A 
ATOM     28  F   UNL     1      -7.026  16.384  23.773  0.00  0.00    +0.000 F 
ATOM     29  C   UNL     1      -5.246  14.832  23.782  0.00  0.00    +0.000 A 
ENDBRANCH  22  23
ENDBRANCH  21  22
ENDBRANCH  17  21
ENDBRANCH   8  13
BRANCH  11  30
ATOM     30  O   UNL     1       2.768   4.468  20.996  0.00  0.00    +0.000 OA
ATOM     31  C   UNL     1       1.699   3.644  21.353  0.00  0.00    +0.000 C 
ENDBRANCH  11  30
BRANCH   1  32
ATOM     32  O   UNL     1       4.461   4.207  18.256  0.00  0.00    +0.000 OA
BRANCH  32  33
ATOM     33  C   UNL     1       4.502   4.057  16.839  0.00  0.00    +0.000 C 
BRANCH  33  34
ATOM     34  C   UNL     1       5.891   3.874  16.264  0.00  0.00    +0.000 C 
BRANCH  34  36
ATOM     35  C   UNL     1       7.106   5.856  16.746  0.00  0.00    +0.000 C 
ATOM     36  O   UNL     1       6.784   4.542  17.166  0.00  0.00    +0.000 OA
ENDBRANCH  34  36
ENDBRANCH  33  34
ENDBRANCH  32  33
ENDBRANCH   1  32
TORSDOF 9
ENDMDL
