MODEL 1
REMARK VINA RESULT:      -8.4      0.000      0.000
REMARK  Name = 
REMARK  11 active torsions:
REMARK  status: ('A' for Active; 'I' for Inactive)
REMARK    1  A    between atoms: C_1  and  N_2
REMARK    2  A    between atoms: C_3  and  C_5
REMARK    3  A    between atoms: C_5  and  O_6
REMARK    4  A    between atoms: O_6  and  C_7
REMARK    5  A    between atoms: C_10  and  N_11
REMARK    6  A    between atoms: C_12  and  C_14
REMARK    7  A    between atoms: C_16  and  C_17
REMARK    8  A    between atoms: C_22  and  N_23
REMARK    9  A    between atoms: N_23  and  C_24
REMARK   10  A    between atoms: C_30  and  C_31
REMARK   11  A    between atoms: N_33  and  C_34
REMARK                            x       y       z     vdW  Elec       q    Type
REMARK                         _______ _______ _______ _____ _____    ______ ____
ROOT
ATOM      1  N   UNL     1       4.269   6.133  17.917  0.00  0.00    +0.000 N 
ATOM      2  C   UNL     1       2.890   6.074  18.078  0.00  0.00    +0.000 C 
ATOM      3  O   UNL     1       2.086   5.387  17.456  0.00  0.00    +0.000 OA
ATOM      4  H   UNL     1       4.750   6.847  18.479  0.00  0.00    +0.000 HD
ENDROOT
BRANCH   1   8
ATOM      5  C   UNL     1       6.498   4.343  14.824  0.00  0.00    +0.000 A 
ATOM      6  C   UNL     1       5.144   4.063  14.976  0.00  0.00    +0.000 A 
ATOM      7  C   UNL     1       4.424   4.620  16.026  0.00  0.00    +0.000 A 
ATOM      8  C   UNL     1       5.035   5.502  16.920  0.00  0.00    +0.000 A 
ATOM      9  C   UNL     1       6.418   5.775  16.786  0.00  0.00    +0.000 A 
ATOM     10  C   UNL     1       7.144   5.175  15.737  0.00  0.00    +0.000 A 
BRANCH   9  11
ATOM     11  C   UNL     1       7.115   6.735  17.707  0.00  0.00    +0.000 C 
ATOM     12  O   UNL     1       7.323   6.425  18.876  0.00  0.00    +0.000 OA
ATOM     13  N   UNL     1       7.466   7.964  17.177  0.00  0.00    +0.000 N 
ATOM     14  C   UNL     1       8.116   8.992  17.958  0.00  0.00    +0.000 C 
ATOM     15  H   UNL     1       7.082   8.251  16.287  0.00  0.00    +0.000 HD
ENDBRANCH   9  11
BRANCH   5  16
ATOM     16  O   UNL     1       7.056   3.801  13.705  0.00  0.00    +0.000 OA
BRANCH  16  17
ATOM     17  C   UNL     1       6.463   4.155  12.459  0.00  0.00    +0.000 C 
BRANCH  17  20
ATOM     18  C   UNL     1       6.164   0.617  11.069  0.00  0.00    +0.000 C 
ATOM     19  N   UNL     1       6.636   1.854  11.632  0.00  0.00    +0.000 N 
ATOM     20  C   UNL     1       5.798   2.930  11.830  0.00  0.00    +0.000 C 
ATOM     21  O   UNL     1       4.604   2.915  11.551  0.00  0.00    +0.000 OA
ATOM     22  H   UNL     1       7.617   1.967  11.867  0.00  0.00    +0.000 HD
ENDBRANCH  17  20
ENDBRANCH  16  17
ENDBRANCH   5  16
ENDBRANCH   1   8
BRANCH   2  23
ATOM     23  C   UNL     1       2.402   7.070  19.068  0.00  0.00    +0.000 A 
ATOM     24  N   UNL     1       2.016   8.252  18.497  0.00  0.00    +0.000 NA
ATOM     25  C   UNL     1       1.379   9.135  19.290  0.00  0.00    +0.000 A 
ATOM     26  C   UNL     1       1.154   8.803  20.618  0.00  0.00    +0.000 A 
ATOM     27  N   UNL     1       1.581   7.655  21.198  0.00  0.00    +0.000 NA
ATOM     28  C   UNL     1       2.224   6.751  20.422  0.00  0.00    +0.000 A 
BRANCH  25  29
ATOM     29  C   UNL     1       0.881  10.410  18.677  0.00  0.00    +0.000 C 
ATOM     30  C   UNL     1      -0.423  10.454  17.919  0.00  0.00    +0.000 C 
ATOM     31  C   UNL     1      -0.327  11.098  19.269  0.00  0.00    +0.000 C 
ENDBRANCH  25  29
BRANCH  28  32
ATOM     32  N   UNL     1       2.568   5.496  20.974  0.00  0.00    +0.000 N 
ATOM     33  H   UNL     1       2.641   5.541  21.994  0.00  0.00    +0.000 HD
BRANCH  32  34
ATOM     34  C   UNL     1       2.296   4.213  20.461  0.00  0.00    +0.000 A 
ATOM     35  C   UNL     1       1.036   3.685  20.227  0.00  0.00    +0.000 A 
ATOM     36  N   UNL     1       0.780   2.451  19.744  0.00  0.00    +0.000 NA
ATOM     37  C   UNL     1       1.853   1.706  19.456  0.00  0.00    +0.000 A 
ATOM     38  N   UNL     1       3.123   2.098  19.582  0.00  0.00    +0.000 NA
ATOM     39  C   UNL     1       3.309   3.350  20.070  0.00  0.00    +0.000 A 
ENDBRANCH  32  34
ENDBRANCH  28  32
ENDBRANCH   2  23
TORSDOF 9
ENDMDL
MODEL 2
REMARK VINA RESULT:      -8.4      3.289      8.537
REMARK  Name = 
REMARK  11 active torsions:
REMARK  status: ('A' for Active; 'I' for Inactive)
REMARK    1  A    between atoms: C_1  and  N_2
REMARK    2  A    between atoms: C_3  and  C_5
REMARK    3  A    between atoms: C_5  and  O_6
REMARK    4  A    between atoms: O_6  and  C_7
REMARK    5  A    between atoms: C_10  and  N_11
REMARK    6  A    between atoms: C_12  and  C_14
REMARK    7  A    between atoms: C_16  and  C_17
REMARK    8  A    between atoms: C_22  and  N_23
REMARK    9  A    between atoms: N_23  and  C_24
REMARK   10  A    between atoms: C_30  and  C_31
REMARK   11  A    between atoms: N_33  and  C_34
REMARK                            x       y       z     vdW  Elec       q    Type
REMARK                         _______ _______ _______ _____ _____    ______ ____
ROOT
ATOM      1  N   UNL     1       2.807   7.409  19.146  0.00  0.00    +0.000 N 
ATOM      2  C   UNL     1       2.647   6.463  18.141  0.00  0.00    +0.000 C 
ATOM      3  O   UNL     1       1.599   6.048  17.656  0.00  0.00    +0.000 OA
ATOM      4  H   UNL     1       3.772   7.548  19.474  0.00  0.00    +0.000 HD
ENDROOT
BRANCH   1   8
ATOM      5  C   UNL     1      -0.116   9.247  21.558  0.00  0.00    +0.000 A 
ATOM      6  C   UNL     1       0.333   7.961  21.842  0.00  0.00    +0.000 A 
ATOM      7  C   UNL     1       1.263   7.342  21.017  0.00  0.00    +0.000 A 
ATOM      8  C   UNL     1       1.794   8.013  19.913  0.00  0.00    +0.000 A 
ATOM      9  C   UNL     1       1.327   9.313  19.603  0.00  0.00    +0.000 A 
ATOM     10  C   UNL     1       0.357   9.915  20.430  0.00  0.00    +0.000 A 
BRANCH   9  11
ATOM     11  C   UNL     1       1.884  10.085  18.442  0.00  0.00    +0.000 C 
ATOM     12  O   UNL     1       2.144   9.510  17.389  0.00  0.00    +0.000 OA
ATOM     13  N   UNL     1       2.111  11.435  18.641  0.00  0.00    +0.000 N 
ATOM     14  C   UNL     1       2.669  12.290  17.619  0.00  0.00    +0.000 C 
ATOM     15  H   UNL     1       2.090  11.810  19.579  0.00  0.00    +0.000 HD
ENDBRANCH   9  11
BRANCH   5  16
ATOM     16  O   UNL     1      -0.958   9.763  22.497  0.00  0.00    +0.000 OA
BRANCH  16  17
ATOM     17  C   UNL     1      -0.822  11.152  22.783  0.00  0.00    +0.000 C 
BRANCH  17  20
ATOM     18  C   UNL     1      -3.607  13.171  21.138  0.00  0.00    +0.000 C 
ATOM     19  N   UNL     1      -2.379  12.483  21.438  0.00  0.00    +0.000 N 
ATOM     20  C   UNL     1      -2.175  11.850  22.645  0.00  0.00    +0.000 C 
ATOM     21  O   UNL     1      -3.013  11.819  23.539  0.00  0.00    +0.000 OA
ATOM     22  H   UNL     1      -1.618  12.482  20.766  0.00  0.00    +0.000 HD
ENDBRANCH  17  20
ENDBRANCH  16  17
ENDBRANCH   5  16
ENDBRANCH   1   8
BRANCH   2  23
ATOM     23  C   UNL     1       3.942   5.857  17.736  0.00  0.00    +0.000 A 
ATOM     24  N   UNL     1       4.915   6.785  17.480  0.00  0.00    +0.000 NA
ATOM     25  C   UNL     1       6.167   6.325  17.300  0.00  0.00    +0.000 A 
ATOM     26  C   UNL     1       6.399   4.959  17.383  0.00  0.00    +0.000 A 
ATOM     27  N   UNL     1       5.429   4.034  17.586  0.00  0.00    +0.000 NA
ATOM     28  C   UNL     1       4.161   4.472  17.770  0.00  0.00    +0.000 A 
BRANCH  25  29
ATOM     29  C   UNL     1       7.267   7.322  17.086  0.00  0.00    +0.000 C 
ATOM     30  C   UNL     1       7.185   8.710  17.671  0.00  0.00    +0.000 C 
ATOM     31  C   UNL     1       8.148   7.718  18.248  0.00  0.00    +0.000 C 
ENDBRANCH  25  29
BRANCH  28  32
ATOM     32  N   UNL     1       3.156   3.537  18.106  0.00  0.00    +0.000 N 
ATOM     33  H   UNL     1       3.094   2.785  17.414  0.00  0.00    +0.000 HD
BRANCH  32  34
ATOM     34  C   UNL     1       2.670   3.199  19.384  0.00  0.00    +0.000 A 
ATOM     35  C   UNL     1       3.443   2.804  20.465  0.00  0.00    +0.000 A 
ATOM     36  N   UNL     1       2.973   2.471  21.686  0.00  0.00    +0.000 NA
ATOM     37  C   UNL     1       1.648   2.560  21.841  0.00  0.00    +0.000 A 
ATOM     38  N   UNL     1       0.785   2.972  20.908  0.00  0.00    +0.000 NA
ATOM     39  C   UNL     1       1.325   3.292  19.706  0.00  0.00    +0.000 A 
ENDBRANCH  32  34
ENDBRANCH  28  32
ENDBRANCH   2  23
TORSDOF 9
ENDMDL
MODEL 3
REMARK VINA RESULT:      -8.4      4.438      8.325
REMARK  Name = 
REMARK  11 active torsions:
REMARK  status: ('A' for Active; 'I' for Inactive)
REMARK    1  A    between atoms: C_1  and  N_2
REMARK    2  A    between atoms: C_3  and  C_5
REMARK    3  A    between atoms: C_5  and  O_6
REMARK    4  A    between atoms: O_6  and  C_7
REMARK    5  A    between atoms: C_10  and  N_11
REMARK    6  A    between atoms: C_12  and  C_14
REMARK    7  A    between atoms: C_16  and  C_17
REMARK    8  A    between atoms: C_22  and  N_23
REMARK    9  A    between atoms: N_23  and  C_24
REMARK   10  A    between atoms: C_30  and  C_31
REMARK   11  A    between atoms: N_33  and  C_34
REMARK                            x       y       z     vdW  Elec       q    Type
REMARK                         _______ _______ _______ _____ _____    ______ ____
ROOT
ATOM      1  N   UNL     1       1.162  11.325  19.552  0.00  0.00    +0.000 N 
ATOM      2  C   UNL     1       0.119  12.026  18.959  0.00  0.00    +0.000 C 
ATOM      3  O   UNL     1      -0.753  11.593  18.214  0.00  0.00    +0.000 OA
ATOM      4  H   UNL     1       1.842  11.897  20.071  0.00  0.00    +0.000 HD
ENDROOT
BRANCH   1   8
ATOM      5  C   UNL     1       2.376   7.347  18.894  0.00  0.00    +0.000 A 
ATOM      6  C   UNL     1       2.406   8.278  17.861  0.00  0.00    +0.000 A 
ATOM      7  C   UNL     1       1.960   9.577  18.072  0.00  0.00    +0.000 A 
ATOM      8  C   UNL     1       1.516   9.981  19.332  0.00  0.00    +0.000 A 
ATOM      9  C   UNL     1       1.462   9.035  20.384  0.00  0.00    +0.000 A 
ATOM     10  C   UNL     1       1.884   7.711  20.146  0.00  0.00    +0.000 A 
BRANCH   9  11
ATOM     11  C   UNL     1       1.015   9.427  21.763  0.00  0.00    +0.000 C 
ATOM     12  O   UNL     1       1.822   9.455  22.686  0.00  0.00    +0.000 OA
ATOM     13  N   UNL     1      -0.329   9.714  21.925  0.00  0.00    +0.000 N 
ATOM     14  C   UNL     1      -0.899  10.079  23.202  0.00  0.00    +0.000 C 
ATOM     15  H   UNL     1      -0.982   9.466  21.194  0.00  0.00    +0.000 HD
ENDBRANCH   9  11
BRANCH   5  16
ATOM     16  O   UNL     1       2.923   6.140  18.572  0.00  0.00    +0.000 OA
BRANCH  16  17
ATOM     17  C   UNL     1       3.595   5.444  19.617  0.00  0.00    +0.000 C 
BRANCH  17  20
ATOM     18  C   UNL     1       6.935   5.321  17.782  0.00  0.00    +0.000 C 
ATOM     19  N   UNL     1       5.666   5.713  18.333  0.00  0.00    +0.000 N 
ATOM     20  C   UNL     1       4.905   4.852  19.094  0.00  0.00    +0.000 C 
ATOM     21  O   UNL     1       5.248   3.706  19.360  0.00  0.00    +0.000 OA
ATOM     22  H   UNL     1       5.289   6.636  18.140  0.00  0.00    +0.000 HD
ENDBRANCH  17  20
ENDBRANCH  16  17
ENDBRANCH   5  16
ENDBRANCH   1   8
BRANCH   2  23
ATOM     23  C   UNL     1       0.207  13.486  19.226  0.00  0.00    +0.000 A 
ATOM     24  N   UNL     1       1.427  14.019  18.909  0.00  0.00    +0.000 NA
ATOM     25  C   UNL     1       1.533  15.361  18.931  0.00  0.00    +0.000 A 
ATOM     26  C   UNL     1       0.419  16.117  19.269  0.00  0.00    +0.000 A 
ATOM     27  N   UNL     1      -0.776  15.589  19.632  0.00  0.00    +0.000 NA
ATOM     28  C   UNL     1      -0.907  14.242  19.618  0.00  0.00    +0.000 A 
BRANCH  25  29
ATOM     29  C   UNL     1       2.837  15.978  18.521  0.00  0.00    +0.000 C 
ATOM     30  C   UNL     1       3.615  15.446  17.343  0.00  0.00    +0.000 C 
ATOM     31  C   UNL     1       2.915  16.766  17.234  0.00  0.00    +0.000 C 
ENDBRANCH  25  29
BRANCH  28  32
ATOM     32  N   UNL     1      -2.177  13.675  19.873  0.00  0.00    +0.000 N 
ATOM     33  H   UNL     1      -2.499  13.106  19.085  0.00  0.00    +0.000 HD
BRANCH  32  34
ATOM     34  C   UNL     1      -2.749  13.336  21.114  0.00  0.00    +0.000 A 
ATOM     35  C   UNL     1      -2.156  13.513  22.354  0.00  0.00    +0.000 A 
ATOM     36  N   UNL     1      -2.704  13.178  23.541  0.00  0.00    +0.000 NA
ATOM     37  C   UNL     1      -3.933  12.654  23.485  0.00  0.00    +0.000 A 
ATOM     38  N   UNL     1      -4.647  12.472  22.371  0.00  0.00    +0.000 NA
ATOM     39  C   UNL     1      -4.037  12.831  21.214  0.00  0.00    +0.000 A 
ENDBRANCH  32  34
ENDBRANCH  28  32
ENDBRANCH   2  23
TORSDOF 9
ENDMDL
MODEL 4
REMARK VINA RESULT:      -8.3      1.714      2.812
REMARK  Name = 
REMARK  11 active torsions:
REMARK  status: ('A' for Active; 'I' for Inactive)
REMARK    1  A    between atoms: C_1  and  N_2
REMARK    2  A    between atoms: C_3  and  C_5
REMARK    3  A    between atoms: C_5  and  O_6
REMARK    4  A    between atoms: O_6  and  C_7
REMARK    5  A    between atoms: C_10  and  N_11
REMARK    6  A    between atoms: C_12  and  C_14
REMARK    7  A    between atoms: C_16  and  C_17
REMARK    8  A    between atoms: C_22  and  N_23
REMARK    9  A    between atoms: N_23  and  C_24
REMARK   10  A    between atoms: C_30  and  C_31
REMARK   11  A    between atoms: N_33  and  C_34
REMARK                            x       y       z     vdW  Elec       q    Type
REMARK                         _______ _______ _______ _____ _____    ______ ____
ROOT
ATOM      1  N   UNL     1       3.399   6.456  17.888  0.00  0.00    +0.000 N 
ATOM      2  C   UNL     1       2.735   7.673  17.793  0.00  0.00    +0.000 C 
ATOM      3  O   UNL     1       2.703   8.442  16.838  0.00  0.00    +0.000 OA
ATOM      4  H   UNL     1       3.374   6.009  18.814  0.00  0.00    +0.000 HD
ENDROOT
BRANCH   1   8
ATOM      5  C   UNL     1       6.155   4.782  15.179  0.00  0.00    +0.000 A 
ATOM      6  C   UNL     1       6.167   6.147  15.451  0.00  0.00    +0.000 A 
ATOM      7  C   UNL     1       5.226   6.700  16.309  0.00  0.00    +0.000 A 
ATOM      8  C   UNL     1       4.281   5.894  16.946  0.00  0.00    +0.000 A 
ATOM      9  C   UNL     1       4.247   4.508  16.658  0.00  0.00    +0.000 A 
ATOM     10  C   UNL     1       5.186   3.965  15.758  0.00  0.00    +0.000 A 
BRANCH   9  11
ATOM     11  C   UNL     1       3.266   3.595  17.336  0.00  0.00    +0.000 C 
ATOM     12  O   UNL     1       2.064   3.838  17.286  0.00  0.00    +0.000 OA
ATOM     13  N   UNL     1       3.791   2.517  18.026  0.00  0.00    +0.000 N 
ATOM     14  C   UNL     1       2.963   1.576  18.746  0.00  0.00    +0.000 C 
ATOM     15  H   UNL     1       4.782   2.485  18.220  0.00  0.00    +0.000 HD
ENDBRANCH   9  11
BRANCH   5  16
ATOM     16  O   UNL     1       7.186   4.362  14.391  0.00  0.00    +0.000 OA
BRANCH  16  17
ATOM     17  C   UNL     1       7.070   4.621  12.995  0.00  0.00    +0.000 C 
BRANCH  17  20
ATOM     18  C   UNL     1       6.495   1.334  11.151  0.00  0.00    +0.000 C 
ATOM     19  N   UNL     1       7.071   2.480  11.803  0.00  0.00    +0.000 N 
ATOM     20  C   UNL     1       6.291   3.493  12.317  0.00  0.00    +0.000 C 
ATOM     21  O   UNL     1       5.066   3.494  12.264  0.00  0.00    +0.000 OA
ATOM     22  H   UNL     1       8.079   2.577  11.867  0.00  0.00    +0.000 HD
ENDBRANCH  17  20
ENDBRANCH  16  17
ENDBRANCH   5  16
ENDBRANCH   1   8
BRANCH   2  23
ATOM     23  C   UNL     1       2.102   8.063  19.080  0.00  0.00    +0.000 A 
ATOM     24  N   UNL     1       1.424   9.249  19.009  0.00  0.00    +0.000 NA
ATOM     25  C   UNL     1       0.659   9.581  20.066  0.00  0.00    +0.000 A 
ATOM     26  C   UNL     1       0.601   8.716  21.150  0.00  0.00    +0.000 A 
ATOM     27  N   UNL     1       1.312   7.566  21.244  0.00  0.00    +0.000 NA
ATOM     28  C   UNL     1       2.089   7.211  20.194  0.00  0.00    +0.000 A 
BRANCH  25  29
ATOM     29  C   UNL     1      -0.152  10.840  19.990  0.00  0.00    +0.000 C 
ATOM     30  C   UNL     1      -0.080  11.742  18.782  0.00  0.00    +0.000 C 
ATOM     31  C   UNL     1      -1.311  10.922  19.024  0.00  0.00    +0.000 C 
ENDBRANCH  25  29
BRANCH  28  32
ATOM     32  N   UNL     1       2.741   5.957  20.217  0.00  0.00    +0.000 N 
ATOM     33  H   UNL     1       3.759   6.063  20.256  0.00  0.00    +0.000 HD
BRANCH  32  34
ATOM     34  C   UNL     1       2.260   4.732  20.717  0.00  0.00    +0.000 A 
ATOM     35  C   UNL     1       2.868   3.962  21.696  0.00  0.00    +0.000 A 
ATOM     36  N   UNL     1       2.408   2.782  22.165  0.00  0.00    +0.000 NA
ATOM     37  C   UNL     1       1.255   2.357  21.637  0.00  0.00    +0.000 A 
ATOM     38  N   UNL     1       0.533   3.015  20.725  0.00  0.00    +0.000 NA
ATOM     39  C   UNL     1       1.052   4.193  20.299  0.00  0.00    +0.000 A 
ENDBRANCH  32  34
ENDBRANCH  28  32
ENDBRANCH   2  23
TORSDOF 9
ENDMDL
MODEL 5
REMARK VINA RESULT:      -8.3      4.304      8.149
REMARK  Name = 
REMARK  11 active torsions:
REMARK  status: ('A' for Active; 'I' for Inactive)
REMARK    1  A    between atoms: C_1  and  N_2
REMARK    2  A    between atoms: C_3  and  C_5
REMARK    3  A    between atoms: C_5  and  O_6
REMARK    4  A    between atoms: O_6  and  C_7
REMARK    5  A    between atoms: C_10  and  N_11
REMARK    6  A    between atoms: C_12  and  C_14
REMARK    7  A    between atoms: C_16  and  C_17
REMARK    8  A    between atoms: C_22  and  N_23
REMARK    9  A    between atoms: N_23  and  C_24
REMARK   10  A    between atoms: C_30  and  C_31
REMARK   11  A    between atoms: N_33  and  C_34
REMARK                            x       y       z     vdW  Elec       q    Type
REMARK                         _______ _______ _______ _____ _____    ______ ____
ROOT
ATOM      1  N   UNL     1       1.104  10.991  19.485  0.00  0.00    +0.000 N 
ATOM      2  C   UNL     1       0.029  11.652  18.904  0.00  0.00    +0.000 C 
ATOM      3  O   UNL     1      -0.863  11.175  18.209  0.00  0.00    +0.000 OA
ATOM      4  H   UNL     1       1.793  11.594  19.955  0.00  0.00    +0.000 HD
ENDROOT
BRANCH   1   8
ATOM      5  C   UNL     1       2.361   7.009  18.939  0.00  0.00    +0.000 A 
ATOM      6  C   UNL     1       2.334   7.898  17.869  0.00  0.00    +0.000 A 
ATOM      7  C   UNL     1       1.875   9.197  18.045  0.00  0.00    +0.000 A 
ATOM      8  C   UNL     1       1.473   9.645  19.305  0.00  0.00    +0.000 A 
ATOM      9  C   UNL     1       1.476   8.741  20.395  0.00  0.00    +0.000 A 
ATOM     10  C   UNL     1       1.912   7.416  20.193  0.00  0.00    +0.000 A 
BRANCH   9  11
ATOM     11  C   UNL     1       1.076   9.183  21.774  0.00  0.00    +0.000 C 
ATOM     12  O   UNL     1       1.924   9.298  22.653  0.00  0.00    +0.000 OA
ATOM     13  N   UNL     1      -0.272   9.410  21.989  0.00  0.00    +0.000 N 
ATOM     14  C   UNL     1      -0.798   9.812  23.274  0.00  0.00    +0.000 C 
ATOM     15  H   UNL     1      -0.945   9.093  21.306  0.00  0.00    +0.000 HD
ENDBRANCH   9  11
BRANCH   5  16
ATOM     16  O   UNL     1       2.916   5.799  18.644  0.00  0.00    +0.000 OA
BRANCH  16  17
ATOM     17  C   UNL     1       3.890   5.303  19.558  0.00  0.00    +0.000 C 
BRANCH  17  20
ATOM     18  C   UNL     1       3.482   1.806  18.095  0.00  0.00    +0.000 C 
ATOM     19  N   UNL     1       3.284   3.164  18.527  0.00  0.00    +0.000 N 
ATOM     20  C   UNL     1       4.264   3.866  19.195  0.00  0.00    +0.000 C 
ATOM     21  O   UNL     1       5.365   3.397  19.462  0.00  0.00    +0.000 OA
ATOM     22  H   UNL     1       2.392   3.623  18.373  0.00  0.00    +0.000 HD
ENDBRANCH  17  20
ENDBRANCH  16  17
ENDBRANCH   5  16
ENDBRANCH   1   8
BRANCH   2  23
ATOM     23  C   UNL     1       0.102  13.122  19.110  0.00  0.00    +0.000 A 
ATOM     24  N   UNL     1       1.308  13.658  18.748  0.00  0.00    +0.000 NA
ATOM     25  C   UNL     1       1.395  15.001  18.713  0.00  0.00    +0.000 A 
ATOM     26  C   UNL     1       0.277  15.755  19.041  0.00  0.00    +0.000 A 
ATOM     27  N   UNL     1      -0.903  15.227  19.450  0.00  0.00    +0.000 NA
ATOM     28  C   UNL     1      -1.016  13.879  19.493  0.00  0.00    +0.000 A 
BRANCH  25  29
ATOM     29  C   UNL     1       2.683  15.617  18.253  0.00  0.00    +0.000 C 
ATOM     30  C   UNL     1       3.291  16.789  18.983  0.00  0.00    +0.000 C 
ATOM     31  C   UNL     1       3.932  15.438  19.085  0.00  0.00    +0.000 C 
ENDBRANCH  25  29
BRANCH  28  32
ATOM     32  N   UNL     1      -2.272  13.306  19.795  0.00  0.00    +0.000 N 
ATOM     33  H   UNL     1      -2.564  12.638  19.075  0.00  0.00    +0.000 HD
BRANCH  32  34
ATOM     34  C   UNL     1      -2.856  13.098  21.059  0.00  0.00    +0.000 A 
ATOM     35  C   UNL     1      -4.177  12.749  21.292  0.00  0.00    +0.000 A 
ATOM     36  N   UNL     1      -4.736  12.561  22.507  0.00  0.00    +0.000 NA
ATOM     37  C   UNL     1      -3.915  12.708  23.552  0.00  0.00    +0.000 A 
ATOM     38  N   UNL     1      -2.612  12.993  23.479  0.00  0.00    +0.000 NA
ATOM     39  C   UNL     1      -2.116  13.168  22.229  0.00  0.00    +0.000 A 
ENDBRANCH  32  34
ENDBRANCH  28  32
ENDBRANCH   2  23
TORSDOF 9
ENDMDL
MODEL 6
REMARK VINA RESULT:      -8.2      3.126      6.413
REMARK  Name = 
REMARK  11 active torsions:
REMARK  status: ('A' for Active; 'I' for Inactive)
REMARK    1  A    between atoms: C_1  and  N_2
REMARK    2  A    between atoms: C_3  and  C_5
REMARK    3  A    between atoms: C_5  and  O_6
REMARK    4  A    between atoms: O_6  and  C_7
REMARK    5  A    between atoms: C_10  and  N_11
REMARK    6  A    between atoms: C_12  and  C_14
REMARK    7  A    between atoms: C_16  and  C_17
REMARK    8  A    between atoms: C_22  and  N_23
REMARK    9  A    between atoms: N_23  and  C_24
REMARK   10  A    between atoms: C_30  and  C_31
REMARK   11  A    between atoms: N_33  and  C_34
REMARK                            x       y       z     vdW  Elec       q    Type
REMARK                         _______ _______ _______ _____ _____    ______ ____
ROOT
ATOM      1  N   UNL     1       2.339   7.858  18.766  0.00  0.00    +0.000 N 
ATOM      2  C   UNL     1       1.934   9.046  18.169  0.00  0.00    +0.000 C 
ATOM      3  O   UNL     1       2.126   9.413  17.014  0.00  0.00    +0.000 OA
ATOM      4  H   UNL     1       2.156   7.785  19.776  0.00  0.00    +0.000 HD
ENDROOT
BRANCH   1   8
ATOM      5  C   UNL     1       4.938   4.959  17.163  0.00  0.00    +0.000 A 
ATOM      6  C   UNL     1       4.855   6.227  16.597  0.00  0.00    +0.000 A 
ATOM      7  C   UNL     1       3.962   7.164  17.101  0.00  0.00    +0.000 A 
ATOM      8  C   UNL     1       3.165   6.865  18.208  0.00  0.00    +0.000 A 
ATOM      9  C   UNL     1       3.228   5.570  18.776  0.00  0.00    +0.000 A 
ATOM     10  C   UNL     1       4.113   4.617  18.232  0.00  0.00    +0.000 A 
BRANCH   9  11
ATOM     11  C   UNL     1       2.409   5.208  19.982  0.00  0.00    +0.000 C 
ATOM     12  O   UNL     1       1.712   6.056  20.529  0.00  0.00    +0.000 OA
ATOM     13  N   UNL     1       2.515   3.907  20.441  0.00  0.00    +0.000 N 
ATOM     14  C   UNL     1       1.804   3.431  21.606  0.00  0.00    +0.000 C 
ATOM     15  H   UNL     1       3.259   3.316  20.095  0.00  0.00    +0.000 HD
ENDBRANCH   9  11
BRANCH   5  16
ATOM     16  O   UNL     1       5.915   4.173  16.627  0.00  0.00    +0.000 OA
BRANCH  16  17
ATOM     17  C   UNL     1       7.064   4.841  16.114  0.00  0.00    +0.000 C 
BRANCH  17  20
ATOM     18  C   UNL     1       6.244   3.470  12.652  0.00  0.00    +0.000 C 
ATOM     19  N   UNL     1       6.335   3.705  14.069  0.00  0.00    +0.000 N 
ATOM     20  C   UNL     1       7.101   4.725  14.590  0.00  0.00    +0.000 C 
ATOM     21  O   UNL     1       7.749   5.502  13.898  0.00  0.00    +0.000 OA
ATOM     22  H   UNL     1       5.854   3.091  14.720  0.00  0.00    +0.000 HD
ENDBRANCH  17  20
ENDBRANCH  16  17
ENDBRANCH   5  16
ENDBRANCH   1   8
BRANCH   2  23
ATOM     23  C   UNL     1       1.290   9.967  19.143  0.00  0.00    +0.000 A 
ATOM     24  N   UNL     1       0.636   9.313  20.151  0.00  0.00    +0.000 NA
ATOM     25  C   UNL     1       0.196  10.062  21.180  0.00  0.00    +0.000 A 
ATOM     26  C   UNL     1       0.426  11.430  21.161  0.00  0.00    +0.000 A 
ATOM     27  N   UNL     1       1.028  12.086  20.139  0.00  0.00    +0.000 NA
ATOM     28  C   UNL     1       1.480  11.356  19.093  0.00  0.00    +0.000 A 
BRANCH  25  29
ATOM     29  C   UNL     1      -0.463   9.366  22.334  0.00  0.00    +0.000 C 
ATOM     30  C   UNL     1       0.121   9.434  23.723  0.00  0.00    +0.000 C 
ATOM     31  C   UNL     1      -1.137  10.186  23.410  0.00  0.00    +0.000 C 
ENDBRANCH  25  29
BRANCH  28  32
ATOM     32  N   UNL     1       2.220  12.001  18.076  0.00  0.00    +0.000 N 
ATOM     33  H   UNL     1       1.992  11.627  17.151  0.00  0.00    +0.000 HD
BRANCH  32  34
ATOM     34  C   UNL     1       2.737  13.310  18.069  0.00  0.00    +0.000 A 
ATOM     35  C   UNL     1       1.994  14.474  18.189  0.00  0.00    +0.000 A 
ATOM     36  N   UNL     1       2.493  15.729  18.172  0.00  0.00    +0.000 NA
ATOM     37  C   UNL     1       3.821  15.824  18.050  0.00  0.00    +0.000 A 
ATOM     38  N   UNL     1       4.667  14.792  17.976  0.00  0.00    +0.000 NA
ATOM     39  C   UNL     1       4.099  13.561  18.001  0.00  0.00    +0.000 A 
ENDBRANCH  32  34
ENDBRANCH  28  32
ENDBRANCH   2  23
TORSDOF 9
ENDMDL
MODEL 7
REMARK VINA RESULT:      -8.2      2.686      8.454
REMARK  Name = 
REMARK  11 active torsions:
REMARK  status: ('A' for Active; 'I' for Inactive)
REMARK    1  A    between atoms: C_1  and  N_2
REMARK    2  A    between atoms: C_3  and  C_5
REMARK    3  A    between atoms: C_5  and  O_6
REMARK    4  A    between atoms: O_6  and  C_7
REMARK    5  A    between atoms: C_10  and  N_11
REMARK    6  A    between atoms: C_12  and  C_14
REMARK    7  A    between atoms: C_16  and  C_17
REMARK    8  A    between atoms: C_22  and  N_23
REMARK    9  A    between atoms: N_23  and  C_24
REMARK   10  A    between atoms: C_30  and  C_31
REMARK   11  A    between atoms: N_33  and  C_34
REMARK                            x       y       z     vdW  Elec       q    Type
REMARK                         _______ _______ _______ _____ _____    ______ ____
ROOT
ATOM      1  N   UNL     1       3.527   6.382  17.511  0.00  0.00    +0.000 N 
ATOM      2  C   UNL     1       4.884   6.426  17.213  0.00  0.00    +0.000 C 
ATOM      3  O   UNL     1       5.716   7.238  17.605  0.00  0.00    +0.000 OA
ATOM      4  H   UNL     1       2.985   5.671  17.003  0.00  0.00    +0.000 HD
ENDROOT
BRANCH   1   8
ATOM      5  C   UNL     1       1.174   9.180  19.602  0.00  0.00    +0.000 A 
ATOM      6  C   UNL     1       1.550   9.413  18.283  0.00  0.00    +0.000 A 
ATOM      7  C   UNL     1       2.364   8.509  17.613  0.00  0.00    +0.000 A 
ATOM      8  C   UNL     1       2.785   7.333  18.236  0.00  0.00    +0.000 A 
ATOM      9  C   UNL     1       2.426   7.098  19.586  0.00  0.00    +0.000 A 
ATOM     10  C   UNL     1       1.628   8.041  20.264  0.00  0.00    +0.000 A 
BRANCH   9  11
ATOM     11  C   UNL     1       2.834   5.836  20.291  0.00  0.00    +0.000 C 
ATOM     12  O   UNL     1       3.991   5.436  20.217  0.00  0.00    +0.000 OA
ATOM     13  N   UNL     1       1.843   5.158  20.979  0.00  0.00    +0.000 N 
ATOM     14  C   UNL     1       2.090   3.918  21.679  0.00  0.00    +0.000 C 
ATOM     15  H   UNL     1       0.874   5.405  20.828  0.00  0.00    +0.000 HD
ENDBRANCH   9  11
BRANCH   5  16
ATOM     16  O   UNL     1       0.305  10.102  20.105  0.00  0.00    +0.000 OA
BRANCH  16  17
ATOM     17  C   UNL     1       0.791  10.932  21.155  0.00  0.00    +0.000 C 
BRANCH  17  20
ATOM     18  C   UNL     1      -2.364  11.901  23.064  0.00  0.00    +0.000 C 
ATOM     19  N   UNL     1      -1.313  11.773  22.091  0.00  0.00    +0.000 N 
ATOM     20  C   UNL     1      -0.216  10.966  22.305  0.00  0.00    +0.000 C 
ATOM     21  O   UNL     1      -0.058  10.301  23.323  0.00  0.00    +0.000 OA
ATOM     22  H   UNL     1      -1.347  12.309  21.229  0.00  0.00    +0.000 HD
ENDBRANCH  17  20
ENDBRANCH  16  17
ENDBRANCH   5  16
ENDBRANCH   1   8
BRANCH   2  23
ATOM     23  C   UNL     1       5.268   5.397  16.212  0.00  0.00    +0.000 A 
ATOM     24  N   UNL     1       5.773   5.930  15.058  0.00  0.00    +0.000 NA
ATOM     25  C   UNL     1       6.327   5.074  14.179  0.00  0.00    +0.000 A 
ATOM     26  C   UNL     1       6.355   3.721  14.488  0.00  0.00    +0.000 A 
ATOM     27  N   UNL     1       5.810   3.185  15.607  0.00  0.00    +0.000 NA
ATOM     28  C   UNL     1       5.247   4.025  16.506  0.00  0.00    +0.000 A 
BRANCH  25  29
ATOM     29  C   UNL     1       6.951   5.635  12.936  0.00  0.00    +0.000 C 
ATOM     30  C   UNL     1       8.439   5.552  12.705  0.00  0.00    +0.000 C 
ATOM     31  C   UNL     1       7.514   4.694  11.897  0.00  0.00    +0.000 C 
ENDBRANCH  25  29
BRANCH  28  32
ATOM     32  N   UNL     1       4.784   3.504  17.736  0.00  0.00    +0.000 N 
ATOM     33  H   UNL     1       5.304   3.892  18.528  0.00  0.00    +0.000 HD
BRANCH  32  34
ATOM     34  C   UNL     1       3.497   3.030  18.055  0.00  0.00    +0.000 A 
ATOM     35  C   UNL     1       3.211   1.986  18.921  0.00  0.00    +0.000 A 
ATOM     36  N   UNL     1       1.976   1.528  19.216  0.00  0.00    +0.000 NA
ATOM     37  C   UNL     1       0.962   2.170  18.625  0.00  0.00    +0.000 A 
ATOM     38  N   UNL     1       1.082   3.221  17.809  0.00  0.00    +0.000 NA
ATOM     39  C   UNL     1       2.351   3.630  17.557  0.00  0.00    +0.000 A 
ENDBRANCH  32  34
ENDBRANCH  28  32
ENDBRANCH   2  23
TORSDOF 9
ENDMDL
MODEL 8
REMARK VINA RESULT:      -8.1      3.005      8.534
REMARK  Name = 
REMARK  11 active torsions:
REMARK  status: ('A' for Active; 'I' for Inactive)
REMARK    1  A    between atoms: C_1  and  N_2
REMARK    2  A    between atoms: C_3  and  C_5
REMARK    3  A    between atoms: C_5  and  O_6
REMARK    4  A    between atoms: O_6  and  C_7
REMARK    5  A    between atoms: C_10  and  N_11
REMARK    6  A    between atoms: C_12  and  C_14
REMARK    7  A    between atoms: C_16  and  C_17
REMARK    8  A    between atoms: C_22  and  N_23
REMARK    9  A    between atoms: N_23  and  C_24
REMARK   10  A    between atoms: C_30  and  C_31
REMARK   11  A    between atoms: N_33  and  C_34
REMARK                            x       y       z     vdW  Elec       q    Type
REMARK                         _______ _______ _______ _____ _____    ______ ____
ROOT
ATOM      1  N   UNL     1       1.698   8.300  19.475  0.00  0.00    +0.000 N 
ATOM      2  C   UNL     1       2.544   7.730  18.531  0.00  0.00    +0.000 C 
ATOM      3  O   UNL     1       2.759   8.109  17.384  0.00  0.00    +0.000 OA
ATOM      4  H   UNL     1       1.590   7.769  20.350  0.00  0.00    +0.000 HD
ENDROOT
BRANCH   1   8
ATOM      5  C   UNL     1      -1.053  11.417  18.806  0.00  0.00    +0.000 A 
ATOM      6  C   UNL     1      -0.159  11.034  17.811  0.00  0.00    +0.000 A 
ATOM      7  C   UNL     1       0.777  10.036  18.053  0.00  0.00    +0.000 A 
ATOM      8  C   UNL     1       0.810   9.373  19.281  0.00  0.00    +0.000 A 
ATOM      9  C   UNL     1      -0.081   9.772  20.307  0.00  0.00    +0.000 A 
ATOM     10  C   UNL     1      -1.002  10.810  20.059  0.00  0.00    +0.000 A 
BRANCH   9  11
ATOM     11  C   UNL     1      -0.100   9.074  21.637  0.00  0.00    +0.000 C 
ATOM     12  O   UNL     1      -0.521   7.924  21.722  0.00  0.00    +0.000 OA
ATOM     13  N   UNL     1       0.341   9.799  22.729  0.00  0.00    +0.000 N 
ATOM     14  C   UNL     1       0.350   9.260  24.070  0.00  0.00    +0.000 C 
ATOM     15  H   UNL     1       0.466  10.799  22.645  0.00  0.00    +0.000 HD
ENDBRANCH   9  11
BRANCH   5  16
ATOM     16  O   UNL     1      -1.970  12.342  18.405  0.00  0.00    +0.000 OA
BRANCH  16  17
ATOM     17  C   UNL     1      -3.316  11.894  18.278  0.00  0.00    +0.000 C 
BRANCH  17  20
ATOM     18  C   UNL     1      -3.309  10.417  14.762  0.00  0.00    +0.000 C 
ATOM     19  N   UNL     1      -3.266  11.294  15.902  0.00  0.00    +0.000 N 
ATOM     20  C   UNL     1      -3.411  10.824  17.189  0.00  0.00    +0.000 C 
ATOM     21  O   UNL     1      -3.580   9.640  17.459  0.00  0.00    +0.000 OA
ATOM     22  H   UNL     1      -3.158  12.296  15.771  0.00  0.00    +0.000 HD
ENDBRANCH  17  20
ENDBRANCH  16  17
ENDBRANCH   5  16
ENDBRANCH   1   8
BRANCH   2  23
ATOM     23  C   UNL     1       3.137   6.454  19.013  0.00  0.00    +0.000 A 
ATOM     24  N   UNL     1       2.402   5.858  20.001  0.00  0.00    +0.000 NA
ATOM     25  C   UNL     1       2.755   4.609  20.357  0.00  0.00    +0.000 A 
ATOM     26  C   UNL     1       3.826   4.005  19.713  0.00  0.00    +0.000 A 
ATOM     27  N   UNL     1       4.587   4.613  18.770  0.00  0.00    +0.000 NA
ATOM     28  C   UNL     1       4.252   5.869  18.395  0.00  0.00    +0.000 A 
BRANCH  25  29
ATOM     29  C   UNL     1       1.926   3.903  21.388  0.00  0.00    +0.000 C 
ATOM     30  C   UNL     1       1.053   2.729  21.017  0.00  0.00    +0.000 C 
ATOM     31  C   UNL     1       2.302   2.502  21.813  0.00  0.00    +0.000 C 
ENDBRANCH  25  29
BRANCH  28  32
ATOM     32  N   UNL     1       4.953   6.476  17.327  0.00  0.00    +0.000 N 
ATOM     33  H   UNL     1       5.320   7.394  17.592  0.00  0.00    +0.000 HD
BRANCH  32  34
ATOM     34  C   UNL     1       5.639   5.852  16.268  0.00  0.00    +0.000 A 
ATOM     35  C   UNL     1       7.015   5.824  16.100  0.00  0.00    +0.000 A 
ATOM     36  N   UNL     1       7.668   5.233  15.077  0.00  0.00    +0.000 NA
ATOM     37  C   UNL     1       6.898   4.612  14.177  0.00  0.00    +0.000 A 
ATOM     38  N   UNL     1       5.567   4.515  14.234  0.00  0.00    +0.000 NA
ATOM     39  C   UNL     1       4.975   5.129  15.289  0.00  0.00    +0.000 A 
ENDBRANCH  32  34
ENDBRANCH  28  32
ENDBRANCH   2  23
TORSDOF 9
ENDMDL
MODEL 9
REMARK VINA RESULT:      -8.1      3.499      9.004
REMARK  Name = 
REMARK  11 active torsions:
REMARK  status: ('A' for Active; 'I' for Inactive)
REMARK    1  A    between atoms: C_1  and  N_2
REMARK    2  A    between atoms: C_3  and  C_5
REMARK    3  A    between atoms: C_5  and  O_6
REMARK    4  A    between atoms: O_6  and  C_7
REMARK    5  A    between atoms: C_10  and  N_11
REMARK    6  A    between atoms: C_12  and  C_14
REMARK    7  A    between atoms: C_16  and  C_17
REMARK    8  A    between atoms: C_22  and  N_23
REMARK    9  A    between atoms: N_23  and  C_24
REMARK   10  A    between atoms: C_30  and  C_31
REMARK   11  A    between atoms: N_33  and  C_34
REMARK                            x       y       z     vdW  Elec       q    Type
REMARK                         _______ _______ _______ _____ _____    ______ ____
ROOT
ATOM      1  N   UNL     1       1.535   8.271  19.297  0.00  0.00    +0.000 N 
ATOM      2  C   UNL     1       2.450   7.732  18.401  0.00  0.00    +0.000 C 
ATOM      3  O   UNL     1       2.678   8.090  17.249  0.00  0.00    +0.000 OA
ATOM      4  H   UNL     1       1.434   7.763  20.186  0.00  0.00    +0.000 HD
ENDROOT
BRANCH   1   8
ATOM      5  C   UNL     1      -1.430  11.158  18.516  0.00  0.00    +0.000 A 
ATOM      6  C   UNL     1      -0.930  10.360  17.493  0.00  0.00    +0.000 A 
ATOM      7  C   UNL     1       0.081   9.442  17.747  0.00  0.00    +0.000 A 
ATOM      8  C   UNL     1       0.582   9.274  19.040  0.00  0.00    +0.000 A 
ATOM      9  C   UNL     1       0.095  10.097  20.083  0.00  0.00    +0.000 A 
ATOM     10  C   UNL     1      -0.906  11.049  19.803  0.00  0.00    +0.000 A 
BRANCH   9  11
ATOM     11  C   UNL     1       0.584   9.938  21.494  0.00  0.00    +0.000 C 
ATOM     12  O   UNL     1       1.786   9.987  21.737  0.00  0.00    +0.000 OA
ATOM     13  N   UNL     1      -0.374   9.706  22.464  0.00  0.00    +0.000 N 
ATOM     14  C   UNL     1      -0.041   9.508  23.857  0.00  0.00    +0.000 C 
ATOM     15  H   UNL     1      -1.314   9.458  22.187  0.00  0.00    +0.000 HD
ENDBRANCH   9  11
BRANCH   5  16
ATOM     16  O   UNL     1      -2.476  11.950  18.145  0.00  0.00    +0.000 OA
BRANCH  16  17
ATOM     17  C   UNL     1      -3.320  11.451  17.112  0.00  0.00    +0.000 C 
BRANCH  17  20
ATOM     18  C   UNL     1      -6.899  12.748  17.330  0.00  0.00    +0.000 C 
ATOM     19  N   UNL     1      -5.504  12.559  17.030  0.00  0.00    +0.000 N 
ATOM     20  C   UNL     1      -4.782  11.510  17.556  0.00  0.00    +0.000 C 
ATOM     21  O   UNL     1      -5.265  10.667  18.304  0.00  0.00    +0.000 OA
ATOM     22  H   UNL     1      -5.014  13.225  16.441  0.00  0.00    +0.000 HD
ENDBRANCH  17  20
ENDBRANCH  16  17
ENDBRANCH   5  16
ENDBRANCH   1   8
BRANCH   2  23
ATOM     23  C   UNL     1       3.112   6.517  18.944  0.00  0.00    +0.000 A 
ATOM     24  N   UNL     1       2.401   5.921  19.950  0.00  0.00    +0.000 NA
ATOM     25  C   UNL     1       2.824   4.712  20.363  0.00  0.00    +0.000 A 
ATOM     26  C   UNL     1       3.937   4.146  19.758  0.00  0.00    +0.000 A 
ATOM     27  N   UNL     1       4.673   4.758  18.797  0.00  0.00    +0.000 NA
ATOM     28  C   UNL     1       4.268   5.975  18.364  0.00  0.00    +0.000 A 
BRANCH  25  29
ATOM     29  C   UNL     1       2.026   4.001  21.416  0.00  0.00    +0.000 C 
ATOM     30  C   UNL     1       1.034   2.926  21.049  0.00  0.00    +0.000 C 
ATOM     31  C   UNL     1       2.320   2.551  21.720  0.00  0.00    +0.000 C 
ENDBRANCH  25  29
BRANCH  28  32
ATOM     32  N   UNL     1       4.944   6.576  17.278  0.00  0.00    +0.000 N 
ATOM     33  H   UNL     1       5.314   7.497  17.529  0.00  0.00    +0.000 HD
BRANCH  32  34
ATOM     34  C   UNL     1       5.611   5.947  16.209  0.00  0.00    +0.000 A 
ATOM     35  C   UNL     1       5.010   5.199  15.208  0.00  0.00    +0.000 A 
ATOM     36  N   UNL     1       5.653   4.590  14.190  0.00  0.00    +0.000 NA
ATOM     37  C   UNL     1       6.980   4.759  14.158  0.00  0.00    +0.000 A 
ATOM     38  N   UNL     1       7.687   5.491  15.022  0.00  0.00    +0.000 NA
ATOM     39  C   UNL     1       6.978   6.077  16.018  0.00  0.00    +0.000 A 
ENDBRANCH  32  34
ENDBRANCH  28  32
ENDBRANCH   2  23
TORSDOF 9
ENDMDL
