MODEL 1
REMARK VINA RESULT:      -8.1      0.000      0.000
REMARK  Name = 
REMARK  6 active torsions:
REMARK  status: ('A' for Active; 'I' for Inactive)
REMARK    1  A    between atoms: C_2  and  C_3
REMARK    2  A    between atoms: C_3  and  N_4
REMARK    3  A    between atoms: C_5  and  C_7
REMARK    4  A    between atoms: C_7  and  C_9
REMARK    5  A    between atoms: C_15  and  N_16
REMARK    6  A    between atoms: C_17  and  C_19
REMARK                            x       y       z     vdW  Elec       q    Type
REMARK                         _______ _______ _______ _____ _____    ______ ____
ROOT
ATOM      1  C   UNL     1       5.630   4.984  16.610  0.00  0.00    +0.000 A 
ATOM      2  C   UNL     1       4.656   3.973  16.743  0.00  0.00    +0.000 A 
ATOM      3  C   UNL     1       3.445   4.226  17.380  0.00  0.00    +0.000 A 
ATOM      4 CL   UNL     1       2.293   2.964  17.563  0.00  0.00    +0.000 Cl
ATOM      5  C   UNL     1       3.168   5.488  17.868  0.00  0.00    +0.000 A 
ATOM      6  C   UNL     1       4.107   6.509  17.710  0.00  0.00    +0.000 A 
ATOM      7  C   UNL     1       5.356   6.290  17.098  0.00  0.00    +0.000 A 
ENDROOT
BRANCH   7   8
ATOM      8  N   UNL     1       6.291   7.365  16.991  0.00  0.00    +0.000 N 
ATOM      9  C   UNL     1       7.411   7.552  17.802  0.00  0.00    +0.000 C 
ATOM     10  O   UNL     1       7.819   6.743  18.638  0.00  0.00    +0.000 OA
ATOM     11  H   UNL     1       6.142   8.031  16.231  0.00  0.00    +0.000 HD
BRANCH   9  12
ATOM     12  C   UNL     1       8.256   8.784  17.545  0.00  0.00    +0.000 C 
ATOM     13 CL   UNL     1       8.878   9.514  19.029  0.00  0.00    +0.000 Cl
ENDBRANCH   9  12
ENDBRANCH   7   8
BRANCH   1  14
ATOM     14  C   UNL     1       6.932   4.562  15.993  0.00  0.00    +0.000 C 
ATOM     15  O   UNL     1       7.877   4.188  16.677  0.00  0.00    +0.000 OA
BRANCH  14  17
ATOM     16  N   UNL     1       6.391   3.549  13.754  0.00  0.00    +0.000 N 
ATOM     17  C   UNL     1       7.026   4.578  14.450  0.00  0.00    +0.000 C 
ATOM     18  O   UNL     1       7.687   5.454  13.909  0.00  0.00    +0.000 OA
ATOM     19  H   UNL     1       5.827   2.883  14.263  0.00  0.00    +0.000 HD
BRANCH  16  20
ATOM     20  C   UNL     1       6.413   3.522  12.293  0.00  0.00    +0.000 C 
BRANCH  20  22
ATOM     21  C   UNL     1       3.838   3.130  11.204  0.00  0.00    +0.000 C 
ATOM     22  C   UNL     1       5.027   3.311  11.707  0.00  0.00    +0.000 C 
ENDBRANCH  20  22
ENDBRANCH  16  20
ENDBRANCH  14  17
ENDBRANCH   1  14
TORSDOF 6
ENDMDL
MODEL 2
REMARK VINA RESULT:      -7.2      2.628      5.574
REMARK  Name = 
REMARK  6 active torsions:
REMARK  status: ('A' for Active; 'I' for Inactive)
REMARK    1  A    between atoms: C_2  and  C_3
REMARK    2  A    between atoms: C_3  and  N_4
REMARK    3  A    between atoms: C_5  and  C_7
REMARK    4  A    between atoms: C_7  and  C_9
REMARK    5  A    between atoms: C_15  and  N_16
REMARK    6  A    between atoms: C_17  and  C_19
REMARK                            x       y       z     vdW  Elec       q    Type
REMARK                         _______ _______ _______ _____ _____    ______ ____
ROOT
ATOM      1  C   UNL     1       5.653   4.535  18.023  0.00  0.00    +0.000 A 
ATOM      2  C   UNL     1       4.929   4.829  19.196  0.00  0.00    +0.000 A 
ATOM      3  C   UNL     1       3.573   4.534  19.291  0.00  0.00    +0.000 A 
ATOM      4 CL   UNL     1       2.705   4.940  20.719  0.00  0.00    +0.000 Cl
ATOM      5  C   UNL     1       2.920   3.918  18.240  0.00  0.00    +0.000 A 
ATOM      6  C   UNL     1       3.634   3.587  17.086  0.00  0.00    +0.000 A 
ATOM      7  C   UNL     1       5.000   3.893  16.936  0.00  0.00    +0.000 A 
ENDROOT
BRANCH   7   8
ATOM      8  N   UNL     1       5.672   3.558  15.721  0.00  0.00    +0.000 N 
ATOM      9  C   UNL     1       5.675   4.325  14.556  0.00  0.00    +0.000 C 
ATOM     10  O   UNL     1       5.207   5.462  14.459  0.00  0.00    +0.000 OA
ATOM     11  H   UNL     1       6.224   2.699  15.723  0.00  0.00    +0.000 HD
BRANCH   9  12
ATOM     12  C   UNL     1       6.422   3.768  13.360  0.00  0.00    +0.000 C 
ATOM     13 CL   UNL     1       5.352   3.325  12.025  0.00  0.00    +0.000 Cl
ENDBRANCH   9  12
ENDBRANCH   7   8
BRANCH   1  14
ATOM     14  C   UNL     1       7.084   4.990  18.005  0.00  0.00    +0.000 C 
ATOM     15  O   UNL     1       7.982   4.308  18.485  0.00  0.00    +0.000 OA
BRANCH  14  17
ATOM     16  N   UNL     1       7.491   7.469  18.132  0.00  0.00    +0.000 N 
ATOM     17  C   UNL     1       7.394   6.339  17.320  0.00  0.00    +0.000 C 
ATOM     18  O   UNL     1       7.493   6.371  16.100  0.00  0.00    +0.000 OA
ATOM     19  H   UNL     1       7.441   7.362  19.135  0.00  0.00    +0.000 HD
BRANCH  16  20
ATOM     20  C   UNL     1       7.814   8.771  17.552  0.00  0.00    +0.000 C 
BRANCH  20  22
ATOM     21  C   UNL     1       9.410  10.332  19.281  0.00  0.00    +0.000 C 
ATOM     22  C   UNL     1       8.673   9.611  18.483  0.00  0.00    +0.000 C 
ENDBRANCH  20  22
ENDBRANCH  16  20
ENDBRANCH  14  17
ENDBRANCH   1  14
TORSDOF 6
ENDMDL
MODEL 3
REMARK VINA RESULT:      -7.0      1.282      1.363
REMARK  Name = 
REMARK  6 active torsions:
REMARK  status: ('A' for Active; 'I' for Inactive)
REMARK    1  A    between atoms: C_2  and  C_3
REMARK    2  A    between atoms: C_3  and  N_4
REMARK    3  A    between atoms: C_5  and  C_7
REMARK    4  A    between atoms: C_7  and  C_9
REMARK    5  A    between atoms: C_15  and  N_16
REMARK    6  A    between atoms: C_17  and  C_19
REMARK                            x       y       z     vdW  Elec       q    Type
REMARK                         _______ _______ _______ _____ _____    ______ ____
ROOT
ATOM      1  C   UNL     1       5.788   4.486  17.141  0.00  0.00    +0.000 A 
ATOM      2  C   UNL     1       4.676   3.664  16.868  0.00  0.00    +0.000 A 
ATOM      3  C   UNL     1       3.586   3.625  17.732  0.00  0.00    +0.000 A 
ATOM      4 CL   UNL     1       2.261   2.583  17.395  0.00  0.00    +0.000 Cl
ATOM      5  C   UNL     1       3.568   4.420  18.863  0.00  0.00    +0.000 A 
ATOM      6  C   UNL     1       4.646   5.268  19.126  0.00  0.00    +0.000 A 
ATOM      7  C   UNL     1       5.781   5.317  18.294  0.00  0.00    +0.000 A 
ENDROOT
BRANCH   7   8
ATOM      8  N   UNL     1       6.867   6.181  18.629  0.00  0.00    +0.000 N 
ATOM      9  C   UNL     1       7.268   7.302  17.900  0.00  0.00    +0.000 C 
ATOM     10  O   UNL     1       6.656   7.774  16.939  0.00  0.00    +0.000 OA
ATOM     11  H   UNL     1       7.368   5.978  19.495  0.00  0.00    +0.000 HD
BRANCH   9  12
ATOM     12  C   UNL     1       8.475   8.065  18.408  0.00  0.00    +0.000 C 
ATOM     13 CL   UNL     1       8.420   9.786  18.010  0.00  0.00    +0.000 Cl
ENDBRANCH   9  12
ENDBRANCH   7   8
BRANCH   1  14
ATOM     14  C   UNL     1       6.941   4.367  16.186  0.00  0.00    +0.000 C 
ATOM     15  O   UNL     1       8.071   4.095  16.573  0.00  0.00    +0.000 OA
BRANCH  14  17
ATOM     16  N   UNL     1       6.257   3.436  13.952  0.00  0.00    +0.000 N 
ATOM     17  C   UNL     1       6.643   4.560  14.682  0.00  0.00    +0.000 C 
ATOM     18  O   UNL     1       6.802   5.668  14.188  0.00  0.00    +0.000 OA
ATOM     19  H   UNL     1       6.104   2.562  14.434  0.00  0.00    +0.000 HD
BRANCH  16  20
ATOM     20  C   UNL     1       5.928   3.554  12.532  0.00  0.00    +0.000 C 
BRANCH  20  22
ATOM     21  C   UNL     1       6.427   1.157  11.127  0.00  0.00    +0.000 C 
ATOM     22  C   UNL     1       6.196   2.264  11.776  0.00  0.00    +0.000 C 
ENDBRANCH  20  22
ENDBRANCH  16  20
ENDBRANCH  14  17
ENDBRANCH   1  14
TORSDOF 6
ENDMDL
MODEL 4
REMARK VINA RESULT:      -7.0      3.752      6.160
REMARK  Name = 
REMARK  6 active torsions:
REMARK  status: ('A' for Active; 'I' for Inactive)
REMARK    1  A    between atoms: C_2  and  C_3
REMARK    2  A    between atoms: C_3  and  N_4
REMARK    3  A    between atoms: C_5  and  C_7
REMARK    4  A    between atoms: C_7  and  C_9
REMARK    5  A    between atoms: C_15  and  N_16
REMARK    6  A    between atoms: C_17  and  C_19
REMARK                            x       y       z     vdW  Elec       q    Type
REMARK                         _______ _______ _______ _____ _____    ______ ____
ROOT
ATOM      1  C   UNL     1       2.928   6.633  18.521  0.00  0.00    +0.000 A 
ATOM      2  C   UNL     1       2.654   7.875  17.913  0.00  0.00    +0.000 A 
ATOM      3  C   UNL     1       1.945   8.861  18.590  0.00  0.00    +0.000 A 
ATOM      4 CL   UNL     1       1.590  10.352  17.810  0.00  0.00    +0.000 Cl
ATOM      5  C   UNL     1       1.521   8.646  19.888  0.00  0.00    +0.000 A 
ATOM      6  C   UNL     1       1.818   7.434  20.516  0.00  0.00    +0.000 A 
ATOM      7  C   UNL     1       2.508   6.398  19.858  0.00  0.00    +0.000 A 
ENDROOT
BRANCH   7   8
ATOM      8  N   UNL     1       2.758   5.169  20.541  0.00  0.00    +0.000 N 
ATOM      9  C   UNL     1       1.823   4.157  20.761  0.00  0.00    +0.000 C 
ATOM     10  O   UNL     1       0.687   4.130  20.280  0.00  0.00    +0.000 OA
ATOM     11  H   UNL     1       3.713   5.006  20.862  0.00  0.00    +0.000 HD
BRANCH   9  12
ATOM     12  C   UNL     1       2.284   2.943  21.544  0.00  0.00    +0.000 C 
ATOM     13 CL   UNL     1       3.776   2.241  20.910  0.00  0.00    +0.000 Cl
ENDBRANCH   9  12
ENDBRANCH   7   8
BRANCH   1  14
ATOM     14  C   UNL     1       3.615   5.617  17.655  0.00  0.00    +0.000 C 
ATOM     15  O   UNL     1       3.130   4.510  17.453  0.00  0.00    +0.000 OA
BRANCH  14  17
ATOM     16  N   UNL     1       6.051   6.223  17.816  0.00  0.00    +0.000 N 
ATOM     17  C   UNL     1       4.945   6.032  16.988  0.00  0.00    +0.000 C 
ATOM     18  O   UNL     1       4.964   6.223  15.778  0.00  0.00    +0.000 OA
ATOM     19  H   UNL     1       5.975   6.006  18.799  0.00  0.00    +0.000 HD
BRANCH  16  20
ATOM     20  C   UNL     1       7.348   6.584  17.247  0.00  0.00    +0.000 C 
BRANCH  20  22
ATOM     21  C   UNL     1       8.163   9.171  18.030  0.00  0.00    +0.000 C 
ATOM     22  C   UNL     1       7.787   7.977  17.668  0.00  0.00    +0.000 C 
ENDBRANCH  20  22
ENDBRANCH  16  20
ENDBRANCH  14  17
ENDBRANCH   1  14
TORSDOF 6
ENDMDL
MODEL 5
REMARK VINA RESULT:      -6.9      2.893      4.993
REMARK  Name = 
REMARK  6 active torsions:
REMARK  status: ('A' for Active; 'I' for Inactive)
REMARK    1  A    between atoms: C_2  and  C_3
REMARK    2  A    between atoms: C_3  and  N_4
REMARK    3  A    between atoms: C_5  and  C_7
REMARK    4  A    between atoms: C_7  and  C_9
REMARK    5  A    between atoms: C_15  and  N_16
REMARK    6  A    between atoms: C_17  and  C_19
REMARK                            x       y       z     vdW  Elec       q    Type
REMARK                         _______ _______ _______ _____ _____    ______ ____
ROOT
ATOM      1  C   UNL     1       5.396   4.874  15.562  0.00  0.00    +0.000 A 
ATOM      2  C   UNL     1       4.897   4.142  14.465  0.00  0.00    +0.000 A 
ATOM      3  C   UNL     1       5.683   3.919  13.338  0.00  0.00    +0.000 A 
ATOM      4 CL   UNL     1       5.036   3.057  11.999  0.00  0.00    +0.000 Cl
ATOM      5  C   UNL     1       6.980   4.393  13.291  0.00  0.00    +0.000 A 
ATOM      6  C   UNL     1       7.499   5.087  14.386  0.00  0.00    +0.000 A 
ATOM      7  C   UNL     1       6.731   5.360  15.533  0.00  0.00    +0.000 A 
ENDROOT
BRANCH   7   8
ATOM      8  N   UNL     1       7.305   6.101  16.611  0.00  0.00    +0.000 N 
ATOM      9  C   UNL     1       7.557   5.610  17.892  0.00  0.00    +0.000 C 
ATOM     10  O   UNL     1       7.439   4.429  18.230  0.00  0.00    +0.000 OA
ATOM     11  H   UNL     1       7.586   7.062  16.410  0.00  0.00    +0.000 HD
BRANCH   9  12
ATOM     12  C   UNL     1       8.138   6.576  18.905  0.00  0.00    +0.000 C 
ATOM     13 CL   UNL     1       8.286   8.223  18.280  0.00  0.00    +0.000 Cl
ENDBRANCH   9  12
ENDBRANCH   7   8
BRANCH   1  14
ATOM     14  C   UNL     1       4.421   5.131  16.675  0.00  0.00    +0.000 C 
ATOM     15  O   UNL     1       4.079   6.266  16.982  0.00  0.00    +0.000 OA
BRANCH  14  17
ATOM     16  N   UNL     1       4.599   3.308  18.400  0.00  0.00    +0.000 N 
ATOM     17  C   UNL     1       3.828   3.901  17.399  0.00  0.00    +0.000 C 
ATOM     18  O   UNL     1       2.740   3.472  17.038  0.00  0.00    +0.000 OA
ATOM     19  H   UNL     1       5.469   3.740  18.675  0.00  0.00    +0.000 HD
BRANCH  16  20
ATOM     20  C   UNL     1       4.084   2.161  19.147  0.00  0.00    +0.000 C 
BRANCH  20  22
ATOM     21  C   UNL     1       2.428   2.956  21.291  0.00  0.00    +0.000 C 
ATOM     22  C   UNL     1       3.193   2.589  20.301  0.00  0.00    +0.000 C 
ENDBRANCH  20  22
ENDBRANCH  16  20
ENDBRANCH  14  17
ENDBRANCH   1  14
TORSDOF 6
ENDMDL
MODEL 6
REMARK VINA RESULT:      -6.8      2.040      4.545
REMARK  Name = 
REMARK  6 active torsions:
REMARK  status: ('A' for Active; 'I' for Inactive)
REMARK    1  A    between atoms: C_2  and  C_3
REMARK    2  A    between atoms: C_3  and  N_4
REMARK    3  A    between atoms: C_5  and  C_7
REMARK    4  A    between atoms: C_7  and  C_9
REMARK    5  A    between atoms: C_15  and  N_16
REMARK    6  A    between atoms: C_17  and  C_19
REMARK                            x       y       z     vdW  Elec       q    Type
REMARK                         _______ _______ _______ _____ _____    ______ ____
ROOT
ATOM      1  C   UNL     1       6.529   6.028  16.930  0.00  0.00    +0.000 A 
ATOM      2  C   UNL     1       7.349   7.128  17.252  0.00  0.00    +0.000 A 
ATOM      3  C   UNL     1       7.980   7.211  18.490  0.00  0.00    +0.000 A 
ATOM      4 CL   UNL     1       8.943   8.583  18.870  0.00  0.00    +0.000 Cl
ATOM      5  C   UNL     1       7.831   6.195  19.415  0.00  0.00    +0.000 A 
ATOM      6  C   UNL     1       7.052   5.082  19.095  0.00  0.00    +0.000 A 
ATOM      7  C   UNL     1       6.373   4.970  17.866  0.00  0.00    +0.000 A 
ENDROOT
BRANCH   7   8
ATOM      8  N   UNL     1       5.565   3.821  17.605  0.00  0.00    +0.000 N 
ATOM      9  C   UNL     1       4.197   3.716  17.858  0.00  0.00    +0.000 C 
ATOM     10  O   UNL     1       3.473   4.646  18.220  0.00  0.00    +0.000 OA
ATOM     11  H   UNL     1       6.026   3.025  17.163  0.00  0.00    +0.000 HD
BRANCH   9  12
ATOM     12  C   UNL     1       3.533   2.390  17.542  0.00  0.00    +0.000 C 
ATOM     13 CL   UNL     1       3.919   1.129  18.718  0.00  0.00    +0.000 Cl
ENDBRANCH   9  12
ENDBRANCH   7   8
BRANCH   1  14
ATOM     14  C   UNL     1       5.826   6.100  15.605  0.00  0.00    +0.000 C 
ATOM     15  O   UNL     1       4.896   6.874  15.411  0.00  0.00    +0.000 OA
BRANCH  14  17
ATOM     16  N   UNL     1       5.444   4.290  13.900  0.00  0.00    +0.000 N 
ATOM     17  C   UNL     1       6.347   5.187  14.473  0.00  0.00    +0.000 C 
ATOM     18  O   UNL     1       7.528   5.251  14.160  0.00  0.00    +0.000 OA
ATOM     19  H   UNL     1       4.474   4.321  14.178  0.00  0.00    +0.000 HD
BRANCH  16  20
ATOM     20  C   UNL     1       5.862   3.420  12.802  0.00  0.00    +0.000 C 
BRANCH  20  22
ATOM     21  C   UNL     1       3.830   3.110  10.866  0.00  0.00    +0.000 C 
ATOM     22  C   UNL     1       4.769   3.253  11.760  0.00  0.00    +0.000 C 
ENDBRANCH  20  22
ENDBRANCH  16  20
ENDBRANCH  14  17
ENDBRANCH   1  14
TORSDOF 6
ENDMDL
MODEL 7
REMARK VINA RESULT:      -6.7      2.762      4.858
REMARK  Name = 
REMARK  6 active torsions:
REMARK  status: ('A' for Active; 'I' for Inactive)
REMARK    1  A    between atoms: C_2  and  C_3
REMARK    2  A    between atoms: C_3  and  N_4
REMARK    3  A    between atoms: C_5  and  C_7
REMARK    4  A    between atoms: C_7  and  C_9
REMARK    5  A    between atoms: C_15  and  N_16
REMARK    6  A    between atoms: C_17  and  C_19
REMARK                            x       y       z     vdW  Elec       q    Type
REMARK                         _______ _______ _______ _____ _____    ______ ____
ROOT
ATOM      1  C   UNL     1       5.463   4.876  15.576  0.00  0.00    +0.000 A 
ATOM      2  C   UNL     1       4.994   4.096  14.500  0.00  0.00    +0.000 A 
ATOM      3  C   UNL     1       5.789   3.874  13.379  0.00  0.00    +0.000 A 
ATOM      4 CL   UNL     1       5.178   2.951  12.064  0.00  0.00    +0.000 Cl
ATOM      5  C   UNL     1       7.067   4.397  13.319  0.00  0.00    +0.000 A 
ATOM      6  C   UNL     1       7.557   5.140  14.395  0.00  0.00    +0.000 A 
ATOM      7  C   UNL     1       6.778   5.413  15.535  0.00  0.00    +0.000 A 
ENDROOT
BRANCH   7   8
ATOM      8  N   UNL     1       7.322   6.205  16.592  0.00  0.00    +0.000 N 
ATOM      9  C   UNL     1       7.670   5.738  17.860  0.00  0.00    +0.000 C 
ATOM     10  O   UNL     1       7.679   4.552  18.197  0.00  0.00    +0.000 OA
ATOM     11  H   UNL     1       7.502   7.188  16.385  0.00  0.00    +0.000 HD
BRANCH   9  12
ATOM     12  C   UNL     1       8.197   6.755  18.854  0.00  0.00    +0.000 C 
ATOM     13 CL   UNL     1       8.266   8.392  18.192  0.00  0.00    +0.000 Cl
ENDBRANCH   9  12
ENDBRANCH   7   8
BRANCH   1  14
ATOM     14  C   UNL     1       4.478   5.124  16.683  0.00  0.00    +0.000 C 
ATOM     15  O   UNL     1       4.074   6.251  16.945  0.00  0.00    +0.000 OA
BRANCH  14  17
ATOM     16  N   UNL     1       2.629   3.516  17.253  0.00  0.00    +0.000 N 
ATOM     17  C   UNL     1       3.956   3.894  17.459  0.00  0.00    +0.000 C 
ATOM     18  O   UNL     1       4.704   3.337  18.252  0.00  0.00    +0.000 OA
ATOM     19  H   UNL     1       2.082   3.995  16.553  0.00  0.00    +0.000 HD
BRANCH  16  20
ATOM     20  C   UNL     1       2.081   2.342  17.931  0.00  0.00    +0.000 C 
BRANCH  20  22
ATOM     21  C   UNL     1       1.075   2.973  20.492  0.00  0.00    +0.000 C 
ATOM     22  C   UNL     1       1.540   2.682  19.309  0.00  0.00    +0.000 C 
ENDBRANCH  20  22
ENDBRANCH  16  20
ENDBRANCH  14  17
ENDBRANCH   1  14
TORSDOF 6
ENDMDL
MODEL 8
REMARK VINA RESULT:      -6.7      2.714      3.548
REMARK  Name = 
REMARK  6 active torsions:
REMARK  status: ('A' for Active; 'I' for Inactive)
REMARK    1  A    between atoms: C_2  and  C_3
REMARK    2  A    between atoms: C_3  and  N_4
REMARK    3  A    between atoms: C_5  and  C_7
REMARK    4  A    between atoms: C_7  and  C_9
REMARK    5  A    between atoms: C_15  and  N_16
REMARK    6  A    between atoms: C_17  and  C_19
REMARK                            x       y       z     vdW  Elec       q    Type
REMARK                         _______ _______ _______ _____ _____    ______ ____
ROOT
ATOM      1  C   UNL     1       4.180   5.083  17.365  0.00  0.00    +0.000 A 
ATOM      2  C   UNL     1       4.408   3.705  17.553  0.00  0.00    +0.000 A 
ATOM      3  C   UNL     1       3.430   2.888  18.111  0.00  0.00    +0.000 A 
ATOM      4 CL   UNL     1       3.749   1.218  18.366  0.00  0.00    +0.000 Cl
ATOM      5  C   UNL     1       2.202   3.416  18.465  0.00  0.00    +0.000 A 
ATOM      6  C   UNL     1       1.949   4.773  18.248  0.00  0.00    +0.000 A 
ATOM      7  C   UNL     1       2.920   5.640  17.713  0.00  0.00    +0.000 A 
ENDROOT
BRANCH   7   8
ATOM      8  N   UNL     1       2.616   7.025  17.543  0.00  0.00    +0.000 N 
ATOM      9  C   UNL     1       2.270   7.913  18.562  0.00  0.00    +0.000 C 
ATOM     10  O   UNL     1       2.309   7.652  19.767  0.00  0.00    +0.000 OA
ATOM     11  H   UNL     1       2.694   7.400  16.596  0.00  0.00    +0.000 HD
BRANCH   9  12
ATOM     12  C   UNL     1       1.946   9.339  18.161  0.00  0.00    +0.000 C 
ATOM     13 CL   UNL     1       0.213   9.621  17.964  0.00  0.00    +0.000 Cl
ENDBRANCH   9  12
ENDBRANCH   7   8
BRANCH   1  14
ATOM     14  C   UNL     1       5.346   5.874  16.845  0.00  0.00    +0.000 C 
ATOM     15  O   UNL     1       5.663   6.951  17.338  0.00  0.00    +0.000 OA
BRANCH  14  17
ATOM     16  N   UNL     1       5.490   4.432  14.790  0.00  0.00    +0.000 N 
ATOM     17  C   UNL     1       6.163   5.261  15.686  0.00  0.00    +0.000 C 
ATOM     18  O   UNL     1       7.365   5.486  15.630  0.00  0.00    +0.000 OA
ATOM     19  H   UNL     1       4.489   4.325  14.872  0.00  0.00    +0.000 HD
BRANCH  16  20
ATOM     20  C   UNL     1       6.196   3.845  13.652  0.00  0.00    +0.000 C 
BRANCH  20  22
ATOM     21  C   UNL     1       4.447   3.242  11.519  0.00  0.00    +0.000 C 
ATOM     22  C   UNL     1       5.254   3.520  12.504  0.00  0.00    +0.000 C 
ENDBRANCH  20  22
ENDBRANCH  16  20
ENDBRANCH  14  17
ENDBRANCH   1  14
TORSDOF 6
ENDMDL
MODEL 9
REMARK VINA RESULT:      -6.7      3.219      4.477
REMARK  Name = 
REMARK  6 active torsions:
REMARK  status: ('A' for Active; 'I' for Inactive)
REMARK    1  A    between atoms: C_2  and  C_3
REMARK    2  A    between atoms: C_3  and  N_4
REMARK    3  A    between atoms: C_5  and  C_7
REMARK    4  A    between atoms: C_7  and  C_9
REMARK    5  A    between atoms: C_15  and  N_16
REMARK    6  A    between atoms: C_17  and  C_19
REMARK                            x       y       z     vdW  Elec       q    Type
REMARK                         _______ _______ _______ _____ _____    ______ ____
ROOT
ATOM      1  C   UNL     1       5.000   4.999  18.313  0.00  0.00    +0.000 A 
ATOM      2  C   UNL     1       4.372   6.227  18.023  0.00  0.00    +0.000 A 
ATOM      3  C   UNL     1       3.000   6.385  18.188  0.00  0.00    +0.000 A 
ATOM      4 CL   UNL     1       2.254   7.881  17.789  0.00  0.00    +0.000 Cl
ATOM      5  C   UNL     1       2.233   5.340  18.668  0.00  0.00    +0.000 A 
ATOM      6  C   UNL     1       2.848   4.129  18.996  0.00  0.00    +0.000 A 
ATOM      7  C   UNL     1       4.228   3.917  18.817  0.00  0.00    +0.000 A 
ENDROOT
BRANCH   7   8
ATOM      8  N   UNL     1       4.797   2.648  19.141  0.00  0.00    +0.000 N 
ATOM      9  C   UNL     1       4.634   1.968  20.348  0.00  0.00    +0.000 C 
ATOM     10  O   UNL     1       3.867   2.311  21.252  0.00  0.00    +0.000 OA
ATOM     11  H   UNL     1       5.340   2.187  18.409  0.00  0.00    +0.000 HD
BRANCH   9  12
ATOM     12  C   UNL     1       5.358   0.645  20.504  0.00  0.00    +0.000 C 
ATOM     13 CL   UNL     1       5.983   0.390  22.137  0.00  0.00    +0.000 Cl
ENDBRANCH   9  12
ENDBRANCH   7   8
BRANCH   1  14
ATOM     14  C   UNL     1       6.467   4.924  18.002  0.00  0.00    +0.000 C 
ATOM     15  O   UNL     1       7.282   4.533  18.830  0.00  0.00    +0.000 OA
BRANCH  14  17
ATOM     16  N   UNL     1       6.658   4.417  15.545  0.00  0.00    +0.000 N 
ATOM     17  C   UNL     1       6.914   5.320  16.576  0.00  0.00    +0.000 C 
ATOM     18  O   UNL     1       7.510   6.378  16.419  0.00  0.00    +0.000 OA
ATOM     19  H   UNL     1       6.124   3.582  15.740  0.00  0.00    +0.000 HD
BRANCH  16  20
ATOM     20  C   UNL     1       7.025   4.744  14.168  0.00  0.00    +0.000 C 
BRANCH  20  22
ATOM     21  C   UNL     1       5.613   3.171  12.296  0.00  0.00    +0.000 C 
ATOM     22  C   UNL     1       6.265   3.898  13.160  0.00  0.00    +0.000 C 
ENDBRANCH  20  22
ENDBRANCH  16  20
ENDBRANCH  14  17
ENDBRANCH   1  14
TORSDOF 6
ENDMDL
