MODEL 1
REMARK VINA RESULT:      -7.8      0.000      0.000
REMARK  Name = 
REMARK  7 active torsions:
REMARK  status: ('A' for Active; 'I' for Inactive)
REMARK    1  A    between atoms: C_1  and  C_2
REMARK    2  A    between atoms: C_4  and  S_5
REMARK    3  A    between atoms: S_5  and  C_6
REMARK    4  A    between atoms: C_6  and  C_7
REMARK    5  A    between atoms: C_19  and  C_20
REMARK    6  A    between atoms: C_22  and  C_23
REMARK    7  A    between atoms: C_24  and  C_25
REMARK                            x       y       z     vdW  Elec       q    Type
REMARK                         _______ _______ _______ _____ _____    ______ ____
ROOT
ATOM      1  C   UNL     1       8.508   9.528  17.946  0.00  0.00    +0.000 C 
ENDROOT
BRANCH   1   2
ATOM      2  C   UNL     1       7.901   8.148  17.948  0.00  0.00    +0.000 A 
ATOM      3  C   UNL     1       8.326   7.260  18.854  0.00  0.00    +0.000 A 
ATOM      4  C   UNL     1       7.730   5.921  18.901  0.00  0.00    +0.000 A 
ATOM      5  O   UNL     1       8.187   5.084  19.671  0.00  0.00    +0.000 OA
ATOM      6  N   UNL     1       6.701   5.704  18.026  0.00  0.00    +0.000 N 
ATOM      7  C   UNL     1       5.835   4.623  18.211  0.00  0.00    +0.000 A 
ATOM      8  C   UNL     1       4.812   4.444  17.362  0.00  0.00    +0.000 A 
ATOM      9 BR   UNL     1       3.044   4.827  17.954  0.00  0.00    +0.000 Br
ATOM     10  C   UNL     1       5.020   4.930  16.021  0.00  0.00    +0.000 A 
ATOM     11  C   UNL     1       5.624   6.121  15.881  0.00  0.00    +0.000 A 
ATOM     12  C   UNL     1       6.485   6.655  16.998  0.00  0.00    +0.000 A 
ATOM     13  N   UNL     1       7.043   7.811  16.917  0.00  0.00    +0.000 NA
ENDBRANCH   1   2
BRANCH   1  14
ATOM     14  S   UNL     1       9.160  10.074  19.549  0.00  0.00    +0.000 S 
BRANCH  14  18
ATOM     15  C   UNL     1      11.479  13.422  16.398  0.00  0.00    +0.000 C 
ATOM     16  C   UNL     1      10.929  13.185  17.780  0.00  0.00    +0.000 A 
ATOM     17  N   UNL     1      10.391  11.952  18.011  0.00  0.00    +0.000 NA
ATOM     18  C   UNL     1       9.894  11.692  19.243  0.00  0.00    +0.000 A 
ATOM     19  C   UNL     1       9.881  12.657  20.262  0.00  0.00    +0.000 A 
ATOM     20  C   UNL     1      10.447  13.929  20.027  0.00  0.00    +0.000 A 
ATOM     21  C   UNL     1      10.487  14.980  21.117  0.00  0.00    +0.000 C 
ATOM     22  C   UNL     1      10.999  14.195  18.760  0.00  0.00    +0.000 A 
ATOM     23  C   UNL     1      11.650  15.522  18.431  0.00  0.00    +0.000 C 
BRANCH  19  24
ATOM     24  C   UNL     1       9.280  12.360  21.524  0.00  0.00    +0.000 C 
ATOM     25  N   UNL     1       8.797  12.167  22.565  0.00  0.00    +0.000 NA
ENDBRANCH  19  24
ENDBRANCH  14  18
ENDBRANCH   1  14
TORSDOF 4
ENDMDL
MODEL 2
REMARK VINA RESULT:      -7.6      6.787      8.419
REMARK  Name = 
REMARK  7 active torsions:
REMARK  status: ('A' for Active; 'I' for Inactive)
REMARK    1  A    between atoms: C_1  and  C_2
REMARK    2  A    between atoms: C_4  and  S_5
REMARK    3  A    between atoms: S_5  and  C_6
REMARK    4  A    between atoms: C_6  and  C_7
REMARK    5  A    between atoms: C_19  and  C_20
REMARK    6  A    between atoms: C_22  and  C_23
REMARK    7  A    between atoms: C_24  and  C_25
REMARK                            x       y       z     vdW  Elec       q    Type
REMARK                         _______ _______ _______ _____ _____    ______ ____
ROOT
ATOM      1  C   UNL     1       2.118   8.370  18.409  0.00  0.00    +0.000 C 
ENDROOT
BRANCH   1   2
ATOM      2  C   UNL     1       2.912   7.138  18.058  0.00  0.00    +0.000 A 
ATOM      3  C   UNL     1       2.380   5.936  18.312  0.00  0.00    +0.000 A 
ATOM      4  C   UNL     1       3.116   4.720  17.952  0.00  0.00    +0.000 A 
ATOM      5  O   UNL     1       2.666   3.625  18.271  0.00  0.00    +0.000 OA
ATOM      6  N   UNL     1       4.301   4.921  17.298  0.00  0.00    +0.000 N 
ATOM      7  C   UNL     1       4.907   3.873  16.600  0.00  0.00    +0.000 A 
ATOM      8  C   UNL     1       6.051   4.096  15.938  0.00  0.00    +0.000 A 
ATOM      9 BR   UNL     1       6.016   4.170  14.036  0.00  0.00    +0.000 Br
ATOM     10  C   UNL     1       6.894   5.134  16.475  0.00  0.00    +0.000 A 
ATOM     11  C   UNL     1       6.295   6.260  16.896  0.00  0.00    +0.000 A 
ATOM     12  C   UNL     1       4.834   6.234  17.267  0.00  0.00    +0.000 A 
ATOM     13  N   UNL     1       4.218   7.302  17.632  0.00  0.00    +0.000 NA
ENDBRANCH   1   2
BRANCH   1  14
ATOM     14  S   UNL     1       1.435   8.381  20.090  0.00  0.00    +0.000 S 
BRANCH  14  18
ATOM     15  C   UNL     1      -1.817  11.538  17.645  0.00  0.00    +0.000 C 
ATOM     16  C   UNL     1      -1.231  11.134  18.973  0.00  0.00    +0.000 A 
ATOM     17  N   UNL     1      -0.316  10.122  18.945  0.00  0.00    +0.000 NA
ATOM     18  C   UNL     1       0.243   9.734  20.116  0.00  0.00    +0.000 A 
ATOM     19  C   UNL     1      -0.118  10.309  21.343  0.00  0.00    +0.000 A 
ATOM     20  C   UNL     1      -1.056  11.364  21.371  0.00  0.00    +0.000 A 
ATOM     21  C   UNL     1      -1.438  12.036  22.674  0.00  0.00    +0.000 C 
ATOM     22  C   UNL     1      -1.615  11.798  20.155  0.00  0.00    +0.000 A 
ATOM     23  C   UNL     1      -2.608  12.940  20.090  0.00  0.00    +0.000 C 
BRANCH  19  24
ATOM     24  C   UNL     1       0.447   9.817  22.560  0.00  0.00    +0.000 C 
ATOM     25  N   UNL     1       0.873   9.444  23.577  0.00  0.00    +0.000 NA
ENDBRANCH  19  24
ENDBRANCH  14  18
ENDBRANCH   1  14
TORSDOF 4
ENDMDL
MODEL 3
REMARK VINA RESULT:      -7.5      7.428     10.638
REMARK  Name = 
REMARK  7 active torsions:
REMARK  status: ('A' for Active; 'I' for Inactive)
REMARK    1  A    between atoms: C_1  and  C_2
REMARK    2  A    between atoms: C_4  and  S_5
REMARK    3  A    between atoms: S_5  and  C_6
REMARK    4  A    between atoms: C_6  and  C_7
REMARK    5  A    between atoms: C_19  and  C_20
REMARK    6  A    between atoms: C_22  and  C_23
REMARK    7  A    between atoms: C_24  and  C_25
REMARK                            x       y       z     vdW  Elec       q    Type
REMARK                         _______ _______ _______ _____ _____    ______ ____
ROOT
ATOM      1  C   UNL     1       1.908   7.804  20.332  0.00  0.00    +0.000 C 
ENDROOT
BRANCH   1   2
ATOM      2  C   UNL     1       0.992   8.973  20.590  0.00  0.00    +0.000 A 
ATOM      3  C   UNL     1       0.742   9.326  21.856  0.00  0.00    +0.000 A 
ATOM      4  C   UNL     1      -0.120  10.479  22.137  0.00  0.00    +0.000 A 
ATOM      5  O   UNL     1      -0.419  10.741  23.297  0.00  0.00    +0.000 OA
ATOM      6  N   UNL     1      -0.559  11.167  21.038  0.00  0.00    +0.000 N 
ATOM      7  C   UNL     1      -1.075  12.459  21.176  0.00  0.00    +0.000 A 
ATOM      8  C   UNL     1      -1.470  13.130  20.085  0.00  0.00    +0.000 A 
ATOM      9 BR   UNL     1      -0.403  14.575  19.455  0.00  0.00    +0.000 Br
ATOM     10  C   UNL     1      -1.938  12.322  18.987  0.00  0.00    +0.000 A 
ATOM     11  C   UNL     1      -1.247  11.206  18.702  0.00  0.00    +0.000 A 
ATOM     12  C   UNL     1      -0.382  10.575  19.763  0.00  0.00    +0.000 A 
ATOM     13  N   UNL     1       0.327   9.532  19.513  0.00  0.00    +0.000 NA
ENDBRANCH   1   2
BRANCH   1  14
ATOM     14  S   UNL     1       2.420   7.607  18.601  0.00  0.00    +0.000 S 
BRANCH  14  18
ATOM     15  C   UNL     1       1.258   2.686  19.577  0.00  0.00    +0.000 C 
ATOM     16  C   UNL     1       2.179   3.630  18.849  0.00  0.00    +0.000 A 
ATOM     17  N   UNL     1       1.938   4.962  19.024  0.00  0.00    +0.000 NA
ATOM     18  C   UNL     1       2.747   5.846  18.395  0.00  0.00    +0.000 A 
ATOM     19  C   UNL     1       3.788   5.435  17.549  0.00  0.00    +0.000 A 
ATOM     20  C   UNL     1       4.045   4.058  17.376  0.00  0.00    +0.000 A 
ATOM     21  C   UNL     1       5.187   3.579  16.503  0.00  0.00    +0.000 C 
ATOM     22  C   UNL     1       3.231   3.132  18.055  0.00  0.00    +0.000 A 
ATOM     23  C   UNL     1       3.453   1.638  17.948  0.00  0.00    +0.000 C 
BRANCH  19  24
ATOM     24  C   UNL     1       4.571   6.406  16.850  0.00  0.00    +0.000 C 
ATOM     25  N   UNL     1       5.249   7.166  16.287  0.00  0.00    +0.000 NA
ENDBRANCH  19  24
ENDBRANCH  14  18
ENDBRANCH   1  14
TORSDOF 4
ENDMDL
MODEL 4
REMARK VINA RESULT:      -7.5      6.902      8.971
REMARK  Name = 
REMARK  7 active torsions:
REMARK  status: ('A' for Active; 'I' for Inactive)
REMARK    1  A    between atoms: C_1  and  C_2
REMARK    2  A    between atoms: C_4  and  S_5
REMARK    3  A    between atoms: S_5  and  C_6
REMARK    4  A    between atoms: C_6  and  C_7
REMARK    5  A    between atoms: C_19  and  C_20
REMARK    6  A    between atoms: C_22  and  C_23
REMARK    7  A    between atoms: C_24  and  C_25
REMARK                            x       y       z     vdW  Elec       q    Type
REMARK                         _______ _______ _______ _____ _____    ______ ____
ROOT
ATOM      1  C   UNL     1       2.162   9.084  17.807  0.00  0.00    +0.000 C 
ENDROOT
BRANCH   1   2
ATOM      2  C   UNL     1       2.892   7.768  17.728  0.00  0.00    +0.000 A 
ATOM      3  C   UNL     1       2.266   6.659  18.140  0.00  0.00    +0.000 A 
ATOM      4  C   UNL     1       2.941   5.360  18.045  0.00  0.00    +0.000 A 
ATOM      5  O   UNL     1       2.398   4.363  18.508  0.00  0.00    +0.000 OA
ATOM      6  N   UNL     1       4.176   5.381  17.456  0.00  0.00    +0.000 N 
ATOM      7  C   UNL     1       4.753   4.196  16.991  0.00  0.00    +0.000 A 
ATOM      8  C   UNL     1       5.949   4.238  16.387  0.00  0.00    +0.000 A 
ATOM      9 BR   UNL     1       6.041   3.986  14.503  0.00  0.00    +0.000 Br
ATOM     10  C   UNL     1       6.824   5.305  16.805  0.00  0.00    +0.000 A 
ATOM     11  C   UNL     1       6.276   6.519  16.984  0.00  0.00    +0.000 A 
ATOM     12  C   UNL     1       4.796   6.637  17.245  0.00  0.00    +0.000 A 
ATOM     13  N   UNL     1       4.231   7.784  17.379  0.00  0.00    +0.000 NA
ENDBRANCH   1   2
BRANCH   1  14
ATOM     14  S   UNL     1       1.225   9.343  19.340  0.00  0.00    +0.000 S 
BRANCH  14  18
ATOM     15  C   UNL     1      -2.626   9.790  15.951  0.00  0.00    +0.000 C 
ATOM     16  C   UNL     1      -2.071  10.243  17.276  0.00  0.00    +0.000 A 
ATOM     17  N   UNL     1      -0.878   9.695  17.649  0.00  0.00    +0.000 NA
ATOM     18  C   UNL     1      -0.338  10.082  18.829  0.00  0.00    +0.000 A 
ATOM     19  C   UNL     1      -0.982  10.989  19.683  0.00  0.00    +0.000 A 
ATOM     20  C   UNL     1      -2.210  11.565  19.292  0.00  0.00    +0.000 A 
ATOM     21  C   UNL     1      -2.912  12.580  20.172  0.00  0.00    +0.000 C 
ATOM     22  C   UNL     1      -2.761  11.196  18.051  0.00  0.00    +0.000 A 
ATOM     23  C   UNL     1      -4.060  11.785  17.543  0.00  0.00    +0.000 C 
BRANCH  19  24
ATOM     24  C   UNL     1      -0.407  11.313  20.951  0.00  0.00    +0.000 C 
ATOM     25  N   UNL     1       0.103  11.549  21.970  0.00  0.00    +0.000 NA
ENDBRANCH  19  24
ENDBRANCH  14  18
ENDBRANCH   1  14
TORSDOF 4
ENDMDL
MODEL 5
REMARK VINA RESULT:      -7.4      7.067      8.627
REMARK  Name = 
REMARK  7 active torsions:
REMARK  status: ('A' for Active; 'I' for Inactive)
REMARK    1  A    between atoms: C_1  and  C_2
REMARK    2  A    between atoms: C_4  and  S_5
REMARK    3  A    between atoms: S_5  and  C_6
REMARK    4  A    between atoms: C_6  and  C_7
REMARK    5  A    between atoms: C_19  and  C_20
REMARK    6  A    between atoms: C_22  and  C_23
REMARK    7  A    between atoms: C_24  and  C_25
REMARK                            x       y       z     vdW  Elec       q    Type
REMARK                         _______ _______ _______ _____ _____    ______ ____
ROOT
ATOM      1  C   UNL     1       1.951   8.707  18.595  0.00  0.00    +0.000 C 
ENDROOT
BRANCH   1   2
ATOM      2  C   UNL     1       2.587   7.412  18.161  0.00  0.00    +0.000 A 
ATOM      3  C   UNL     1       3.774   7.453  17.544  0.00  0.00    +0.000 A 
ATOM      4  C   UNL     1       4.432   6.206  17.140  0.00  0.00    +0.000 A 
ATOM      5  O   UNL     1       5.473   6.255  16.494  0.00  0.00    +0.000 OA
ATOM      6  N   UNL     1       3.785   5.056  17.502  0.00  0.00    +0.000 N 
ATOM      7  C   UNL     1       4.464   3.834  17.495  0.00  0.00    +0.000 A 
ATOM      8  C   UNL     1       3.825   2.722  17.884  0.00  0.00    +0.000 A 
ATOM      9 BR   UNL     1       4.260   1.949  19.568  0.00  0.00    +0.000 Br
ATOM     10  C   UNL     1       2.400   2.711  17.667  0.00  0.00    +0.000 A 
ATOM     11  C   UNL     1       1.724   3.838  17.947  0.00  0.00    +0.000 A 
ATOM     12  C   UNL     1       2.453   5.157  17.974  0.00  0.00    +0.000 A 
ATOM     13  N   UNL     1       1.847   6.249  18.280  0.00  0.00    +0.000 NA
ENDBRANCH   1   2
BRANCH   1  14
ATOM     14  S   UNL     1       1.276   8.695  20.280  0.00  0.00    +0.000 S 
BRANCH  14  18
ATOM     15  C   UNL     1      -1.940  11.889  17.836  0.00  0.00    +0.000 C 
ATOM     16  C   UNL     1      -1.411  11.431  19.170  0.00  0.00    +0.000 A 
ATOM     17  N   UNL     1      -0.466  10.447  19.138  0.00  0.00    +0.000 NA
ATOM     18  C   UNL     1       0.045  10.012  20.314  0.00  0.00    +0.000 A 
ATOM     19  C   UNL     1      -0.395  10.511  21.549  0.00  0.00    +0.000 A 
ATOM     20  C   UNL     1      -1.365  11.536  21.583  0.00  0.00    +0.000 A 
ATOM     21  C   UNL     1      -1.832  12.127  22.898  0.00  0.00    +0.000 C 
ATOM     22  C   UNL     1      -1.874  12.020  20.363  0.00  0.00    +0.000 A 
ATOM     23  C   UNL     1      -2.896  13.136  20.307  0.00  0.00    +0.000 C 
BRANCH  19  24
ATOM     24  C   UNL     1       0.122   9.970  22.767  0.00  0.00    +0.000 C 
ATOM     25  N   UNL     1       0.504   9.495  23.758  0.00  0.00    +0.000 NA
ENDBRANCH  19  24
ENDBRANCH  14  18
ENDBRANCH   1  14
TORSDOF 4
ENDMDL
MODEL 6
REMARK VINA RESULT:      -7.4      6.719      9.661
REMARK  Name = 
REMARK  7 active torsions:
REMARK  status: ('A' for Active; 'I' for Inactive)
REMARK    1  A    between atoms: C_1  and  C_2
REMARK    2  A    between atoms: C_4  and  S_5
REMARK    3  A    between atoms: S_5  and  C_6
REMARK    4  A    between atoms: C_6  and  C_7
REMARK    5  A    between atoms: C_19  and  C_20
REMARK    6  A    between atoms: C_22  and  C_23
REMARK    7  A    between atoms: C_24  and  C_25
REMARK                            x       y       z     vdW  Elec       q    Type
REMARK                         _______ _______ _______ _____ _____    ______ ____
ROOT
ATOM      1  C   UNL     1       2.118   7.584  19.970  0.00  0.00    +0.000 C 
ENDROOT
BRANCH   1   2
ATOM      2  C   UNL     1       1.262   8.656  20.592  0.00  0.00    +0.000 A 
ATOM      3  C   UNL     1       1.147   8.695  21.925  0.00  0.00    +0.000 A 
ATOM      4  C   UNL     1       0.346   9.747  22.560  0.00  0.00    +0.000 A 
ATOM      5  O   UNL     1       0.170   9.722  23.773  0.00  0.00    +0.000 OA
ATOM      6  N   UNL     1      -0.181  10.679  21.709  0.00  0.00    +0.000 N 
ATOM      7  C   UNL     1      -0.649  11.900  22.204  0.00  0.00    +0.000 A 
ATOM      8  C   UNL     1      -1.132  12.815  21.352  0.00  0.00    +0.000 A 
ATOM      9 BR   UNL     1      -0.096  14.368  20.981  0.00  0.00    +0.000 Br
ATOM     10  C   UNL     1      -1.727  12.296  20.146  0.00  0.00    +0.000 A 
ATOM     11  C   UNL     1      -1.095  11.281  19.533  0.00  0.00    +0.000 A 
ATOM     12  C   UNL     1      -0.146  10.411  20.318  0.00  0.00    +0.000 A 
ATOM     13  N   UNL     1       0.508   9.459  19.754  0.00  0.00    +0.000 NA
ENDBRANCH   1   2
BRANCH   1  14
ATOM     14  S   UNL     1       2.297   7.705  18.167  0.00  0.00    +0.000 S 
BRANCH  14  18
ATOM     15  C   UNL     1       7.374   7.308  17.401  0.00  0.00    +0.000 C 
ATOM     16  C   UNL     1       6.057   6.578  17.438  0.00  0.00    +0.000 A 
ATOM     17  N   UNL     1       4.957   7.333  17.728  0.00  0.00    +0.000 NA
ATOM     18  C   UNL     1       3.751   6.719  17.762  0.00  0.00    +0.000 A 
ATOM     19  C   UNL     1       3.609   5.339  17.549  0.00  0.00    +0.000 A 
ATOM     20  C   UNL     1       4.744   4.560  17.238  0.00  0.00    +0.000 A 
ATOM     21  C   UNL     1       4.621   3.075  16.962  0.00  0.00    +0.000 C 
ATOM     22  C   UNL     1       5.997   5.197  17.165  0.00  0.00    +0.000 A 
ATOM     23  C   UNL     1       7.262   4.442  16.813  0.00  0.00    +0.000 C 
BRANCH  19  24
ATOM     24  C   UNL     1       2.324   4.724  17.666  0.00  0.00    +0.000 C 
ATOM     25  N   UNL     1       1.295   4.185  17.731  0.00  0.00    +0.000 NA
ENDBRANCH  19  24
ENDBRANCH  14  18
ENDBRANCH   1  14
TORSDOF 4
ENDMDL
MODEL 7
REMARK VINA RESULT:      -7.4      7.388     10.500
REMARK  Name = 
REMARK  7 active torsions:
REMARK  status: ('A' for Active; 'I' for Inactive)
REMARK    1  A    between atoms: C_1  and  C_2
REMARK    2  A    between atoms: C_4  and  S_5
REMARK    3  A    between atoms: S_5  and  C_6
REMARK    4  A    between atoms: C_6  and  C_7
REMARK    5  A    between atoms: C_19  and  C_20
REMARK    6  A    between atoms: C_22  and  C_23
REMARK    7  A    between atoms: C_24  and  C_25
REMARK                            x       y       z     vdW  Elec       q    Type
REMARK                         _______ _______ _______ _____ _____    ______ ____
ROOT
ATOM      1  C   UNL     1       1.800   8.238  19.667  0.00  0.00    +0.000 C 
ENDROOT
BRANCH   1   2
ATOM      2  C   UNL     1       0.943   9.144  20.514  0.00  0.00    +0.000 A 
ATOM      3  C   UNL     1       0.914   8.948  21.838  0.00  0.00    +0.000 A 
ATOM      4  C   UNL     1       0.114   9.833  22.691  0.00  0.00    +0.000 A 
ATOM      5  O   UNL     1       0.019   9.592  23.889  0.00  0.00    +0.000 OA
ATOM      6  N   UNL     1      -0.504  10.870  22.046  0.00  0.00    +0.000 N 
ATOM      7  C   UNL     1      -0.988  11.962  22.772  0.00  0.00    +0.000 A 
ATOM      8  C   UNL     1      -1.563  12.983  22.121  0.00  0.00    +0.000 A 
ATOM      9 BR   UNL     1      -0.617  14.628  21.966  0.00  0.00    +0.000 Br
ATOM     10  C   UNL     1      -2.213  12.648  20.879  0.00  0.00    +0.000 A 
ATOM     11  C   UNL     1      -1.582  11.786  20.064  0.00  0.00    +0.000 A 
ATOM     12  C   UNL     1      -0.549  10.845  20.630  0.00  0.00    +0.000 A 
ATOM     13  N   UNL     1       0.105  10.038  19.873  0.00  0.00    +0.000 NA
ENDBRANCH   1   2
BRANCH   1  14
ATOM     14  S   UNL     1       1.903   6.523  20.252  0.00  0.00    +0.000 S 
BRANCH  14  18
ATOM     15  C   UNL     1       5.232   6.539  16.323  0.00  0.00    +0.000 C 
ATOM     16  C   UNL     1       4.379   5.694  17.232  0.00  0.00    +0.000 A 
ATOM     17  N   UNL     1       3.645   6.365  18.167  0.00  0.00    +0.000 NA
ATOM     18  C   UNL     1       2.857   5.645  18.999  0.00  0.00    +0.000 A 
ATOM     19  C   UNL     1       2.805   4.244  18.952  0.00  0.00    +0.000 A 
ATOM     20  C   UNL     1       3.555   3.549  17.978  0.00  0.00    +0.000 A 
ATOM     21  C   UNL     1       3.491   2.039  17.873  0.00  0.00    +0.000 C 
ATOM     22  C   UNL     1       4.350   4.293  17.086  0.00  0.00    +0.000 A 
ATOM     23  C   UNL     1       5.165   3.631  15.995  0.00  0.00    +0.000 C 
BRANCH  19  24
ATOM     24  C   UNL     1       2.013   3.523  19.898  0.00  0.00    +0.000 C 
ATOM     25  N   UNL     1       1.351   2.980  20.687  0.00  0.00    +0.000 NA
ENDBRANCH  19  24
ENDBRANCH  14  18
ENDBRANCH   1  14
TORSDOF 4
ENDMDL
MODEL 8
REMARK VINA RESULT:      -7.3      7.010      9.038
REMARK  Name = 
REMARK  7 active torsions:
REMARK  status: ('A' for Active; 'I' for Inactive)
REMARK    1  A    between atoms: C_1  and  C_2
REMARK    2  A    between atoms: C_4  and  S_5
REMARK    3  A    between atoms: S_5  and  C_6
REMARK    4  A    between atoms: C_6  and  C_7
REMARK    5  A    between atoms: C_19  and  C_20
REMARK    6  A    between atoms: C_22  and  C_23
REMARK    7  A    between atoms: C_24  and  C_25
REMARK                            x       y       z     vdW  Elec       q    Type
REMARK                         _______ _______ _______ _____ _____    ______ ____
ROOT
ATOM      1  C   UNL     1       1.956   8.584  17.613  0.00  0.00    +0.000 C 
ENDROOT
BRANCH   1   2
ATOM      2  C   UNL     1       2.518   7.230  17.967  0.00  0.00    +0.000 A 
ATOM      3  C   UNL     1       3.844   7.095  18.083  0.00  0.00    +0.000 A 
ATOM      4  C   UNL     1       4.417   5.798  18.458  0.00  0.00    +0.000 A 
ATOM      5  O   UNL     1       5.635   5.658  18.472  0.00  0.00    +0.000 OA
ATOM      6  N   UNL     1       3.510   4.812  18.735  0.00  0.00    +0.000 N 
ATOM      7  C   UNL     1       3.905   3.668  19.433  0.00  0.00    +0.000 A 
ATOM      8  C   UNL     1       2.996   2.727  19.724  0.00  0.00    +0.000 A 
ATOM      9 BR   UNL     1       2.401   2.545  21.524  0.00  0.00    +0.000 Br
ATOM     10  C   UNL     1       1.891   2.618  18.806  0.00  0.00    +0.000 A 
ATOM     11  C   UNL     1       1.346   3.760  18.356  0.00  0.00    +0.000 A 
ATOM     12  C   UNL     1       2.155   5.033  18.386  0.00  0.00    +0.000 A 
ATOM     13  N   UNL     1       1.652   6.153  18.003  0.00  0.00    +0.000 NA
ENDBRANCH   1   2
BRANCH   1  14
ATOM     14  S   UNL     1       1.480   9.604  19.037  0.00  0.00    +0.000 S 
BRANCH  14  18
ATOM     15  C   UNL     1      -2.661   9.735  15.979  0.00  0.00    +0.000 C 
ATOM     16  C   UNL     1      -2.033  10.242  17.251  0.00  0.00    +0.000 A 
ATOM     17  N   UNL     1      -0.776   9.785  17.526  0.00  0.00    +0.000 NA
ATOM     18  C   UNL     1      -0.170  10.223  18.654  0.00  0.00    +0.000 A 
ATOM     19  C   UNL     1      -0.804  11.092  19.555  0.00  0.00    +0.000 A 
ATOM     20  C   UNL     1      -2.099  11.574  19.265  0.00  0.00    +0.000 A 
ATOM     21  C   UNL     1      -2.797  12.545  20.195  0.00  0.00    +0.000 C 
ATOM     22  C   UNL     1      -2.723  11.152  18.076  0.00  0.00    +0.000 A 
ATOM     23  C   UNL     1      -4.099  11.641  17.674  0.00  0.00    +0.000 C 
BRANCH  19  24
ATOM     24  C   UNL     1      -0.151  11.470  20.768  0.00  0.00    +0.000 C 
ATOM     25  N   UNL     1       0.367  11.826  21.748  0.00  0.00    +0.000 NA
ENDBRANCH  19  24
ENDBRANCH  14  18
ENDBRANCH   1  14
TORSDOF 4
ENDMDL
MODEL 9
REMARK VINA RESULT:      -7.2      7.217     10.474
REMARK  Name = 
REMARK  7 active torsions:
REMARK  status: ('A' for Active; 'I' for Inactive)
REMARK    1  A    between atoms: C_1  and  C_2
REMARK    2  A    between atoms: C_4  and  S_5
REMARK    3  A    between atoms: S_5  and  C_6
REMARK    4  A    between atoms: C_6  and  C_7
REMARK    5  A    between atoms: C_19  and  C_20
REMARK    6  A    between atoms: C_22  and  C_23
REMARK    7  A    between atoms: C_24  and  C_25
REMARK                            x       y       z     vdW  Elec       q    Type
REMARK                         _______ _______ _______ _____ _____    ______ ____
ROOT
ATOM      1  C   UNL     1       1.312   8.821  17.976  0.00  0.00    +0.000 C 
ENDROOT
BRANCH   1   2
ATOM      2  C   UNL     1       1.005   9.837  19.046  0.00  0.00    +0.000 A 
ATOM      3  C   UNL     1       1.521  11.067  18.932  0.00  0.00    +0.000 A 
ATOM      4  C   UNL     1       1.213  12.085  19.942  0.00  0.00    +0.000 A 
ATOM      5  O   UNL     1       1.761  13.180  19.882  0.00  0.00    +0.000 OA
ATOM      6  N   UNL     1       0.333  11.700  20.917  0.00  0.00    +0.000 N 
ATOM      7  C   UNL     1      -0.304  12.658  21.710  0.00  0.00    +0.000 A 
ATOM      8  C   UNL     1      -1.187  12.265  22.639  0.00  0.00    +0.000 A 
ATOM      9 BR   UNL     1      -3.042  12.564  22.334  0.00  0.00    +0.000 Br
ATOM     10  C   UNL     1      -0.964  10.956  23.199  0.00  0.00    +0.000 A 
ATOM     11  C   UNL     1      -0.609   9.974  22.354  0.00  0.00    +0.000 A 
ATOM     12  C   UNL     1       0.019  10.323  21.028  0.00  0.00    +0.000 A 
ATOM     13  N   UNL     1       0.331   9.411  20.177  0.00  0.00    +0.000 NA
ENDBRANCH   1   2
BRANCH   1  14
ATOM     14  S   UNL     1       3.048   8.299  17.900  0.00  0.00    +0.000 S 
BRANCH  14  18
ATOM     15  C   UNL     1       1.149   4.176  20.331  0.00  0.00    +0.000 C 
ATOM     16  C   UNL     1       2.130   4.676  19.303  0.00  0.00    +0.000 A 
ATOM     17  N   UNL     1       2.154   6.026  19.100  0.00  0.00    +0.000 NA
ATOM     18  C   UNL     1       3.028   6.520  18.191  0.00  0.00    +0.000 A 
ATOM     19  C   UNL     1       3.869   5.689  17.436  0.00  0.00    +0.000 A 
ATOM     20  C   UNL     1       3.853   4.294  17.654  0.00  0.00    +0.000 A 
ATOM     21  C   UNL     1       4.778   3.372  16.886  0.00  0.00    +0.000 C 
ATOM     22  C   UNL     1       2.973   3.776  18.623  0.00  0.00    +0.000 A 
ATOM     23  C   UNL     1       2.909   2.297  18.939  0.00  0.00    +0.000 C 
BRANCH  19  24
ATOM     24  C   UNL     1       4.724   6.251  16.438  0.00  0.00    +0.000 C 
ATOM     25  N   UNL     1       5.379   6.728  15.603  0.00  0.00    +0.000 NA
ENDBRANCH  19  24
ENDBRANCH  14  18
ENDBRANCH   1  14
TORSDOF 4
ENDMDL
