MODEL 1
REMARK VINA RESULT:      -8.8      0.000      0.000
REMARK  Name = 
REMARK  6 active torsions:
REMARK  status: ('A' for Active; 'I' for Inactive)
REMARK    1  A    between atoms: C_1  and  C_2
REMARK    2  A    between atoms: C_4  and  C_5
REMARK    3  A    between atoms: C_5  and  O_7
REMARK    4  A    between atoms: N_9  and  C_10
REMARK    5  A    between atoms: C_10  and  C_11
REMARK    6  A    between atoms: C_18  and  C_19
REMARK                            x       y       z     vdW  Elec       q    Type
REMARK                         _______ _______ _______ _____ _____    ______ ____
ROOT
ATOM      1  C   UNL     1       3.319   4.260  18.612  0.00  0.00    +0.000 A 
ATOM      2  C   UNL     1       3.235   3.165  19.472  0.00  0.00    +0.000 A 
ATOM      3  C   UNL     1       2.019   2.851  20.002  0.00  0.00    +0.000 A 
ATOM      4 CL   UNL     1       0.872   2.161  18.848  0.00  0.00    +0.000 Cl
ATOM      5  C   UNL     1       1.487   3.847  20.777  0.00  0.00    +0.000 A 
ATOM      6  C   UNL     1       1.863   5.110  20.340  0.00  0.00    +0.000 A 
ATOM      7  O   UNL     1       1.356   6.214  20.899  0.00  0.00    +0.000 OA
ATOM      8  C   UNL     1       1.777   7.252  20.130  0.00  0.00    +0.000 A 
ATOM      9  N   UNL     1       2.552   6.839  19.101  0.00  0.00    +0.000 NA
ATOM     10  C   UNL     1       2.669   5.414  19.240  0.00  0.00    +0.000 A 
ENDROOT
BRANCH   8  11
ATOM     11  C   UNL     1       1.200   8.533  20.676  0.00  0.00    +0.000 A 
ATOM     12  C   UNL     1       0.945   9.626  19.790  0.00  0.00    +0.000 A 
ATOM     13  C   UNL     1       0.423  10.857  20.191  0.00  0.00    +0.000 A 
ATOM     14  C   UNL     1       0.109  11.061  21.532  0.00  0.00    +0.000 A 
ATOM     15  C   UNL     1       0.323  10.005  22.428  0.00  0.00    +0.000 A 
ATOM     16  C   UNL     1       0.861   8.763  22.012  0.00  0.00    +0.000 A 
ENDBRANCH   8  11
BRANCH   1  17
ATOM     17  C   UNL     1       4.038   3.902  17.271  0.00  0.00    +0.000 C 
BRANCH  17  23
ATOM     18  C   UNL     1       5.964   3.818  14.618  0.00  0.00    +0.000 C 
ATOM     19  C   UNL     1       6.101   4.714  15.788  0.00  0.00    +0.000 A 
ATOM     20  C   UNL     1       7.134   5.613  15.992  0.00  0.00    +0.000 A 
ATOM     21  C   UNL     1       6.817   6.307  17.171  0.00  0.00    +0.000 A 
ATOM     22  N   UNL     1       5.605   5.917  17.641  0.00  0.00    +0.000 NA
ATOM     23  N   UNL     1       5.251   4.808  16.885  0.00  0.00    +0.000 N 
BRANCH  21  24
ATOM     24  C   UNL     1       7.687   7.311  17.835  0.00  0.00    +0.000 C 
ATOM     25  O   UNL     1       7.870   8.450  17.419  0.00  0.00    +0.000 OA
BRANCH  24  26
ATOM     26  O   UNL     1       8.297   6.839  18.952  0.00  0.00    +0.000 OA
ATOM     27  H   UNL     1       7.580   6.609  19.581  0.00  0.00    +0.000 HD
ENDBRANCH  24  26
ENDBRANCH  21  24
ENDBRANCH  17  23
ENDBRANCH   1  17
TORSDOF 5
ENDMDL
MODEL 2
REMARK VINA RESULT:      -8.7      3.450      7.039
REMARK  Name = 
REMARK  6 active torsions:
REMARK  status: ('A' for Active; 'I' for Inactive)
REMARK    1  A    between atoms: C_1  and  C_2
REMARK    2  A    between atoms: C_4  and  C_5
REMARK    3  A    between atoms: C_5  and  O_7
REMARK    4  A    between atoms: N_9  and  C_10
REMARK    5  A    between atoms: C_10  and  C_11
REMARK    6  A    between atoms: C_18  and  C_19
REMARK                            x       y       z     vdW  Elec       q    Type
REMARK                         _______ _______ _______ _____ _____    ______ ____
ROOT
ATOM      1  C   UNL     1       6.354   6.464  17.017  0.00  0.00    +0.000 A 
ATOM      2  C   UNL     1       6.915   5.233  17.354  0.00  0.00    +0.000 A 
ATOM      3  C   UNL     1       7.266   5.016  18.653  0.00  0.00    +0.000 A 
ATOM      4 CL   UNL     1       5.902   4.810  19.757  0.00  0.00    +0.000 Cl
ATOM      5  C   UNL     1       8.219   5.885  19.114  0.00  0.00    +0.000 A 
ATOM      6  C   UNL     1       8.128   7.132  18.511  0.00  0.00    +0.000 A 
ATOM      7  O   UNL     1       8.900   8.150  18.909  0.00  0.00    +0.000 OA
ATOM      8  C   UNL     1       8.436   9.249  18.258  0.00  0.00    +0.000 A 
ATOM      9  N   UNL     1       7.395   8.956  17.445  0.00  0.00    +0.000 NA
ATOM     10  C   UNL     1       7.194   7.538  17.554  0.00  0.00    +0.000 A 
ENDROOT
BRANCH   8  11
ATOM     11  C   UNL     1       9.233  10.451  18.697  0.00  0.00    +0.000 A 
ATOM     12  C   UNL     1       9.397  10.718  20.092  0.00  0.00    +0.000 A 
ATOM     13  C   UNL     1      10.106  11.805  20.606  0.00  0.00    +0.000 A 
ATOM     14  C   UNL     1      10.712  12.700  19.729  0.00  0.00    +0.000 A 
ATOM     15  C   UNL     1      10.593  12.461  18.353  0.00  0.00    +0.000 A 
ATOM     16  C   UNL     1       9.866  11.358  17.843  0.00  0.00    +0.000 A 
ENDBRANCH   8  11
BRANCH   1  17
ATOM     17  C   UNL     1       5.021   6.304  16.217  0.00  0.00    +0.000 C 
BRANCH  17  23
ATOM     18  C   UNL     1       2.541   7.356  18.086  0.00  0.00    +0.000 C 
ATOM     19  C   UNL     1       2.887   5.951  17.778  0.00  0.00    +0.000 A 
ATOM     20  C   UNL     1       2.262   4.836  18.310  0.00  0.00    +0.000 A 
ATOM     21  C   UNL     1       2.846   3.726  17.679  0.00  0.00    +0.000 A 
ATOM     22  N   UNL     1       3.738   4.128  16.740  0.00  0.00    +0.000 NA
ATOM     23  N   UNL     1       3.891   5.494  16.930  0.00  0.00    +0.000 N 
BRANCH  21  24
ATOM     24  C   UNL     1       2.556   2.306  18.003  0.00  0.00    +0.000 C 
ATOM     25  O   UNL     1       3.414   1.437  18.128  0.00  0.00    +0.000 OA
BRANCH  24  26
ATOM     26  O   UNL     1       1.231   2.040  18.123  0.00  0.00    +0.000 OA
ATOM     27  H   UNL     1       1.059   1.925  19.082  0.00  0.00    +0.000 HD
ENDBRANCH  24  26
ENDBRANCH  21  24
ENDBRANCH  17  23
ENDBRANCH   1  17
TORSDOF 5
ENDMDL
MODEL 3
REMARK VINA RESULT:      -8.6      0.898      1.495
REMARK  Name = 
REMARK  6 active torsions:
REMARK  status: ('A' for Active; 'I' for Inactive)
REMARK    1  A    between atoms: C_1  and  C_2
REMARK    2  A    between atoms: C_4  and  C_5
REMARK    3  A    between atoms: C_5  and  O_7
REMARK    4  A    between atoms: N_9  and  C_10
REMARK    5  A    between atoms: C_10  and  C_11
REMARK    6  A    between atoms: C_18  and  C_19
REMARK                            x       y       z     vdW  Elec       q    Type
REMARK                         _______ _______ _______ _____ _____    ______ ____
ROOT
ATOM      1  C   UNL     1       3.130   4.106  18.916  0.00  0.00    +0.000 A 
ATOM      2  C   UNL     1       2.861   3.001  19.722  0.00  0.00    +0.000 A 
ATOM      3  C   UNL     1       1.568   2.765  20.085  0.00  0.00    +0.000 A 
ATOM      4 CL   UNL     1       0.532   2.187  18.775  0.00  0.00    +0.000 Cl
ATOM      5  C   UNL     1       1.012   3.779  20.819  0.00  0.00    +0.000 A 
ATOM      6  C   UNL     1       1.527   5.021  20.473  0.00  0.00    +0.000 A 
ATOM      7  O   UNL     1       1.031   6.146  20.998  0.00  0.00    +0.000 OA
ATOM      8  C   UNL     1       1.618   7.168  20.321  0.00  0.00    +0.000 A 
ATOM      9  N   UNL     1       2.488   6.722  19.385  0.00  0.00    +0.000 NA
ATOM     10  C   UNL     1       2.487   5.290  19.493  0.00  0.00    +0.000 A 
ENDROOT
BRANCH   8  11
ATOM     11  C   UNL     1       1.067   8.475  20.831  0.00  0.00    +0.000 A 
ATOM     12  C   UNL     1       0.559   8.554  22.165  0.00  0.00    +0.000 A 
ATOM     13  C   UNL     1       0.018   9.709  22.733  0.00  0.00    +0.000 A 
ATOM     14  C   UNL     1      -0.034  10.878  21.981  0.00  0.00    +0.000 A 
ATOM     15  C   UNL     1       0.474  10.848  20.675  0.00  0.00    +0.000 A 
ATOM     16  C   UNL     1       1.014   9.669  20.106  0.00  0.00    +0.000 A 
ENDBRANCH   8  11
BRANCH   1  17
ATOM     17  C   UNL     1       3.988   3.727  17.665  0.00  0.00    +0.000 C 
BRANCH  17  23
ATOM     18  C   UNL     1       6.117   3.861  15.175  0.00  0.00    +0.000 C 
ATOM     19  C   UNL     1       6.335   4.343  16.558  0.00  0.00    +0.000 A 
ATOM     20  C   UNL     1       7.522   4.854  17.051  0.00  0.00    +0.000 A 
ATOM     21  C   UNL     1       7.253   5.265  18.366  0.00  0.00    +0.000 A 
ATOM     22  N   UNL     1       5.939   5.091  18.658  0.00  0.00    +0.000 NA
ATOM     23  N   UNL     1       5.416   4.357  17.602  0.00  0.00    +0.000 N 
BRANCH  21  24
ATOM     24  C   UNL     1       8.258   5.791  19.323  0.00  0.00    +0.000 C 
ATOM     25  O   UNL     1       8.763   5.133  20.227  0.00  0.00    +0.000 OA
BRANCH  24  26
ATOM     26  O   UNL     1       8.556   7.100  19.125  0.00  0.00    +0.000 OA
ATOM     27  H   UNL     1       9.462   7.233  19.477  0.00  0.00    +0.000 HD
ENDBRANCH  24  26
ENDBRANCH  21  24
ENDBRANCH  17  23
ENDBRANCH   1  17
TORSDOF 5
ENDMDL
MODEL 4
REMARK VINA RESULT:      -8.2      1.884      2.622
REMARK  Name = 
REMARK  6 active torsions:
REMARK  status: ('A' for Active; 'I' for Inactive)
REMARK    1  A    between atoms: C_1  and  C_2
REMARK    2  A    between atoms: C_4  and  C_5
REMARK    3  A    between atoms: C_5  and  O_7
REMARK    4  A    between atoms: N_9  and  C_10
REMARK    5  A    between atoms: C_10  and  C_11
REMARK    6  A    between atoms: C_18  and  C_19
REMARK                            x       y       z     vdW  Elec       q    Type
REMARK                         _______ _______ _______ _____ _____    ______ ____
ROOT
ATOM      1  C   UNL     1       3.593   4.082  18.754  0.00  0.00    +0.000 A 
ATOM      2  C   UNL     1       3.575   3.357  19.944  0.00  0.00    +0.000 A 
ATOM      3  C   UNL     1       2.400   3.269  20.630  0.00  0.00    +0.000 A 
ATOM      4 CL   UNL     1       1.180   2.242  19.868  0.00  0.00    +0.000 Cl
ATOM      5  C   UNL     1       1.917   4.482  21.044  0.00  0.00    +0.000 A 
ATOM      6  C   UNL     1       2.254   5.507  20.170  0.00  0.00    +0.000 A 
ATOM      7  O   UNL     1       1.780   6.745  20.341  0.00  0.00    +0.000 OA
ATOM      8  C   UNL     1       2.141   7.443  19.232  0.00  0.00    +0.000 A 
ATOM      9  N   UNL     1       2.847   6.683  18.363  0.00  0.00    +0.000 NA
ATOM     10  C   UNL     1       2.981   5.394  18.981  0.00  0.00    +0.000 A 
ENDROOT
BRANCH   8  11
ATOM     11  C   UNL     1       1.595   8.845  19.335  0.00  0.00    +0.000 A 
ATOM     12  C   UNL     1       0.947   9.263  20.539  0.00  0.00    +0.000 A 
ATOM     13  C   UNL     1       0.399  10.531  20.736  0.00  0.00    +0.000 A 
ATOM     14  C   UNL     1       0.483  11.476  19.718  0.00  0.00    +0.000 A 
ATOM     15  C   UNL     1       1.131  11.112  18.530  0.00  0.00    +0.000 A 
ATOM     16  C   UNL     1       1.677   9.820  18.337  0.00  0.00    +0.000 A 
ENDBRANCH   8  11
BRANCH   1  17
ATOM     17  C   UNL     1       4.221   3.267  17.577  0.00  0.00    +0.000 C 
BRANCH  17  23
ATOM     18  C   UNL     1       6.535   5.255  18.778  0.00  0.00    +0.000 C 
ATOM     19  C   UNL     1       6.373   4.829  17.370  0.00  0.00    +0.000 A 
ATOM     20  C   UNL     1       7.131   5.279  16.304  0.00  0.00    +0.000 A 
ATOM     21  C   UNL     1       6.698   4.552  15.184  0.00  0.00    +0.000 A 
ATOM     22  N   UNL     1       5.767   3.633  15.545  0.00  0.00    +0.000 NA
ATOM     23  N   UNL     1       5.440   3.931  16.861  0.00  0.00    +0.000 N 
BRANCH  21  24
ATOM     24  C   UNL     1       7.164   4.764  13.790  0.00  0.00    +0.000 C 
ATOM     25  O   UNL     1       6.744   4.143  12.818  0.00  0.00    +0.000 OA
BRANCH  24  26
ATOM     26  O   UNL     1       8.136   5.706  13.685  0.00  0.00    +0.000 OA
ATOM     27  H   UNL     1       8.589   5.540  12.830  0.00  0.00    +0.000 HD
ENDBRANCH  24  26
ENDBRANCH  21  24
ENDBRANCH  17  23
ENDBRANCH   1  17
TORSDOF 5
ENDMDL
MODEL 5
REMARK VINA RESULT:      -8.2      1.854      2.388
REMARK  Name = 
REMARK  6 active torsions:
REMARK  status: ('A' for Active; 'I' for Inactive)
REMARK    1  A    between atoms: C_1  and  C_2
REMARK    2  A    between atoms: C_4  and  C_5
REMARK    3  A    between atoms: C_5  and  O_7
REMARK    4  A    between atoms: N_9  and  C_10
REMARK    5  A    between atoms: C_10  and  C_11
REMARK    6  A    between atoms: C_18  and  C_19
REMARK                            x       y       z     vdW  Elec       q    Type
REMARK                         _______ _______ _______ _____ _____    ______ ____
ROOT
ATOM      1  C   UNL     1       3.582   4.070  18.810  0.00  0.00    +0.000 A 
ATOM      2  C   UNL     1       3.605   3.298  19.971  0.00  0.00    +0.000 A 
ATOM      3  C   UNL     1       2.447   3.159  20.677  0.00  0.00    +0.000 A 
ATOM      4 CL   UNL     1       1.232   2.137  19.902  0.00  0.00    +0.000 Cl
ATOM      5  C   UNL     1       1.948   4.344  21.149  0.00  0.00    +0.000 A 
ATOM      6  C   UNL     1       2.245   5.410  20.309  0.00  0.00    +0.000 A 
ATOM      7  O   UNL     1       1.749   6.630  20.539  0.00  0.00    +0.000 OA
ATOM      8  C   UNL     1       2.072   7.378  19.451  0.00  0.00    +0.000 A 
ATOM      9  N   UNL     1       2.773   6.668  18.538  0.00  0.00    +0.000 NA
ATOM     10  C   UNL     1       2.948   5.359  19.102  0.00  0.00    +0.000 A 
ENDROOT
BRANCH   8  11
ATOM     11  C   UNL     1       1.499   8.762  19.620  0.00  0.00    +0.000 A 
ATOM     12  C   UNL     1       1.501   9.667  18.513  0.00  0.00    +0.000 A 
ATOM     13  C   UNL     1       1.007  10.971  18.563  0.00  0.00    +0.000 A 
ATOM     14  C   UNL     1       0.459  11.448  19.751  0.00  0.00    +0.000 A 
ATOM     15  C   UNL     1       0.418  10.584  20.853  0.00  0.00    +0.000 A 
ATOM     16  C   UNL     1       0.930   9.264  20.794  0.00  0.00    +0.000 A 
ENDBRANCH   8  11
BRANCH   1  17
ATOM     17  C   UNL     1       4.199   3.315  17.588  0.00  0.00    +0.000 C 
BRANCH  17  23
ATOM     18  C   UNL     1       6.474   5.279  18.902  0.00  0.00    +0.000 C 
ATOM     19  C   UNL     1       6.357   4.879  17.481  0.00  0.00    +0.000 A 
ATOM     20  C   UNL     1       7.150   5.349  16.449  0.00  0.00    +0.000 A 
ATOM     21  C   UNL     1       6.753   4.643  15.302  0.00  0.00    +0.000 A 
ATOM     22  N   UNL     1       5.811   3.719  15.615  0.00  0.00    +0.000 NA
ATOM     23  N   UNL     1       5.442   3.991  16.926  0.00  0.00    +0.000 N 
BRANCH  21  24
ATOM     24  C   UNL     1       7.265   4.882  13.929  0.00  0.00    +0.000 C 
ATOM     25  O   UNL     1       8.126   5.709  13.646  0.00  0.00    +0.000 OA
BRANCH  24  26
ATOM     26  O   UNL     1       6.664   4.108  12.989  0.00  0.00    +0.000 OA
ATOM     27  H   UNL     1       5.698   4.210  13.124  0.00  0.00    +0.000 HD
ENDBRANCH  24  26
ENDBRANCH  21  24
ENDBRANCH  17  23
ENDBRANCH   1  17
TORSDOF 5
ENDMDL
MODEL 6
REMARK VINA RESULT:      -8.0      5.389      6.899
REMARK  Name = 
REMARK  6 active torsions:
REMARK  status: ('A' for Active; 'I' for Inactive)
REMARK    1  A    between atoms: C_1  and  C_2
REMARK    2  A    between atoms: C_4  and  C_5
REMARK    3  A    between atoms: C_5  and  O_7
REMARK    4  A    between atoms: N_9  and  C_10
REMARK    5  A    between atoms: C_10  and  C_11
REMARK    6  A    between atoms: C_18  and  C_19
REMARK                            x       y       z     vdW  Elec       q    Type
REMARK                         _______ _______ _______ _____ _____    ______ ____
ROOT
ATOM      1  C   UNL     1       6.651   6.013  16.524  0.00  0.00    +0.000 A 
ATOM      2  C   UNL     1       7.045   4.799  17.085  0.00  0.00    +0.000 A 
ATOM      3  C   UNL     1       6.994   4.668  18.441  0.00  0.00    +0.000 A 
ATOM      4 CL   UNL     1       5.361   4.560  19.108  0.00  0.00    +0.000 Cl
ATOM      5  C   UNL     1       7.803   5.550  19.107  0.00  0.00    +0.000 A 
ATOM      6  C   UNL     1       7.936   6.754  18.429  0.00  0.00    +0.000 A 
ATOM      7  O   UNL     1       8.594   7.784  18.971  0.00  0.00    +0.000 OA
ATOM      8  C   UNL     1       8.380   8.843  18.147  0.00  0.00    +0.000 A 
ATOM      9  N   UNL     1       7.611   8.511  17.084  0.00  0.00    +0.000 NA
ATOM     10  C   UNL     1       7.336   7.108  17.217  0.00  0.00    +0.000 A 
ENDROOT
BRANCH   8  11
ATOM     11  C   UNL     1       9.057  10.059  18.726  0.00  0.00    +0.000 A 
ATOM     12  C   UNL     1       9.534  11.085  17.850  0.00  0.00    +0.000 A 
ATOM     13  C   UNL     1      10.182  12.244  18.278  0.00  0.00    +0.000 A 
ATOM     14  C   UNL     1      10.383  12.451  19.640  0.00  0.00    +0.000 A 
ATOM     15  C   UNL     1       9.910  11.479  20.532  0.00  0.00    +0.000 A 
ATOM     16  C   UNL     1       9.260  10.302  20.087  0.00  0.00    +0.000 A 
ENDBRANCH   8  11
BRANCH   1  17
ATOM     17  C   UNL     1       5.603   5.820  15.380  0.00  0.00    +0.000 C 
BRANCH  17  23
ATOM     18  C   UNL     1       8.414   5.809  13.691  0.00  0.00    +0.000 C 
ATOM     19  C   UNL     1       7.222   4.968  13.439  0.00  0.00    +0.000 A 
ATOM     20  C   UNL     1       7.069   4.093  12.378  0.00  0.00    +0.000 A 
ATOM     21  C   UNL     1       5.838   3.449  12.581  0.00  0.00    +0.000 A 
ATOM     22  N   UNL     1       5.282   3.844  13.753  0.00  0.00    +0.000 NA
ATOM     23  N   UNL     1       6.053   4.913  14.190  0.00  0.00    +0.000 N 
BRANCH  21  24
ATOM     24  C   UNL     1       5.208   2.488  11.640  0.00  0.00    +0.000 C 
ATOM     25  O   UNL     1       4.135   2.677  11.074  0.00  0.00    +0.000 OA
BRANCH  24  26
ATOM     26  O   UNL     1       5.922   1.346  11.478  0.00  0.00    +0.000 OA
ATOM     27  H   UNL     1       6.802   1.511  11.880  0.00  0.00    +0.000 HD
ENDBRANCH  24  26
ENDBRANCH  21  24
ENDBRANCH  17  23
ENDBRANCH   1  17
TORSDOF 5
ENDMDL
MODEL 7
REMARK VINA RESULT:      -7.9      2.241      3.069
REMARK  Name = 
REMARK  6 active torsions:
REMARK  status: ('A' for Active; 'I' for Inactive)
REMARK    1  A    between atoms: C_1  and  C_2
REMARK    2  A    between atoms: C_4  and  C_5
REMARK    3  A    between atoms: C_5  and  O_7
REMARK    4  A    between atoms: N_9  and  C_10
REMARK    5  A    between atoms: C_10  and  C_11
REMARK    6  A    between atoms: C_18  and  C_19
REMARK                            x       y       z     vdW  Elec       q    Type
REMARK                         _______ _______ _______ _____ _____    ______ ____
ROOT
ATOM      1  C   UNL     1       3.051   5.455  18.565  0.00  0.00    +0.000 A 
ATOM      2  C   UNL     1       3.187   4.948  19.857  0.00  0.00    +0.000 A 
ATOM      3  C   UNL     1       2.127   5.054  20.708  0.00  0.00    +0.000 A 
ATOM      4 CL   UNL     1       0.769   3.989  20.325  0.00  0.00    +0.000 Cl
ATOM      5  C   UNL     1       1.756   6.348  20.961  0.00  0.00    +0.000 A 
ATOM      6  C   UNL     1       1.994   7.184  19.878  0.00  0.00    +0.000 A 
ATOM      7  O   UNL     1       1.596   8.460  19.890  0.00  0.00    +0.000 OA
ATOM      8  C   UNL     1       1.810   8.932  18.633  0.00  0.00    +0.000 A 
ATOM      9  N   UNL     1       2.348   7.991  17.823  0.00  0.00    +0.000 NA
ATOM     10  C   UNL     1       2.528   6.822  18.638  0.00  0.00    +0.000 A 
ENDROOT
BRANCH   8  11
ATOM     11  C   UNL     1       1.338  10.362  18.559  0.00  0.00    +0.000 A 
ATOM     12  C   UNL     1       2.280  11.404  18.293  0.00  0.00    +0.000 A 
ATOM     13  C   UNL     1       1.952  12.758  18.213  0.00  0.00    +0.000 A 
ATOM     14  C   UNL     1       0.628  13.151  18.387  0.00  0.00    +0.000 A 
ATOM     15  C   UNL     1      -0.330  12.156  18.627  0.00  0.00    +0.000 A 
ATOM     16  C   UNL     1       0.015  10.786  18.714  0.00  0.00    +0.000 A 
ENDBRANCH   8  11
BRANCH   1  17
ATOM     17  C   UNL     1       3.463   4.411  17.477  0.00  0.00    +0.000 C 
BRANCH  17  23
ATOM     18  C   UNL     1       6.254   5.331  18.933  0.00  0.00    +0.000 C 
ATOM     19  C   UNL     1       6.055   5.039  17.496  0.00  0.00    +0.000 A 
ATOM     20  C   UNL     1       7.010   5.196  16.507  0.00  0.00    +0.000 A 
ATOM     21  C   UNL     1       6.425   4.721  15.322  0.00  0.00    +0.000 A 
ATOM     22  N   UNL     1       5.190   4.218  15.571  0.00  0.00    +0.000 NA
ATOM     23  N   UNL     1       4.896   4.580  16.879  0.00  0.00    +0.000 N 
BRANCH  21  24
ATOM     24  C   UNL     1       7.047   4.779  13.975  0.00  0.00    +0.000 C 
ATOM     25  O   UNL     1       6.699   4.088  13.023  0.00  0.00    +0.000 OA
BRANCH  24  26
ATOM     26  O   UNL     1       8.074   5.662  13.894  0.00  0.00    +0.000 OA
ATOM     27  H   UNL     1       8.269   5.944  14.814  0.00  0.00    +0.000 HD
ENDBRANCH  24  26
ENDBRANCH  21  24
ENDBRANCH  17  23
ENDBRANCH   1  17
TORSDOF 5
ENDMDL
MODEL 8
REMARK VINA RESULT:      -7.9      1.840      2.596
REMARK  Name = 
REMARK  6 active torsions:
REMARK  status: ('A' for Active; 'I' for Inactive)
REMARK    1  A    between atoms: C_1  and  C_2
REMARK    2  A    between atoms: C_4  and  C_5
REMARK    3  A    between atoms: C_5  and  O_7
REMARK    4  A    between atoms: N_9  and  C_10
REMARK    5  A    between atoms: C_10  and  C_11
REMARK    6  A    between atoms: C_18  and  C_19
REMARK                            x       y       z     vdW  Elec       q    Type
REMARK                         _______ _______ _______ _____ _____    ______ ____
ROOT
ATOM      1  C   UNL     1       3.698   3.716  19.646  0.00  0.00    +0.000 A 
ATOM      2  C   UNL     1       3.029   2.869  20.529  0.00  0.00    +0.000 A 
ATOM      3  C   UNL     1       1.671   2.787  20.442  0.00  0.00    +0.000 A 
ATOM      4 CL   UNL     1       1.077   1.932  19.014  0.00  0.00    +0.000 Cl
ATOM      5  C   UNL     1       1.035   3.977  20.674  0.00  0.00    +0.000 A 
ATOM      6  C   UNL     1       1.794   5.066  20.266  0.00  0.00    +0.000 A 
ATOM      7  O   UNL     1       1.299   6.307  20.306  0.00  0.00    +0.000 OA
ATOM      8  C   UNL     1       2.210   7.095  19.675  0.00  0.00    +0.000 A 
ATOM      9  N   UNL     1       3.280   6.388  19.245  0.00  0.00    +0.000 NA
ATOM     10  C   UNL     1       3.057   5.033  19.666  0.00  0.00    +0.000 A 
ENDROOT
BRANCH   8  11
ATOM     11  C   UNL     1       1.693   8.510  19.639  0.00  0.00    +0.000 A 
ATOM     12  C   UNL     1       1.120   9.082  20.818  0.00  0.00    +0.000 A 
ATOM     13  C   UNL     1       0.603  10.377  20.893  0.00  0.00    +0.000 A 
ATOM     14  C   UNL     1       0.644  11.193  19.766  0.00  0.00    +0.000 A 
ATOM     15  C   UNL     1       1.218  10.677  18.596  0.00  0.00    +0.000 A 
ATOM     16  C   UNL     1       1.733   9.359  18.530  0.00  0.00    +0.000 A 
ENDBRANCH   8  11
BRANCH   1  17
ATOM     17  C   UNL     1       4.873   2.992  18.912  0.00  0.00    +0.000 C 
BRANCH  17  23
ATOM     18  C   UNL     1       6.848   5.550  19.472  0.00  0.00    +0.000 C 
ATOM     19  C   UNL     1       6.467   4.992  18.155  0.00  0.00    +0.000 A 
ATOM     20  C   UNL     1       6.820   5.524  16.927  0.00  0.00    +0.000 A 
ATOM     21  C   UNL     1       6.326   4.633  15.961  0.00  0.00    +0.000 A 
ATOM     22  N   UNL     1       5.759   3.553  16.556  0.00  0.00    +0.000 NA
ATOM     23  N   UNL     1       5.690   3.865  17.907  0.00  0.00    +0.000 N 
BRANCH  21  24
ATOM     24  C   UNL     1       6.385   4.842  14.492  0.00  0.00    +0.000 C 
ATOM     25  O   UNL     1       7.257   5.489  13.920  0.00  0.00    +0.000 OA
BRANCH  24  26
ATOM     26  O   UNL     1       5.352   4.267  13.825  0.00  0.00    +0.000 OA
ATOM     27  H   UNL     1       4.566   4.829  13.998  0.00  0.00    +0.000 HD
ENDBRANCH  24  26
ENDBRANCH  21  24
ENDBRANCH  17  23
ENDBRANCH   1  17
TORSDOF 5
ENDMDL
MODEL 9
REMARK VINA RESULT:      -7.9      2.432      7.551
REMARK  Name = 
REMARK  6 active torsions:
REMARK  status: ('A' for Active; 'I' for Inactive)
REMARK    1  A    between atoms: C_1  and  C_2
REMARK    2  A    between atoms: C_4  and  C_5
REMARK    3  A    between atoms: C_5  and  O_7
REMARK    4  A    between atoms: N_9  and  C_10
REMARK    5  A    between atoms: C_10  and  C_11
REMARK    6  A    between atoms: C_18  and  C_19
REMARK                            x       y       z     vdW  Elec       q    Type
REMARK                         _______ _______ _______ _____ _____    ______ ____
ROOT
ATOM      1  C   UNL     1       2.933   5.414  18.882  0.00  0.00    +0.000 A 
ATOM      2  C   UNL     1       1.832   4.562  18.970  0.00  0.00    +0.000 A 
ATOM      3  C   UNL     1       2.040   3.221  18.835  0.00  0.00    +0.000 A 
ATOM      4 CL   UNL     1       2.861   2.464  20.204  0.00  0.00    +0.000 Cl
ATOM      5  C   UNL     1       2.560   2.868  17.618  0.00  0.00    +0.000 A 
ATOM      6  C   UNL     1       3.379   3.858  17.091  0.00  0.00    +0.000 A 
ATOM      7  O   UNL     1       4.069   3.655  15.963  0.00  0.00    +0.000 OA
ATOM      8  C   UNL     1       4.896   4.726  15.832  0.00  0.00    +0.000 A 
ATOM      9  N   UNL     1       4.740   5.614  16.841  0.00  0.00    +0.000 NA
ATOM     10  C   UNL     1       3.698   5.086  17.677  0.00  0.00    +0.000 A 
ENDROOT
BRANCH   8  11
ATOM     11  C   UNL     1       5.744   4.542  14.599  0.00  0.00    +0.000 A 
ATOM     12  C   UNL     1       5.273   3.708  13.537  0.00  0.00    +0.000 A 
ATOM     13  C   UNL     1       5.981   3.462  12.359  0.00  0.00    +0.000 A 
ATOM     14  C   UNL     1       7.222   4.061  12.171  0.00  0.00    +0.000 A 
ATOM     15  C   UNL     1       7.709   4.904  13.180  0.00  0.00    +0.000 A 
ATOM     16  C   UNL     1       6.986   5.141  14.374  0.00  0.00    +0.000 A 
ENDBRANCH   8  11
BRANCH   1  17
ATOM     17  C   UNL     1       3.010   6.402  20.091  0.00  0.00    +0.000 C 
BRANCH  17  23
ATOM     18  C   UNL     1       2.367   8.579  17.723  0.00  0.00    +0.000 C 
ATOM     19  C   UNL     1       1.780   8.544  19.082  0.00  0.00    +0.000 A 
ATOM     20  C   UNL     1       0.920   9.491  19.607  0.00  0.00    +0.000 A 
ATOM     21  C   UNL     1       0.548   9.018  20.876  0.00  0.00    +0.000 A 
ATOM     22  N   UNL     1       1.087   7.794  21.102  0.00  0.00    +0.000 NA
ATOM     23  N   UNL     1       1.990   7.586  20.068  0.00  0.00    +0.000 N 
BRANCH  21  24
ATOM     24  C   UNL     1      -0.295   9.753  21.853  0.00  0.00    +0.000 C 
ATOM     25  O   UNL     1      -0.611  10.934  21.742  0.00  0.00    +0.000 OA
BRANCH  24  26
ATOM     26  O   UNL     1      -0.670   8.997  22.916  0.00  0.00    +0.000 OA
ATOM     27  H   UNL     1      -1.375   9.500  23.376  0.00  0.00    +0.000 HD
ENDBRANCH  24  26
ENDBRANCH  21  24
ENDBRANCH  17  23
ENDBRANCH   1  17
TORSDOF 5
ENDMDL
