MODEL 1
REMARK VINA RESULT:      -8.3      0.000      0.000
REMARK  Name = 
REMARK  7 active torsions:
REMARK  status: ('A' for Active; 'I' for Inactive)
REMARK    1  A    between atoms: C_1  and  C_2
REMARK    2  A    between atoms: C_3  and  C_4
REMARK    3  A    between atoms: C_4  and  N_5
REMARK    4  A    between atoms: N_18  and  C_19
REMARK    5  A    between atoms: C_19  and  C_20
REMARK    6  A    between atoms: C_23  and  N_24
REMARK    7  A    between atoms: N_33  and  C_34
REMARK                            x       y       z     vdW  Elec       q    Type
REMARK                         _______ _______ _______ _____ _____    ______ ____
ROOT
ATOM      1  N   UNL     1      -3.704  11.713  19.116  0.00  0.00    +0.000 N 
ATOM      2  C   UNL     1      -4.045  12.586  20.245  0.00  0.00    +0.000 A 
ATOM      3  N   UNL     1      -5.287  13.062  20.687  0.00  0.00    +0.000 N 
ATOM      4  C   UNL     1      -6.589  12.439  20.431  0.00  0.00    +0.000 C 
ATOM      5  C   UNL     1      -7.366  12.027  21.727  0.00  0.00    +0.000 C 
ATOM      6  N   UNL     1      -7.568  13.132  22.678  0.00  0.00    +0.000 NA
ATOM      7  C   UNL     1      -6.234  13.640  23.039  0.00  0.00    +0.000 C 
ATOM      8  C   UNL     1      -5.386  14.093  21.796  0.00  0.00    +0.000 C 
ATOM      9  N   UNL     1      -2.921  12.939  20.868  0.00  0.00    +0.000 NA
ATOM     10  C   UNL     1      -1.872  12.341  20.243  0.00  0.00    +0.000 A 
ATOM     11  C   UNL     1      -2.263  11.574  19.181  0.00  0.00    +0.000 A 
ATOM     12  C   UNL     1      -1.236  10.846  18.392  0.00  0.00    +0.000 A 
ATOM     13  O   UNL     1      -1.501  10.111  17.478  0.00  0.00    +0.000 OA
ATOM     14  N   UNL     1       0.122  11.102  18.800  0.00  0.00    +0.000 N 
ATOM     15  C   UNL     1       0.479  11.984  19.824  0.00  0.00    +0.000 A 
ATOM     16  O   UNL     1       1.656  12.311  20.040  0.00  0.00    +0.000 OA
ATOM     17  N   UNL     1      -0.538  12.518  20.606  0.00  0.00    +0.000 N 
ATOM     18  C   UNL     1      -0.138  13.333  21.750  0.00  0.00    +0.000 C 
ATOM     19  H   UNL     1      -8.053  12.798  23.514  0.00  0.00    +0.000 HD
ENDROOT
BRANCH   1  20
ATOM     20  C   UNL     1      -4.652  11.124  17.964  0.00  0.00    +0.000 C 
BRANCH  20  23
ATOM     21  C   UNL     1      -7.175  14.317  16.446  0.00  0.00    +0.000 C 
ATOM     22  C   UNL     1      -6.293  13.200  16.977  0.00  0.00    +0.000 C 
ATOM     23  C   UNL     1      -5.535  12.242  17.433  0.00  0.00    +0.000 C 
ENDBRANCH  20  23
ENDBRANCH   1  20
BRANCH  14  24
ATOM     24  C   UNL     1       1.238  10.390  18.108  0.00  0.00    +0.000 C 
BRANCH  24  25
ATOM     25  C   UNL     1       1.770   9.072  18.708  0.00  0.00    +0.000 A 
ATOM     26  C   UNL     1       1.404   8.658  20.006  0.00  0.00    +0.000 A 
ATOM     27  C   UNL     1       1.676   7.359  20.459  0.00  0.00    +0.000 A 
ATOM     28  C   UNL     1       2.318   6.443  19.621  0.00  0.00    +0.000 A 
ATOM     29  C   UNL     1       2.707   6.830  18.336  0.00  0.00    +0.000 A 
ATOM     30  C   UNL     1       2.450   8.141  17.896  0.00  0.00    +0.000 A 
BRANCH  28  31
ATOM     31  N   UNL     1       2.538   5.124  20.071  0.00  0.00    +0.000 N 
ATOM     32  C   UNL     1       3.339   4.172  19.490  0.00  0.00    +0.000 A 
ATOM     33  N   UNL     1       3.300   3.055  20.175  0.00  0.00    +0.000 NA
ATOM     34  C   UNL     1       2.462   3.373  21.202  0.00  0.00    +0.000 A 
ATOM     35  N   UNL     1       2.001   4.626  21.208  0.00  0.00    +0.000 NA
ENDBRANCH  28  31
ENDBRANCH  24  25
ENDBRANCH  14  24
TORSDOF 5
ENDMDL
MODEL 2
REMARK VINA RESULT:      -8.2      0.967      1.325
REMARK  Name = 
REMARK  7 active torsions:
REMARK  status: ('A' for Active; 'I' for Inactive)
REMARK    1  A    between atoms: C_1  and  C_2
REMARK    2  A    between atoms: C_3  and  C_4
REMARK    3  A    between atoms: C_4  and  N_5
REMARK    4  A    between atoms: N_18  and  C_19
REMARK    5  A    between atoms: C_19  and  C_20
REMARK    6  A    between atoms: C_23  and  N_24
REMARK    7  A    between atoms: N_33  and  C_34
REMARK                            x       y       z     vdW  Elec       q    Type
REMARK                         _______ _______ _______ _____ _____    ______ ____
ROOT
ATOM      1  N   UNL     1      -4.104  12.191  19.883  0.00  0.00    +0.000 N 
ATOM      2  C   UNL     1      -4.472  13.018  21.038  0.00  0.00    +0.000 A 
ATOM      3  N   UNL     1      -5.732  13.373  21.541  0.00  0.00    +0.000 N 
ATOM      4  C   UNL     1      -6.981  12.635  21.334  0.00  0.00    +0.000 C 
ATOM      5  C   UNL     1      -7.658  12.140  22.657  0.00  0.00    +0.000 C 
ATOM      6  N   UNL     1      -7.917  13.212  23.631  0.00  0.00    +0.000 NA
ATOM      7  C   UNL     1      -6.620  13.838  23.940  0.00  0.00    +0.000 C 
ATOM      8  C   UNL     1      -5.874  14.379  22.668  0.00  0.00    +0.000 C 
ATOM      9  N   UNL     1      -3.358  13.467  21.616  0.00  0.00    +0.000 NA
ATOM     10  C   UNL     1      -2.288  12.974  20.937  0.00  0.00    +0.000 A 
ATOM     11  C   UNL     1      -2.655  12.185  19.883  0.00  0.00    +0.000 A 
ATOM     12  C   UNL     1      -1.602  11.562  19.038  0.00  0.00    +0.000 A 
ATOM     13  O   UNL     1      -1.840  10.815  18.127  0.00  0.00    +0.000 OA
ATOM     14  N   UNL     1      -0.256  11.939  19.390  0.00  0.00    +0.000 N 
ATOM     15  C   UNL     1       0.064  12.839  20.409  0.00  0.00    +0.000 A 
ATOM     16  O   UNL     1       1.215  13.271  20.578  0.00  0.00    +0.000 OA
ATOM     17  N   UNL     1      -0.961  13.270  21.243  0.00  0.00    +0.000 N 
ATOM     18  C   UNL     1      -0.586  14.107  22.379  0.00  0.00    +0.000 C 
ATOM     19  H   UNL     1      -8.331  12.827  24.483  0.00  0.00    +0.000 HD
ENDROOT
BRANCH   1  20
ATOM     20  C   UNL     1      -5.045  11.529  18.766  0.00  0.00    +0.000 C 
BRANCH  20  23
ATOM     21  C   UNL     1      -7.168  14.681  16.662  0.00  0.00    +0.000 C 
ATOM     22  C   UNL     1      -6.425  13.578  17.398  0.00  0.00    +0.000 C 
ATOM     23  C   UNL     1      -5.788  12.632  18.029  0.00  0.00    +0.000 C 
ENDBRANCH  20  23
ENDBRANCH   1  20
BRANCH  14  24
ATOM     24  C   UNL     1       0.888  11.340  18.639  0.00  0.00    +0.000 C 
BRANCH  24  25
ATOM     25  C   UNL     1       1.198   9.839  18.823  0.00  0.00    +0.000 A 
ATOM     26  C   UNL     1       1.803   9.084  17.797  0.00  0.00    +0.000 A 
ATOM     27  C   UNL     1       2.310   7.800  18.040  0.00  0.00    +0.000 A 
ATOM     28  C   UNL     1       2.226   7.243  19.319  0.00  0.00    +0.000 A 
ATOM     29  C   UNL     1       1.618   7.961  20.352  0.00  0.00    +0.000 A 
ATOM     30  C   UNL     1       1.092   9.240  20.096  0.00  0.00    +0.000 A 
BRANCH  28  31
ATOM     31  N   UNL     1       2.788   5.972  19.563  0.00  0.00    +0.000 N 
ATOM     32  C   UNL     1       4.051   5.545  19.231  0.00  0.00    +0.000 A 
ATOM     33  N   UNL     1       4.230   4.302  19.604  0.00  0.00    +0.000 NA
ATOM     34  C   UNL     1       3.038   3.999  20.191  0.00  0.00    +0.000 A 
ATOM     35  N   UNL     1       2.141   4.986  20.227  0.00  0.00    +0.000 NA
ENDBRANCH  28  31
ENDBRANCH  24  25
ENDBRANCH  14  24
TORSDOF 5
ENDMDL
MODEL 3
REMARK VINA RESULT:      -8.1      1.601      3.865
REMARK  Name = 
REMARK  7 active torsions:
REMARK  status: ('A' for Active; 'I' for Inactive)
REMARK    1  A    between atoms: C_1  and  C_2
REMARK    2  A    between atoms: C_3  and  C_4
REMARK    3  A    between atoms: C_4  and  N_5
REMARK    4  A    between atoms: N_18  and  C_19
REMARK    5  A    between atoms: C_19  and  C_20
REMARK    6  A    between atoms: C_23  and  N_24
REMARK    7  A    between atoms: N_33  and  C_34
REMARK                            x       y       z     vdW  Elec       q    Type
REMARK                         _______ _______ _______ _____ _____    ______ ____
ROOT
ATOM      1  N   UNL     1      -2.684  12.813  22.123  0.00  0.00    +0.000 N 
ATOM      2  C   UNL     1      -4.074  12.995  21.686  0.00  0.00    +0.000 A 
ATOM      3  N   UNL     1      -5.190  13.486  22.378  0.00  0.00    +0.000 N 
ATOM      4  C   UNL     1      -5.159  14.377  23.542  0.00  0.00    +0.000 C 
ATOM      5  C   UNL     1      -5.897  15.741  23.323  0.00  0.00    +0.000 C 
ATOM      6  N   UNL     1      -7.297  15.599  22.893  0.00  0.00    +0.000 NA
ATOM      7  C   UNL     1      -7.288  14.832  21.637  0.00  0.00    +0.000 C 
ATOM      8  C   UNL     1      -6.578  13.436  21.768  0.00  0.00    +0.000 C 
ATOM      9  N   UNL     1      -4.184  12.578  20.426  0.00  0.00    +0.000 NA
ATOM     10  C   UNL     1      -2.964  12.159  19.999  0.00  0.00    +0.000 A 
ATOM     11  C   UNL     1      -2.001  12.279  20.962  0.00  0.00    +0.000 A 
ATOM     12  C   UNL     1      -0.607  11.869  20.654  0.00  0.00    +0.000 A 
ATOM     13  O   UNL     1       0.306  11.992  21.426  0.00  0.00    +0.000 OA
ATOM     14  N   UNL     1      -0.431  11.291  19.345  0.00  0.00    +0.000 N 
ATOM     15  C   UNL     1      -1.470  11.085  18.434  0.00  0.00    +0.000 A 
ATOM     16  O   UNL     1      -1.319  10.435  17.388  0.00  0.00    +0.000 OA
ATOM     17  N   UNL     1      -2.716  11.621  18.737  0.00  0.00    +0.000 N 
ATOM     18  C   UNL     1      -3.754  11.507  17.715  0.00  0.00    +0.000 C 
ATOM     19  H   UNL     1      -7.717  16.519  22.738  0.00  0.00    +0.000 HD
ENDROOT
BRANCH   1  20
ATOM     20  C   UNL     1      -2.041  13.019  23.578  0.00  0.00    +0.000 C 
BRANCH  20  23
ATOM     21  C   UNL     1      -0.028  16.866  23.697  0.00  0.00    +0.000 C 
ATOM     22  C   UNL     1      -0.732  15.520  23.655  0.00  0.00    +0.000 C 
ATOM     23  C   UNL     1      -1.336  14.366  23.619  0.00  0.00    +0.000 C 
ENDBRANCH  20  23
ENDBRANCH   1  20
BRANCH  14  24
ATOM     24  C   UNL     1       0.937  10.881  18.907  0.00  0.00    +0.000 C 
BRANCH  24  25
ATOM     25  C   UNL     1       1.330   9.390  18.978  0.00  0.00    +0.000 A 
ATOM     26  C   UNL     1       1.944   8.741  17.888  0.00  0.00    +0.000 A 
ATOM     27  C   UNL     1       2.524   7.472  18.029  0.00  0.00    +0.000 A 
ATOM     28  C   UNL     1       2.504   6.825  19.268  0.00  0.00    +0.000 A 
ATOM     29  C   UNL     1       1.888   7.438  20.363  0.00  0.00    +0.000 A 
ATOM     30  C   UNL     1       1.290   8.701  20.208  0.00  0.00    +0.000 A 
BRANCH  28  31
ATOM     31  N   UNL     1       3.138   5.573  19.409  0.00  0.00    +0.000 N 
ATOM     32  C   UNL     1       2.657   4.469  20.069  0.00  0.00    +0.000 A 
ATOM     33  N   UNL     1       3.516   3.481  20.003  0.00  0.00    +0.000 NA
ATOM     34  C   UNL     1       4.524   4.021  19.262  0.00  0.00    +0.000 A 
ATOM     35  N   UNL     1       4.331   5.274  18.844  0.00  0.00    +0.000 NA
ENDBRANCH  28  31
ENDBRANCH  24  25
ENDBRANCH  14  24
TORSDOF 5
ENDMDL
MODEL 4
REMARK VINA RESULT:      -8.0      1.398      1.843
REMARK  Name = 
REMARK  7 active torsions:
REMARK  status: ('A' for Active; 'I' for Inactive)
REMARK    1  A    between atoms: C_1  and  C_2
REMARK    2  A    between atoms: C_3  and  C_4
REMARK    3  A    between atoms: C_4  and  N_5
REMARK    4  A    between atoms: N_18  and  C_19
REMARK    5  A    between atoms: C_19  and  C_20
REMARK    6  A    between atoms: C_23  and  N_24
REMARK    7  A    between atoms: N_33  and  C_34
REMARK                            x       y       z     vdW  Elec       q    Type
REMARK                         _______ _______ _______ _____ _____    ______ ____
ROOT
ATOM      1  N   UNL     1      -4.362  12.457  19.950  0.00  0.00    +0.000 N 
ATOM      2  C   UNL     1      -4.597  13.074  21.262  0.00  0.00    +0.000 A 
ATOM      3  N   UNL     1      -5.791  13.456  21.888  0.00  0.00    +0.000 N 
ATOM      4  C   UNL     1      -7.123  12.913  21.609  0.00  0.00    +0.000 C 
ATOM      5  C   UNL     1      -7.813  12.242  22.845  0.00  0.00    +0.000 C 
ATOM      6  N   UNL     1      -7.916  13.122  24.020  0.00  0.00    +0.000 NA
ATOM      7  C   UNL     1      -6.546  13.531  24.376  0.00  0.00    +0.000 C 
ATOM      8  C   UNL     1      -5.782  14.229  23.194  0.00  0.00    +0.000 C 
ATOM      9  N   UNL     1      -3.422  13.277  21.856  0.00  0.00    +0.000 NA
ATOM     10  C   UNL     1      -2.437  12.816  21.039  0.00  0.00    +0.000 A 
ATOM     11  C   UNL     1      -2.924  12.295  19.873  0.00  0.00    +0.000 A 
ATOM     12  C   UNL     1      -1.977  11.742  18.871  0.00  0.00    +0.000 A 
ATOM     13  O   UNL     1      -2.327  11.219  17.847  0.00  0.00    +0.000 OA
ATOM     14  N   UNL     1      -0.586  11.894  19.218  0.00  0.00    +0.000 N 
ATOM     15  C   UNL     1      -0.133  12.536  20.373  0.00  0.00    +0.000 A 
ATOM     16  O   UNL     1       1.064  12.799  20.561  0.00  0.00    +0.000 OA
ATOM     17  N   UNL     1      -1.076  12.901  21.327  0.00  0.00    +0.000 N 
ATOM     18  C   UNL     1      -0.572  13.452  22.582  0.00  0.00    +0.000 C 
ATOM     19  H   UNL     1      -8.346  12.623  24.802  0.00  0.00    +0.000 HD
ENDROOT
BRANCH   1  20
ATOM     20  C   UNL     1      -5.407  12.133  18.778  0.00  0.00    +0.000 C 
BRANCH  20  23
ATOM     21  C   UNL     1      -7.465   8.423  19.708  0.00  0.00    +0.000 C 
ATOM     22  C   UNL     1      -6.745   9.721  19.382  0.00  0.00    +0.000 C 
ATOM     23  C   UNL     1      -6.127  10.835  19.103  0.00  0.00    +0.000 C 
ENDBRANCH  20  23
ENDBRANCH   1  20
BRANCH  14  24
ATOM     24  C   UNL     1       0.458  11.336  18.306  0.00  0.00    +0.000 C 
BRANCH  24  25
ATOM     25  C   UNL     1       1.213  10.058  18.730  0.00  0.00    +0.000 A 
ATOM     26  C   UNL     1       0.945   9.422  19.960  0.00  0.00    +0.000 A 
ATOM     27  C   UNL     1       1.439   8.140  20.239  0.00  0.00    +0.000 A 
ATOM     28  C   UNL     1       2.210   7.463  19.290  0.00  0.00    +0.000 A 
ATOM     29  C   UNL     1       2.506   8.075  18.069  0.00  0.00    +0.000 A 
ATOM     30  C   UNL     1       2.025   9.369  17.805  0.00  0.00    +0.000 A 
BRANCH  28  31
ATOM     31  N   UNL     1       2.656   6.152  19.563  0.00  0.00    +0.000 N 
ATOM     32  C   UNL     1       3.808   5.557  19.111  0.00  0.00    +0.000 A 
ATOM     33  N   UNL     1       3.897   4.328  19.557  0.00  0.00    +0.000 NA
ATOM     34  C   UNL     1       2.768   4.209  20.311  0.00  0.00    +0.000 A 
ATOM     35  N   UNL     1       1.999   5.297  20.380  0.00  0.00    +0.000 NA
ENDBRANCH  28  31
ENDBRANCH  24  25
ENDBRANCH  14  24
TORSDOF 5
ENDMDL
MODEL 5
REMARK VINA RESULT:      -8.0      1.441      1.782
REMARK  Name = 
REMARK  7 active torsions:
REMARK  status: ('A' for Active; 'I' for Inactive)
REMARK    1  A    between atoms: C_1  and  C_2
REMARK    2  A    between atoms: C_3  and  C_4
REMARK    3  A    between atoms: C_4  and  N_5
REMARK    4  A    between atoms: N_18  and  C_19
REMARK    5  A    between atoms: C_19  and  C_20
REMARK    6  A    between atoms: C_23  and  N_24
REMARK    7  A    between atoms: N_33  and  C_34
REMARK                            x       y       z     vdW  Elec       q    Type
REMARK                         _______ _______ _______ _____ _____    ______ ____
ROOT
ATOM      1  N   UNL     1      -3.017  11.427  19.002  0.00  0.00    +0.000 N 
ATOM      2  C   UNL     1      -3.276  12.633  19.797  0.00  0.00    +0.000 A 
ATOM      3  N   UNL     1      -4.485  13.208  20.213  0.00  0.00    +0.000 N 
ATOM      4  C   UNL     1      -5.764  12.509  20.367  0.00  0.00    +0.000 C 
ATOM      5  C   UNL     1      -6.351  12.560  21.818  0.00  0.00    +0.000 C 
ATOM      6  N   UNL     1      -6.509  13.924  22.349  0.00  0.00    +0.000 NA
ATOM      7  C   UNL     1      -5.178  14.553  22.328  0.00  0.00    +0.000 C 
ATOM      8  C   UNL     1      -4.518  14.559  20.902  0.00  0.00    +0.000 C 
ATOM      9  N   UNL     1      -2.112  13.204  20.102  0.00  0.00    +0.000 NA
ATOM     10  C   UNL     1      -1.108  12.446  19.584  0.00  0.00    +0.000 A 
ATOM     11  C   UNL     1      -1.572  11.349  18.914  0.00  0.00    +0.000 A 
ATOM     12  C   UNL     1      -0.602  10.411  18.291  0.00  0.00    +0.000 A 
ATOM     13  O   UNL     1      -0.926   9.398  17.732  0.00  0.00    +0.000 OA
ATOM     14  N   UNL     1       0.775  10.822  18.398  0.00  0.00    +0.000 N 
ATOM     15  C   UNL     1       1.194  12.013  18.997  0.00  0.00    +0.000 A 
ATOM     16  O   UNL     1       2.364  12.418  18.926  0.00  0.00    +0.000 OA
ATOM     17  N   UNL     1       0.245  12.766  19.679  0.00  0.00    +0.000 N 
ATOM     18  C   UNL     1       0.726  13.938  20.406  0.00  0.00    +0.000 C 
ATOM     19  H   UNL     1      -6.866  13.893  23.307  0.00  0.00    +0.000 HD
ENDROOT
BRANCH   1  20
ATOM     20  C   UNL     1      -4.055  10.454  18.263  0.00  0.00    +0.000 C 
BRANCH  20  23
ATOM     21  C   UNL     1      -2.986  10.178  14.062  0.00  0.00    +0.000 C 
ATOM     22  C   UNL     1      -3.360  10.274  15.532  0.00  0.00    +0.000 C 
ATOM     23  C   UNL     1      -3.681  10.357  16.793  0.00  0.00    +0.000 C 
ENDBRANCH  20  23
ENDBRANCH   1  20
BRANCH  14  24
ATOM     24  C   UNL     1       1.845   9.935  17.847  0.00  0.00    +0.000 C 
BRANCH  24  25
ATOM     25  C   UNL     1       2.135   8.592  18.549  0.00  0.00    +0.000 A 
ATOM     26  C   UNL     1       1.703   8.345  19.868  0.00  0.00    +0.000 A 
ATOM     27  C   UNL     1       1.742   7.056  20.418  0.00  0.00    +0.000 A 
ATOM     28  C   UNL     1       2.213   5.982  19.657  0.00  0.00    +0.000 A 
ATOM     29  C   UNL     1       2.663   6.199  18.352  0.00  0.00    +0.000 A 
ATOM     30  C   UNL     1       2.641   7.498  17.815  0.00  0.00    +0.000 A 
BRANCH  28  31
ATOM     31  N   UNL     1       2.197   4.682  20.203  0.00  0.00    +0.000 N 
ATOM     32  C   UNL     1       1.111   4.004  20.702  0.00  0.00    +0.000 A 
ATOM     33  N   UNL     1       1.466   2.819  21.135  0.00  0.00    +0.000 NA
ATOM     34  C   UNL     1       2.801   2.797  20.861  0.00  0.00    +0.000 A 
ATOM     35  N   UNL     1       3.289   3.885  20.263  0.00  0.00    +0.000 NA
ENDBRANCH  28  31
ENDBRANCH  24  25
ENDBRANCH  14  24
TORSDOF 5
ENDMDL
MODEL 6
REMARK VINA RESULT:      -7.9      1.050      1.571
REMARK  Name = 
REMARK  7 active torsions:
REMARK  status: ('A' for Active; 'I' for Inactive)
REMARK    1  A    between atoms: C_1  and  C_2
REMARK    2  A    between atoms: C_3  and  C_4
REMARK    3  A    between atoms: C_4  and  N_5
REMARK    4  A    between atoms: N_18  and  C_19
REMARK    5  A    between atoms: C_19  and  C_20
REMARK    6  A    between atoms: C_23  and  N_24
REMARK    7  A    between atoms: N_33  and  C_34
REMARK                            x       y       z     vdW  Elec       q    Type
REMARK                         _______ _______ _______ _____ _____    ______ ____
ROOT
ATOM      1  N   UNL     1      -3.529  11.929  19.086  0.00  0.00    +0.000 N 
ATOM      2  C   UNL     1      -3.771  12.858  20.197  0.00  0.00    +0.000 A 
ATOM      3  N   UNL     1      -4.964  13.427  20.666  0.00  0.00    +0.000 N 
ATOM      4  C   UNL     1      -6.311  12.882  20.478  0.00  0.00    +0.000 C 
ATOM      5  C   UNL     1      -7.064  12.562  21.814  0.00  0.00    +0.000 C 
ATOM      6  N   UNL     1      -7.159  13.707  22.733  0.00  0.00    +0.000 NA
ATOM      7  C   UNL     1      -5.782  14.139  23.029  0.00  0.00    +0.000 C 
ATOM      8  C   UNL     1      -4.955  14.497  21.742  0.00  0.00    +0.000 C 
ATOM      9  N   UNL     1      -2.605  13.157  20.767  0.00  0.00    +0.000 NA
ATOM     10  C   UNL     1      -1.620  12.473  20.126  0.00  0.00    +0.000 A 
ATOM     11  C   UNL     1      -2.099  11.700  19.105  0.00  0.00    +0.000 A 
ATOM     12  C   UNL     1      -1.151  10.882  18.305  0.00  0.00    +0.000 A 
ATOM     13  O   UNL     1      -1.496  10.137  17.427  0.00  0.00    +0.000 OA
ATOM     14  N   UNL     1       0.235  11.063  18.656  0.00  0.00    +0.000 N 
ATOM     15  C   UNL     1       0.686  11.951  19.636  0.00  0.00    +0.000 A 
ATOM     16  O   UNL     1       1.888  12.208  19.799  0.00  0.00    +0.000 OA
ATOM     17  N   UNL     1      -0.265  12.574  20.435  0.00  0.00    +0.000 N 
ATOM     18  C   UNL     1       0.229  13.398  21.535  0.00  0.00    +0.000 C 
ATOM     19  H   UNL     1      -7.632  13.432  23.597  0.00  0.00    +0.000 HD
ENDROOT
BRANCH   1  20
ATOM     20  C   UNL     1      -4.556  11.367  17.990  0.00  0.00    +0.000 C 
BRANCH  20  23
ATOM     21  C   UNL     1      -7.363   8.682  19.934  0.00  0.00    +0.000 C 
ATOM     22  C   UNL     1      -6.381   9.621  19.254  0.00  0.00    +0.000 C 
ATOM     23  C   UNL     1      -5.538  10.427  18.671  0.00  0.00    +0.000 C 
ENDBRANCH  20  23
ENDBRANCH   1  20
BRANCH  14  24
ATOM     24  C   UNL     1       1.277  10.258  17.949  0.00  0.00    +0.000 C 
BRANCH  24  25
ATOM     25  C   UNL     1       1.796   8.963  18.608  0.00  0.00    +0.000 A 
ATOM     26  C   UNL     1       1.400   8.594  19.910  0.00  0.00    +0.000 A 
ATOM     27  C   UNL     1       1.662   7.312  20.416  0.00  0.00    +0.000 A 
ATOM     28  C   UNL     1       2.326   6.369  19.625  0.00  0.00    +0.000 A 
ATOM     29  C   UNL     1       2.744   6.712  18.337  0.00  0.00    +0.000 A 
ATOM     30  C   UNL     1       2.496   8.005  17.845  0.00  0.00    +0.000 A 
BRANCH  28  31
ATOM     31  N   UNL     1       2.536   5.067  20.126  0.00  0.00    +0.000 N 
ATOM     32  C   UNL     1       1.877   4.462  21.168  0.00  0.00    +0.000 A 
ATOM     33  N   UNL     1       2.337   3.250  21.363  0.00  0.00    +0.000 NA
ATOM     34  C   UNL     1       3.284   3.138  20.390  0.00  0.00    +0.000 A 
ATOM     35  N   UNL     1       3.421   4.196  19.588  0.00  0.00    +0.000 NA
ENDBRANCH  28  31
ENDBRANCH  24  25
ENDBRANCH  14  24
TORSDOF 5
ENDMDL
MODEL 7
REMARK VINA RESULT:      -7.8      1.439      3.412
REMARK  Name = 
REMARK  7 active torsions:
REMARK  status: ('A' for Active; 'I' for Inactive)
REMARK    1  A    between atoms: C_1  and  C_2
REMARK    2  A    between atoms: C_3  and  C_4
REMARK    3  A    between atoms: C_4  and  N_5
REMARK    4  A    between atoms: N_18  and  C_19
REMARK    5  A    between atoms: C_19  and  C_20
REMARK    6  A    between atoms: C_23  and  N_24
REMARK    7  A    between atoms: N_33  and  C_34
REMARK                            x       y       z     vdW  Elec       q    Type
REMARK                         _______ _______ _______ _____ _____    ______ ____
ROOT
ATOM      1  N   UNL     1      -2.821  12.927  20.383  0.00  0.00    +0.000 N 
ATOM      2  C   UNL     1      -4.163  12.768  19.810  0.00  0.00    +0.000 A 
ATOM      3  N   UNL     1      -5.388  13.334  20.188  0.00  0.00    +0.000 N 
ATOM      4  C   UNL     1      -5.567  14.581  20.937  0.00  0.00    +0.000 C 
ATOM      5  C   UNL     1      -6.391  15.673  20.176  0.00  0.00    +0.000 C 
ATOM      6  N   UNL     1      -7.717  15.215  19.729  0.00  0.00    +0.000 NA
ATOM      7  C   UNL     1      -7.499  14.054  18.851  0.00  0.00    +0.000 C 
ATOM      8  C   UNL     1      -6.689  12.898  19.541  0.00  0.00    +0.000 C 
ATOM      9  N   UNL     1      -4.094  11.914  18.790  0.00  0.00    +0.000 NA
ATOM     10  C   UNL     1      -2.801  11.522  18.638  0.00  0.00    +0.000 A 
ATOM     11  C   UNL     1      -1.968  12.098  19.555  0.00  0.00    +0.000 A 
ATOM     12  C   UNL     1      -0.517  11.779  19.522  0.00  0.00    +0.000 A 
ATOM     13  O   UNL     1       0.289  12.283  20.258  0.00  0.00    +0.000 OA
ATOM     14  N   UNL     1      -0.146  10.794  18.538  0.00  0.00    +0.000 N 
ATOM     15  C   UNL     1      -1.054  10.148  17.695  0.00  0.00    +0.000 A 
ATOM     16  O   UNL     1      -0.729   9.188  16.979  0.00  0.00    +0.000 OA
ATOM     17  N   UNL     1      -2.368  10.600  17.686  0.00  0.00    +0.000 N 
ATOM     18  C   UNL     1      -3.270   9.999  16.707  0.00  0.00    +0.000 C 
ATOM     19  H   UNL     1      -8.195  15.958  19.214  0.00  0.00    +0.000 HD
ENDROOT
BRANCH   1  20
ATOM     20  C   UNL     1      -2.365  13.721  21.700  0.00  0.00    +0.000 C 
BRANCH  20  23
ATOM     21  C   UNL     1      -4.711  12.311  25.073  0.00  0.00    +0.000 C 
ATOM     22  C   UNL     1      -3.890  12.805  23.893  0.00  0.00    +0.000 C 
ATOM     23  C   UNL     1      -3.186  13.228  22.881  0.00  0.00    +0.000 C 
ENDBRANCH  20  23
ENDBRANCH   1  20
BRANCH  14  24
ATOM     24  C   UNL     1       1.294  10.425  18.383  0.00  0.00    +0.000 C 
BRANCH  24  25
ATOM     25  C   UNL     1       1.778   9.062  18.921  0.00  0.00    +0.000 A 
ATOM     26  C   UNL     1       1.417   8.612  20.207  0.00  0.00    +0.000 A 
ATOM     27  C   UNL     1       1.640   7.285  20.604  0.00  0.00    +0.000 A 
ATOM     28  C   UNL     1       2.228   6.378  19.717  0.00  0.00    +0.000 A 
ATOM     29  C   UNL     1       2.611   6.799  18.441  0.00  0.00    +0.000 A 
ATOM     30  C   UNL     1       2.403   8.136  18.059  0.00  0.00    +0.000 A 
BRANCH  28  31
ATOM     31  N   UNL     1       2.398   5.033  20.110  0.00  0.00    +0.000 N 
ATOM     32  C   UNL     1       3.430   4.193  19.769  0.00  0.00    +0.000 A 
ATOM     33  N   UNL     1       3.259   3.011  20.309  0.00  0.00    +0.000 NA
ATOM     34  C   UNL     1       2.098   3.172  21.004  0.00  0.00    +0.000 A 
ATOM     35  N   UNL     1       1.553   4.389  20.949  0.00  0.00    +0.000 NA
ENDBRANCH  28  31
ENDBRANCH  24  25
ENDBRANCH  14  24
TORSDOF 5
ENDMDL
MODEL 8
REMARK VINA RESULT:      -7.8      1.597      3.762
REMARK  Name = 
REMARK  7 active torsions:
REMARK  status: ('A' for Active; 'I' for Inactive)
REMARK    1  A    between atoms: C_1  and  C_2
REMARK    2  A    between atoms: C_3  and  C_4
REMARK    3  A    between atoms: C_4  and  N_5
REMARK    4  A    between atoms: N_18  and  C_19
REMARK    5  A    between atoms: C_19  and  C_20
REMARK    6  A    between atoms: C_23  and  N_24
REMARK    7  A    between atoms: N_33  and  C_34
REMARK                            x       y       z     vdW  Elec       q    Type
REMARK                         _______ _______ _______ _____ _____    ______ ____
ROOT
ATOM      1  N   UNL     1      -1.687  13.058  21.459  0.00  0.00    +0.000 N 
ATOM      2  C   UNL     1      -3.127  13.228  21.229  0.00  0.00    +0.000 A 
ATOM      3  N   UNL     1      -4.091  13.927  21.968  0.00  0.00    +0.000 N 
ATOM      4  C   UNL     1      -3.835  15.044  22.882  0.00  0.00    +0.000 C 
ATOM      5  C   UNL     1      -4.565  16.372  22.489  0.00  0.00    +0.000 C 
ATOM      6  N   UNL     1      -6.022  16.230  22.340  0.00  0.00    +0.000 NA
ATOM      7  C   UNL     1      -6.253  15.210  21.303  0.00  0.00    +0.000 C 
ATOM      8  C   UNL     1      -5.566  13.834  21.624  0.00  0.00    +0.000 C 
ATOM      9  N   UNL     1      -3.467  12.556  20.130  0.00  0.00    +0.000 NA
ATOM     10  C   UNL     1      -2.351  11.979  19.611  0.00  0.00    +0.000 A 
ATOM     11  C   UNL     1      -1.232  12.243  20.350  0.00  0.00    +0.000 A 
ATOM     12  C   UNL     1       0.076  11.689  19.914  0.00  0.00    +0.000 A 
ATOM     13  O   UNL     1       1.113  11.918  20.477  0.00  0.00    +0.000 OA
ATOM     14  N   UNL     1       0.004  10.831  18.758  0.00  0.00    +0.000 N 
ATOM     15  C   UNL     1      -1.183  10.500  18.101  0.00  0.00    +0.000 A 
ATOM     16  O   UNL     1      -1.234   9.631  17.217  0.00  0.00    +0.000 OA
ATOM     17  N   UNL     1      -2.343  11.166  18.478  0.00  0.00    +0.000 N 
ATOM     18  C   UNL     1      -3.546  10.900  17.694  0.00  0.00    +0.000 C 
ATOM     19  H   UNL     1      -6.440  17.119  22.055  0.00  0.00    +0.000 HD
ENDROOT
BRANCH   1  20
ATOM     20  C   UNL     1      -0.793  13.532  22.703  0.00  0.00    +0.000 C 
BRANCH  20  23
ATOM     21  C   UNL     1       1.623  16.931  21.488  0.00  0.00    +0.000 C 
ATOM     22  C   UNL     1       0.778  15.742  21.914  0.00  0.00    +0.000 C 
ATOM     23  C   UNL     1       0.053  14.721  22.278  0.00  0.00    +0.000 C 
ENDBRANCH  20  23
ENDBRANCH   1  20
BRANCH  14  24
ATOM     24  C   UNL     1       1.264  10.251  18.202  0.00  0.00    +0.000 C 
BRANCH  24  25
ATOM     25  C   UNL     1       1.786   8.915  18.771  0.00  0.00    +0.000 A 
ATOM     26  C   UNL     1       1.459   8.497  20.077  0.00  0.00    +0.000 A 
ATOM     27  C   UNL     1       1.716   7.188  20.509  0.00  0.00    +0.000 A 
ATOM     28  C   UNL     1       2.305   6.265  19.639  0.00  0.00    +0.000 A 
ATOM     29  C   UNL     1       2.655   6.656  18.344  0.00  0.00    +0.000 A 
ATOM     30  C   UNL     1       2.413   7.976  17.925  0.00  0.00    +0.000 A 
BRANCH  28  31
ATOM     31  N   UNL     1       2.510   4.937  20.069  0.00  0.00    +0.000 N 
ATOM     32  C   UNL     1       3.366   4.012  19.525  0.00  0.00    +0.000 A 
ATOM     33  N   UNL     1       3.292   2.876  20.175  0.00  0.00    +0.000 NA
ATOM     34  C   UNL     1       2.375   3.155  21.144  0.00  0.00    +0.000 A 
ATOM     35  N   UNL     1       1.896   4.400  21.149  0.00  0.00    +0.000 NA
ENDBRANCH  28  31
ENDBRANCH  24  25
ENDBRANCH  14  24
TORSDOF 5
ENDMDL
MODEL 9
REMARK VINA RESULT:      -7.8      1.504      3.721
REMARK  Name = 
REMARK  7 active torsions:
REMARK  status: ('A' for Active; 'I' for Inactive)
REMARK    1  A    between atoms: C_1  and  C_2
REMARK    2  A    between atoms: C_3  and  C_4
REMARK    3  A    between atoms: C_4  and  N_5
REMARK    4  A    between atoms: N_18  and  C_19
REMARK    5  A    between atoms: C_19  and  C_20
REMARK    6  A    between atoms: C_23  and  N_24
REMARK    7  A    between atoms: N_33  and  C_34
REMARK                            x       y       z     vdW  Elec       q    Type
REMARK                         _______ _______ _______ _____ _____    ______ ____
ROOT
ATOM      1  N   UNL     1      -2.669  12.958  22.078  0.00  0.00    +0.000 N 
ATOM      2  C   UNL     1      -4.102  13.046  21.769  0.00  0.00    +0.000 A 
ATOM      3  N   UNL     1      -5.178  13.486  22.553  0.00  0.00    +0.000 N 
ATOM      4  C   UNL     1      -5.095  14.406  23.691  0.00  0.00    +0.000 C 
ATOM      5  C   UNL     1      -5.932  15.717  23.516  0.00  0.00    +0.000 C 
ATOM      6  N   UNL     1      -7.355  15.481  23.223  0.00  0.00    +0.000 NA
ATOM      7  C   UNL     1      -7.415  14.684  21.986  0.00  0.00    +0.000 C 
ATOM      8  C   UNL     1      -6.611  13.337  22.077  0.00  0.00    +0.000 C 
ATOM      9  N   UNL     1      -4.303  12.591  20.533  0.00  0.00    +0.000 NA
ATOM     10  C   UNL     1      -3.103  12.235  20.002  0.00  0.00    +0.000 A 
ATOM     11  C   UNL     1      -2.065  12.437  20.868  0.00  0.00    +0.000 A 
ATOM     12  C   UNL     1      -0.682  12.103  20.438  0.00  0.00    +0.000 A 
ATOM     13  O   UNL     1       0.288  12.300  21.119  0.00  0.00    +0.000 OA
ATOM     14  N   UNL     1      -0.593  11.503  19.131  0.00  0.00    +0.000 N 
ATOM     15  C   UNL     1      -1.697  11.213  18.325  0.00  0.00    +0.000 A 
ATOM     16  O   UNL     1      -1.603  10.547  17.283  0.00  0.00    +0.000 OA
ATOM     17  N   UNL     1      -2.941  11.681  18.733  0.00  0.00    +0.000 N 
ATOM     18  C   UNL     1      -4.059  11.480  17.815  0.00  0.00    +0.000 C 
ATOM     19  H   UNL     1      -7.844  16.370  23.090  0.00  0.00    +0.000 HD
ENDROOT
BRANCH   1  20
ATOM     20  C   UNL     1      -1.908  13.238  23.461  0.00  0.00    +0.000 C 
BRANCH  20  23
ATOM     21  C   UNL     1       0.310  16.957  23.120  0.00  0.00    +0.000 C 
ATOM     22  C   UNL     1      -0.466  15.656  23.239  0.00  0.00    +0.000 C 
ATOM     23  C   UNL     1      -1.132  14.540  23.341  0.00  0.00    +0.000 C 
ENDBRANCH  20  23
ENDBRANCH   1  20
BRANCH  14  24
ATOM     24  C   UNL     1       0.752  11.166  18.574  0.00  0.00    +0.000 C 
BRANCH  24  25
ATOM     25  C   UNL     1       1.395   9.812  18.944  0.00  0.00    +0.000 A 
ATOM     26  C   UNL     1       1.140   9.195  20.185  0.00  0.00    +0.000 A 
ATOM     27  C   UNL     1       1.514   7.865  20.428  0.00  0.00    +0.000 A 
ATOM     28  C   UNL     1       2.149   7.122  19.428  0.00  0.00    +0.000 A 
ATOM     29  C   UNL     1       2.429   7.713  18.193  0.00  0.00    +0.000 A 
ATOM     30  C   UNL     1       2.071   9.053  17.965  0.00  0.00    +0.000 A 
BRANCH  28  31
ATOM     31  N   UNL     1       2.472   5.769  19.667  0.00  0.00    +0.000 N 
ATOM     32  C   UNL     1       3.192   4.931  18.851  0.00  0.00    +0.000 A 
ATOM     33  N   UNL     1       3.292   3.740  19.387  0.00  0.00    +0.000 NA
ATOM     34  C   UNL     1       2.624   3.893  20.565  0.00  0.00    +0.000 A 
ATOM     35  N   UNL     1       2.139   5.113  20.803  0.00  0.00    +0.000 NA
ENDBRANCH  28  31
ENDBRANCH  24  25
ENDBRANCH  14  24
TORSDOF 5
ENDMDL
