MODEL 1
REMARK VINA RESULT:      -6.8      0.000      0.000
REMARK  Name = 
REMARK  11 active torsions:
REMARK  status: ('A' for Active; 'I' for Inactive)
REMARK    1  A    between atoms: C_1  and  O_2
REMARK    2  A    between atoms: O_2  and  C_3
REMARK    3  A    between atoms: C_3  and  C_5
REMARK    4  A    between atoms: C_8  and  C_9
REMARK    5  A    between atoms: C_10  and  C_11
REMARK    6  A    between atoms: C_11  and  C_13
REMARK    7  A    between atoms: C_16  and  O_17
REMARK    8  A    between atoms: O_17  and  C_18
REMARK    9  A    between atoms: C_21  and  O_22
REMARK   10  A    between atoms: N_25  and  C_26
REMARK   11  A    between atoms: C_26  and  C_27
REMARK                            x       y       z     vdW  Elec       q    Type
REMARK                         _______ _______ _______ _____ _____    ______ ____
ROOT
ATOM      1  C   UNL     1      -0.077  11.198  20.214  0.00  0.00    +0.000 C 
ATOM      2  C   UNL     1       0.180  10.340  21.410  0.00  0.00    +0.000 C 
ATOM      3  C   UNL     1      -0.693  10.577  22.399  0.00  0.00    +0.000 C 
ATOM      4  C   UNL     1      -1.666  11.575  21.892  0.00  0.00    +0.000 C 
ATOM      5  O   UNL     1      -2.677  11.943  22.460  0.00  0.00    +0.000 OA
ATOM      6  N   UNL     1      -1.214  11.974  20.647  0.00  0.00    +0.000 N 
ENDROOT
BRANCH   1  10
ATOM      7  C   UNL     1       3.180  13.780  18.982  0.00  0.00    +0.000 A 
ATOM      8  C   UNL     1       2.725  13.779  20.305  0.00  0.00    +0.000 A 
ATOM      9  C   UNL     1       1.685  12.932  20.690  0.00  0.00    +0.000 A 
ATOM     10  C   UNL     1       1.083  12.064  19.763  0.00  0.00    +0.000 A 
ATOM     11  C   UNL     1       1.589  12.026  18.454  0.00  0.00    +0.000 A 
ATOM     12  C   UNL     1       2.618  12.887  18.062  0.00  0.00    +0.000 A 
BRANCH   7  13
ATOM     13  C   UNL     1       4.238  14.754  18.609  0.00  0.00    +0.000 C 
ATOM     14  O   UNL     1       5.215  14.988  19.307  0.00  0.00    +0.000 OA
BRANCH  13  16
ATOM     15  C   UNL     1       3.189  16.555  17.560  0.00  0.00    +0.000 C 
ATOM     16  O   UNL     1       3.943  15.349  17.428  0.00  0.00    +0.000 OA
ENDBRANCH  13  16
ENDBRANCH   7  13
ENDBRANCH   1  10
BRANCH   2  17
ATOM     17  C   UNL     1       1.290   9.384  21.612  0.00  0.00    +0.000 C 
ATOM     18  O   UNL     1       1.979   9.472  22.630  0.00  0.00    +0.000 OA
BRANCH  17  19
ATOM     19  C   UNL     1       1.581   8.314  20.625  0.00  0.00    +0.000 A 
ATOM     20  C   UNL     1       1.900   8.680  19.310  0.00  0.00    +0.000 A 
ATOM     21  C   UNL     1       2.250   7.702  18.370  0.00  0.00    +0.000 A 
ATOM     22  C   UNL     1       2.293   6.357  18.735  0.00  0.00    +0.000 A 
ATOM     23  C   UNL     1       1.952   5.988  20.035  0.00  0.00    +0.000 A 
ATOM     24  C   UNL     1       1.634   6.964  20.982  0.00  0.00    +0.000 A 
BRANCH  22  25
ATOM     25  O   UNL     1       2.674   5.477  17.760  0.00  0.00    +0.000 OA
ATOM     26  C   UNL     1       4.061   5.145  17.761  0.00  0.00    +0.000 C 
ENDBRANCH  22  25
ENDBRANCH  17  19
ENDBRANCH   2  17
BRANCH   3  27
ATOM     27  O   UNL     1      -0.736  10.024  23.649  0.00  0.00    +0.000 OA
ATOM     28  H   UNL     1      -0.128  10.546  24.217  0.00  0.00    +0.000 HD
ENDBRANCH   3  27
BRANCH   6  29
ATOM     29  C   UNL     1      -2.036  12.746  19.731  0.00  0.00    +0.000 C 
BRANCH  29  30
ATOM     30  C   UNL     1      -2.533  11.878  18.627  0.00  0.00    +0.000 A 
ATOM     31  C   UNL     1      -3.606  11.019  18.509  0.00  0.00    +0.000 A 
ATOM     32  C   UNL     1      -3.544  10.473  17.205  0.00  0.00    +0.000 A 
ATOM     33  C   UNL     1      -2.444  11.037  16.605  0.00  0.00    +0.000 A 
ATOM     34  O   UNL     1      -1.821  11.890  17.458  0.00  0.00    +0.000 OA
ENDBRANCH  29  30
ENDBRANCH   6  29
TORSDOF 9
ENDMDL
MODEL 2
REMARK VINA RESULT:      -6.8      2.407      5.930
REMARK  Name = 
REMARK  11 active torsions:
REMARK  status: ('A' for Active; 'I' for Inactive)
REMARK    1  A    between atoms: C_1  and  O_2
REMARK    2  A    between atoms: O_2  and  C_3
REMARK    3  A    between atoms: C_3  and  C_5
REMARK    4  A    between atoms: C_8  and  C_9
REMARK    5  A    between atoms: C_10  and  C_11
REMARK    6  A    between atoms: C_11  and  C_13
REMARK    7  A    between atoms: C_16  and  O_17
REMARK    8  A    between atoms: O_17  and  C_18
REMARK    9  A    between atoms: C_21  and  O_22
REMARK   10  A    between atoms: N_25  and  C_26
REMARK   11  A    between atoms: C_26  and  C_27
REMARK                            x       y       z     vdW  Elec       q    Type
REMARK                         _______ _______ _______ _____ _____    ______ ____
ROOT
ATOM      1  C   UNL     1       1.129  12.325  20.652  0.00  0.00    +0.000 C 
ATOM      2  C   UNL     1       1.358  11.709  19.311  0.00  0.00    +0.000 C 
ATOM      3  C   UNL     1       2.110  12.487  18.519  0.00  0.00    +0.000 C 
ATOM      4  C   UNL     1       2.512  13.667  19.322  0.00  0.00    +0.000 C 
ATOM      5  O   UNL     1       3.300  14.530  18.983  0.00  0.00    +0.000 OA
ATOM      6  N   UNL     1       1.843  13.573  20.529  0.00  0.00    +0.000 N 
ENDROOT
BRANCH   1  10
ATOM      7  C   UNL     1      -3.021  12.751  21.829  0.00  0.00    +0.000 A 
ATOM      8  C   UNL     1      -2.080  12.196  22.703  0.00  0.00    +0.000 A 
ATOM      9  C   UNL     1      -0.745  12.078  22.315  0.00  0.00    +0.000 A 
ATOM     10  C   UNL     1      -0.321  12.519  21.050  0.00  0.00    +0.000 A 
ATOM     11  C   UNL     1      -1.259  13.132  20.205  0.00  0.00    +0.000 A 
ATOM     12  C   UNL     1      -2.601  13.234  20.584  0.00  0.00    +0.000 A 
BRANCH   7  13
ATOM     13  C   UNL     1      -4.442  12.784  22.263  0.00  0.00    +0.000 C 
ATOM     14  O   UNL     1      -4.830  12.338  23.334  0.00  0.00    +0.000 OA
BRANCH  13  16
ATOM     15  C   UNL     1      -6.519  12.749  21.201  0.00  0.00    +0.000 C 
ATOM     16  O   UNL     1      -5.221  13.336  21.302  0.00  0.00    +0.000 OA
ENDBRANCH  13  16
ENDBRANCH   7  13
ENDBRANCH   1  10
BRANCH   2  17
ATOM     17  C   UNL     1       0.793  10.445  18.790  0.00  0.00    +0.000 C 
ATOM     18  O   UNL     1      -0.221  10.485  18.091  0.00  0.00    +0.000 OA
BRANCH  17  19
ATOM     19  C   UNL     1       1.428   9.135  19.077  0.00  0.00    +0.000 A 
ATOM     20  C   UNL     1       1.271   8.576  20.352  0.00  0.00    +0.000 A 
ATOM     21  C   UNL     1       1.795   7.309  20.638  0.00  0.00    +0.000 A 
ATOM     22  C   UNL     1       2.472   6.588  19.654  0.00  0.00    +0.000 A 
ATOM     23  C   UNL     1       2.652   7.152  18.393  0.00  0.00    +0.000 A 
ATOM     24  C   UNL     1       2.102   8.402  18.096  0.00  0.00    +0.000 A 
BRANCH  22  25
ATOM     25  O   UNL     1       2.923   5.348  20.015  0.00  0.00    +0.000 OA
ATOM     26  C   UNL     1       2.035   4.607  20.850  0.00  0.00    +0.000 C 
ENDBRANCH  22  25
ENDBRANCH  17  19
ENDBRANCH   2  17
BRANCH   3  27
ATOM     27  O   UNL     1       2.478  12.276  17.219  0.00  0.00    +0.000 OA
ATOM     28  H   UNL     1       3.265  12.839  17.046  0.00  0.00    +0.000 HD
ENDBRANCH   3  27
BRANCH   6  29
ATOM     29  C   UNL     1       2.178  14.405  21.672  0.00  0.00    +0.000 C 
BRANCH  29  30
ATOM     30  C   UNL     1       1.057  15.339  21.976  0.00  0.00    +0.000 A 
ATOM     31  C   UNL     1       0.407  16.307  21.240  0.00  0.00    +0.000 A 
ATOM     32  C   UNL     1      -0.578  16.865  22.089  0.00  0.00    +0.000 A 
ATOM     33  C   UNL     1      -0.474  16.198  23.287  0.00  0.00    +0.000 A 
ATOM     34  O   UNL     1       0.515  15.271  23.231  0.00  0.00    +0.000 OA
ENDBRANCH  29  30
ENDBRANCH   6  29
TORSDOF 9
ENDMDL
MODEL 3
REMARK VINA RESULT:      -6.7      0.806      1.138
REMARK  Name = 
REMARK  11 active torsions:
REMARK  status: ('A' for Active; 'I' for Inactive)
REMARK    1  A    between atoms: C_1  and  O_2
REMARK    2  A    between atoms: O_2  and  C_3
REMARK    3  A    between atoms: C_3  and  C_5
REMARK    4  A    between atoms: C_8  and  C_9
REMARK    5  A    between atoms: C_10  and  C_11
REMARK    6  A    between atoms: C_11  and  C_13
REMARK    7  A    between atoms: C_16  and  O_17
REMARK    8  A    between atoms: O_17  and  C_18
REMARK    9  A    between atoms: C_21  and  O_22
REMARK   10  A    between atoms: N_25  and  C_26
REMARK   11  A    between atoms: C_26  and  C_27
REMARK                            x       y       z     vdW  Elec       q    Type
REMARK                         _______ _______ _______ _____ _____    ______ ____
ROOT
ATOM      1  C   UNL     1      -0.068  11.159  20.234  0.00  0.00    +0.000 C 
ATOM      2  C   UNL     1       0.193  10.298  21.426  0.00  0.00    +0.000 C 
ATOM      3  C   UNL     1      -0.674  10.535  22.421  0.00  0.00    +0.000 C 
ATOM      4  C   UNL     1      -1.648  11.536  21.922  0.00  0.00    +0.000 C 
ATOM      5  O   UNL     1      -2.655  11.905  22.496  0.00  0.00    +0.000 OA
ATOM      6  N   UNL     1      -1.202  11.936  20.675  0.00  0.00    +0.000 N 
ENDROOT
BRANCH   1  10
ATOM      7  C   UNL     1       3.187  13.738  18.989  0.00  0.00    +0.000 A 
ATOM      8  C   UNL     1       2.728  13.746  20.311  0.00  0.00    +0.000 A 
ATOM      9  C   UNL     1       1.689  12.901  20.700  0.00  0.00    +0.000 A 
ATOM     10  C   UNL     1       1.091  12.024  19.779  0.00  0.00    +0.000 A 
ATOM     11  C   UNL     1       1.599  11.977  18.471  0.00  0.00    +0.000 A 
ATOM     12  C   UNL     1       2.627  12.836  18.074  0.00  0.00    +0.000 A 
BRANCH   7  13
ATOM     13  C   UNL     1       4.243  14.711  18.609  0.00  0.00    +0.000 C 
ATOM     14  O   UNL     1       4.339  15.200  17.492  0.00  0.00    +0.000 OA
BRANCH  13  16
ATOM     15  C   UNL     1       5.771  16.185  19.576  0.00  0.00    +0.000 C 
ATOM     16  O   UNL     1       5.079  14.938  19.651  0.00  0.00    +0.000 OA
ENDBRANCH  13  16
ENDBRANCH   7  13
ENDBRANCH   1  10
BRANCH   2  17
ATOM     17  C   UNL     1       1.303   9.339  21.620  0.00  0.00    +0.000 C 
ATOM     18  O   UNL     1       2.006   9.432  22.627  0.00  0.00    +0.000 OA
BRANCH  17  19
ATOM     19  C   UNL     1       1.575   8.260  20.639  0.00  0.00    +0.000 A 
ATOM     20  C   UNL     1       1.937   8.615  19.332  0.00  0.00    +0.000 A 
ATOM     21  C   UNL     1       2.270   7.626  18.398  0.00  0.00    +0.000 A 
ATOM     22  C   UNL     1       2.255   6.280  18.761  0.00  0.00    +0.000 A 
ATOM     23  C   UNL     1       1.872   5.923  20.052  0.00  0.00    +0.000 A 
ATOM     24  C   UNL     1       1.569   6.908  20.994  0.00  0.00    +0.000 A 
BRANCH  22  25
ATOM     25  O   UNL     1       2.624   5.387  17.793  0.00  0.00    +0.000 OA
ATOM     26  C   UNL     1       1.895   4.161  17.798  0.00  0.00    +0.000 C 
ENDBRANCH  22  25
ENDBRANCH  17  19
ENDBRANCH   2  17
BRANCH   3  27
ATOM     27  O   UNL     1      -0.711   9.979  23.670  0.00  0.00    +0.000 OA
ATOM     28  H   UNL     1      -1.600   9.579  23.783  0.00  0.00    +0.000 HD
ENDBRANCH   3  27
BRANCH   6  29
ATOM     29  C   UNL     1      -2.026  12.713  19.765  0.00  0.00    +0.000 C 
BRANCH  29  30
ATOM     30  C   UNL     1      -2.721  11.812  18.803  0.00  0.00    +0.000 A 
ATOM     31  C   UNL     1      -2.278  10.990  17.787  0.00  0.00    +0.000 A 
ATOM     32  C   UNL     1      -3.429  10.388  17.225  0.00  0.00    +0.000 A 
ATOM     33  C   UNL     1      -4.501  10.873  17.935  0.00  0.00    +0.000 A 
ATOM     34  O   UNL     1      -4.085  11.738  18.895  0.00  0.00    +0.000 OA
ENDBRANCH  29  30
ENDBRANCH   6  29
TORSDOF 9
ENDMDL
MODEL 4
REMARK VINA RESULT:      -6.7      2.441      5.951
REMARK  Name = 
REMARK  11 active torsions:
REMARK  status: ('A' for Active; 'I' for Inactive)
REMARK    1  A    between atoms: C_1  and  O_2
REMARK    2  A    between atoms: O_2  and  C_3
REMARK    3  A    between atoms: C_3  and  C_5
REMARK    4  A    between atoms: C_8  and  C_9
REMARK    5  A    between atoms: C_10  and  C_11
REMARK    6  A    between atoms: C_11  and  C_13
REMARK    7  A    between atoms: C_16  and  O_17
REMARK    8  A    between atoms: O_17  and  C_18
REMARK    9  A    between atoms: C_21  and  O_22
REMARK   10  A    between atoms: N_25  and  C_26
REMARK   11  A    between atoms: C_26  and  C_27
REMARK                            x       y       z     vdW  Elec       q    Type
REMARK                         _______ _______ _______ _____ _____    ______ ____
ROOT
ATOM      1  C   UNL     1       1.108  12.368  20.712  0.00  0.00    +0.000 C 
ATOM      2  C   UNL     1       1.317  11.780  19.355  0.00  0.00    +0.000 C 
ATOM      3  C   UNL     1       2.042  12.583  18.562  0.00  0.00    +0.000 C 
ATOM      4  C   UNL     1       2.444  13.753  19.379  0.00  0.00    +0.000 C 
ATOM      5  O   UNL     1       3.213  14.634  19.040  0.00  0.00    +0.000 OA
ATOM      6  N   UNL     1       1.803  13.628  20.598  0.00  0.00    +0.000 N 
ENDROOT
BRANCH   1  10
ATOM      7  C   UNL     1      -3.023  12.714  21.980  0.00  0.00    +0.000 A 
ATOM      8  C   UNL     1      -2.061  12.132  22.814  0.00  0.00    +0.000 A 
ATOM      9  C   UNL     1      -0.733  12.041  22.398  0.00  0.00    +0.000 A 
ATOM     10  C   UNL     1      -0.336  12.534  21.143  0.00  0.00    +0.000 A 
ATOM     11  C   UNL     1      -1.294  13.173  20.340  0.00  0.00    +0.000 A 
ATOM     12  C   UNL     1      -2.629  13.248  20.747  0.00  0.00    +0.000 A 
BRANCH   7  13
ATOM     13  C   UNL     1      -4.436  12.718  22.440  0.00  0.00    +0.000 C 
ATOM     14  O   UNL     1      -5.362  12.277  21.774  0.00  0.00    +0.000 OA
BRANCH  13  16
ATOM     15  C   UNL     1      -5.013  14.645  23.620  0.00  0.00    +0.000 C 
ATOM     16  O   UNL     1      -4.539  13.299  23.659  0.00  0.00    +0.000 OA
ENDBRANCH  13  16
ENDBRANCH   7  13
ENDBRANCH   1  10
BRANCH   2  17
ATOM     17  C   UNL     1       0.758  10.518  18.823  0.00  0.00    +0.000 C 
ATOM     18  O   UNL     1      -0.263  10.558  18.134  0.00  0.00    +0.000 OA
BRANCH  17  19
ATOM     19  C   UNL     1       1.408   9.210  19.086  0.00  0.00    +0.000 A 
ATOM     20  C   UNL     1       1.248   8.621  20.348  0.00  0.00    +0.000 A 
ATOM     21  C   UNL     1       1.786   7.356  20.611  0.00  0.00    +0.000 A 
ATOM     22  C   UNL     1       2.479   6.664  19.617  0.00  0.00    +0.000 A 
ATOM     23  C   UNL     1       2.662   7.258  18.370  0.00  0.00    +0.000 A 
ATOM     24  C   UNL     1       2.099   8.506  18.096  0.00  0.00    +0.000 A 
BRANCH  22  25
ATOM     25  O   UNL     1       2.943   5.423  19.954  0.00  0.00    +0.000 OA
ATOM     26  C   UNL     1       2.140   4.720  20.900  0.00  0.00    +0.000 C 
ENDBRANCH  22  25
ENDBRANCH  17  19
ENDBRANCH   2  17
BRANCH   3  27
ATOM     27  O   UNL     1       2.386  12.401  17.251  0.00  0.00    +0.000 OA
ATOM     28  H   UNL     1       3.059  11.687  17.225  0.00  0.00    +0.000 HD
ENDBRANCH   3  27
BRANCH   6  29
ATOM     29  C   UNL     1       2.150  14.443  21.749  0.00  0.00    +0.000 C 
BRANCH  29  30
ATOM     30  C   UNL     1       1.198  15.582  21.880  0.00  0.00    +0.000 A 
ATOM     31  C   UNL     1       0.067  15.787  22.644  0.00  0.00    +0.000 A 
ATOM     32  C   UNL     1      -0.410  17.079  22.319  0.00  0.00    +0.000 A 
ATOM     33  C   UNL     1       0.461  17.586  21.385  0.00  0.00    +0.000 A 
ATOM     34  O   UNL     1       1.441  16.687  21.109  0.00  0.00    +0.000 OA
ENDBRANCH  29  30
ENDBRANCH   6  29
TORSDOF 9
ENDMDL
MODEL 5
REMARK VINA RESULT:      -6.7      2.440      5.950
REMARK  Name = 
REMARK  11 active torsions:
REMARK  status: ('A' for Active; 'I' for Inactive)
REMARK    1  A    between atoms: C_1  and  O_2
REMARK    2  A    between atoms: O_2  and  C_3
REMARK    3  A    between atoms: C_3  and  C_5
REMARK    4  A    between atoms: C_8  and  C_9
REMARK    5  A    between atoms: C_10  and  C_11
REMARK    6  A    between atoms: C_11  and  C_13
REMARK    7  A    between atoms: C_16  and  O_17
REMARK    8  A    between atoms: O_17  and  C_18
REMARK    9  A    between atoms: C_21  and  O_22
REMARK   10  A    between atoms: N_25  and  C_26
REMARK   11  A    between atoms: C_26  and  C_27
REMARK                            x       y       z     vdW  Elec       q    Type
REMARK                         _______ _______ _______ _____ _____    ______ ____
ROOT
ATOM      1  C   UNL     1       1.078  12.365  20.662  0.00  0.00    +0.000 C 
ATOM      2  C   UNL     1       1.300  11.754  19.316  0.00  0.00    +0.000 C 
ATOM      3  C   UNL     1       2.075  12.520  18.535  0.00  0.00    +0.000 C 
ATOM      4  C   UNL     1       2.502  13.683  19.350  0.00  0.00    +0.000 C 
ATOM      5  O   UNL     1       3.312  14.529  19.023  0.00  0.00    +0.000 OA
ATOM      6  N   UNL     1       1.824  13.596  20.553  0.00  0.00    +0.000 N 
ENDROOT
BRANCH   1  10
ATOM      7  C   UNL     1      -3.069  12.883  21.812  0.00  0.00    +0.000 A 
ATOM      8  C   UNL     1      -2.161  12.246  22.665  0.00  0.00    +0.000 A 
ATOM      9  C   UNL     1      -0.826  12.099  22.287  0.00  0.00    +0.000 A 
ATOM     10  C   UNL     1      -0.369  12.591  21.052  0.00  0.00    +0.000 A 
ATOM     11  C   UNL     1      -1.273  13.284  20.232  0.00  0.00    +0.000 A 
ATOM     12  C   UNL     1      -2.615  13.416  20.600  0.00  0.00    +0.000 A 
BRANCH   7  13
ATOM     13  C   UNL     1      -4.494  12.945  22.230  0.00  0.00    +0.000 C 
ATOM     14  O   UNL     1      -5.363  13.509  21.579  0.00  0.00    +0.000 OA
BRANCH  13  16
ATOM     15  C   UNL     1      -5.851  12.733  24.116  0.00  0.00    +0.000 C 
ATOM     16  O   UNL     1      -4.668  12.330  23.424  0.00  0.00    +0.000 OA
ENDBRANCH  13  16
ENDBRANCH   7  13
ENDBRANCH   1  10
BRANCH   2  17
ATOM     17  C   UNL     1       0.706  10.509  18.782  0.00  0.00    +0.000 C 
ATOM     18  O   UNL     1      -0.304  10.580  18.081  0.00  0.00    +0.000 OA
BRANCH  17  19
ATOM     19  C   UNL     1       1.310   9.182  19.058  0.00  0.00    +0.000 A 
ATOM     20  C   UNL     1       2.035   8.548  18.039  0.00  0.00    +0.000 A 
ATOM     21  C   UNL     1       2.679   7.328  18.284  0.00  0.00    +0.000 A 
ATOM     22  C   UNL     1       2.613   6.737  19.546  0.00  0.00    +0.000 A 
ATOM     23  C   UNL     1       1.873   7.353  20.553  0.00  0.00    +0.000 A 
ATOM     24  C   UNL     1       1.256   8.585  20.320  0.00  0.00    +0.000 A 
BRANCH  22  25
ATOM     25  O   UNL     1       3.297   5.563  19.701  0.00  0.00    +0.000 OA
ATOM     26  C   UNL     1       3.894   5.056  18.508  0.00  0.00    +0.000 C 
ENDBRANCH  22  25
ENDBRANCH  17  19
ENDBRANCH   2  17
BRANCH   3  27
ATOM     27  O   UNL     1       2.446  12.311  17.235  0.00  0.00    +0.000 OA
ATOM     28  H   UNL     1       3.208  12.903  17.053  0.00  0.00    +0.000 HD
ENDBRANCH   3  27
BRANCH   6  29
ATOM     29  C   UNL     1       2.172  14.410  21.704  0.00  0.00    +0.000 C 
BRANCH  29  30
ATOM     30  C   UNL     1       1.089  15.394  21.987  0.00  0.00    +0.000 A 
ATOM     31  C   UNL     1       0.534  16.426  21.258  0.00  0.00    +0.000 A 
ATOM     32  C   UNL     1      -0.465  17.005  22.076  0.00  0.00    +0.000 A 
ATOM     33  C   UNL     1      -0.464  16.288  23.249  0.00  0.00    +0.000 A 
ATOM     34  O   UNL     1       0.476  15.308  23.208  0.00  0.00    +0.000 OA
ENDBRANCH  29  30
ENDBRANCH   6  29
TORSDOF 9
ENDMDL
MODEL 6
REMARK VINA RESULT:      -6.6      2.439      5.819
REMARK  Name = 
REMARK  11 active torsions:
REMARK  status: ('A' for Active; 'I' for Inactive)
REMARK    1  A    between atoms: C_1  and  O_2
REMARK    2  A    between atoms: O_2  and  C_3
REMARK    3  A    between atoms: C_3  and  C_5
REMARK    4  A    between atoms: C_8  and  C_9
REMARK    5  A    between atoms: C_10  and  C_11
REMARK    6  A    between atoms: C_11  and  C_13
REMARK    7  A    between atoms: C_16  and  O_17
REMARK    8  A    between atoms: O_17  and  C_18
REMARK    9  A    between atoms: C_21  and  O_22
REMARK   10  A    between atoms: N_25  and  C_26
REMARK   11  A    between atoms: C_26  and  C_27
REMARK                            x       y       z     vdW  Elec       q    Type
REMARK                         _______ _______ _______ _____ _____    ______ ____
ROOT
ATOM      1  C   UNL     1       1.094  12.259  20.660  0.00  0.00    +0.000 C 
ATOM      2  C   UNL     1       1.343  11.649  19.319  0.00  0.00    +0.000 C 
ATOM      3  C   UNL     1       2.082  12.444  18.531  0.00  0.00    +0.000 C 
ATOM      4  C   UNL     1       2.455  13.631  19.338  0.00  0.00    +0.000 C 
ATOM      5  O   UNL     1       3.227  14.511  19.003  0.00  0.00    +0.000 OA
ATOM      6  N   UNL     1       1.783  13.522  20.542  0.00  0.00    +0.000 N 
ENDROOT
BRANCH   1  10
ATOM      7  C   UNL     1      -3.060  12.856  21.745  0.00  0.00    +0.000 A 
ATOM      8  C   UNL     1      -2.561  13.326  20.525  0.00  0.00    +0.000 A 
ATOM      9  C   UNL     1      -1.225  13.114  20.184  0.00  0.00    +0.000 A 
ATOM     10  C   UNL     1      -0.361  12.422  21.050  0.00  0.00    +0.000 A 
ATOM     11  C   UNL     1      -0.887  11.899  22.242  0.00  0.00    +0.000 A 
ATOM     12  C   UNL     1      -2.220  12.126  22.595  0.00  0.00    +0.000 A 
BRANCH   7  13
ATOM     13  C   UNL     1      -4.469  13.174  22.092  0.00  0.00    +0.000 C 
ATOM     14  O   UNL     1      -5.319  12.321  22.307  0.00  0.00    +0.000 OA
BRANCH  13  16
ATOM     15  C   UNL     1      -4.380  15.135  23.353  0.00  0.00    +0.000 C 
ATOM     16  O   UNL     1      -4.668  14.514  22.100  0.00  0.00    +0.000 OA
ENDBRANCH  13  16
ENDBRANCH   7  13
ENDBRANCH   1  10
BRANCH   2  17
ATOM     17  C   UNL     1       0.806  10.375  18.795  0.00  0.00    +0.000 C 
ATOM     18  O   UNL     1      -0.291  10.371  18.234  0.00  0.00    +0.000 OA
BRANCH  17  19
ATOM     19  C   UNL     1       1.566   9.105  18.915  0.00  0.00    +0.000 A 
ATOM     20  C   UNL     1       1.452   8.362  20.098  0.00  0.00    +0.000 A 
ATOM     21  C   UNL     1       2.097   7.125  20.221  0.00  0.00    +0.000 A 
ATOM     22  C   UNL     1       2.853   6.617  19.164  0.00  0.00    +0.000 A 
ATOM     23  C   UNL     1       2.988   7.365  17.997  0.00  0.00    +0.000 A 
ATOM     24  C   UNL     1       2.320   8.584  17.860  0.00  0.00    +0.000 A 
BRANCH  22  25
ATOM     25  O   UNL     1       3.421   5.389  19.363  0.00  0.00    +0.000 OA
ATOM     26  C   UNL     1       2.651   4.287  18.884  0.00  0.00    +0.000 C 
ENDBRANCH  22  25
ENDBRANCH  17  19
ENDBRANCH   2  17
BRANCH   3  27
ATOM     27  O   UNL     1       2.461  12.242  17.233  0.00  0.00    +0.000 OA
ATOM     28  H   UNL     1       3.319  11.765  17.253  0.00  0.00    +0.000 HD
ENDBRANCH   3  27
BRANCH   6  29
ATOM     29  C   UNL     1       2.095  14.360  21.687  0.00  0.00    +0.000 C 
BRANCH  29  30
ATOM     30  C   UNL     1       0.958  15.278  21.979  0.00  0.00    +0.000 A 
ATOM     31  C   UNL     1       0.396  16.335  21.293  0.00  0.00    +0.000 A 
ATOM     32  C   UNL     1      -0.666  16.816  22.095  0.00  0.00    +0.000 A 
ATOM     33  C   UNL     1      -0.691  16.021  23.216  0.00  0.00    +0.000 A 
ATOM     34  O   UNL     1       0.290  15.085  23.158  0.00  0.00    +0.000 OA
ENDBRANCH  29  30
ENDBRANCH   6  29
TORSDOF 9
ENDMDL
MODEL 7
REMARK VINA RESULT:      -6.6      0.697      1.206
REMARK  Name = 
REMARK  11 active torsions:
REMARK  status: ('A' for Active; 'I' for Inactive)
REMARK    1  A    between atoms: C_1  and  O_2
REMARK    2  A    between atoms: O_2  and  C_3
REMARK    3  A    between atoms: C_3  and  C_5
REMARK    4  A    between atoms: C_8  and  C_9
REMARK    5  A    between atoms: C_10  and  C_11
REMARK    6  A    between atoms: C_11  and  C_13
REMARK    7  A    between atoms: C_16  and  O_17
REMARK    8  A    between atoms: O_17  and  C_18
REMARK    9  A    between atoms: C_21  and  O_22
REMARK   10  A    between atoms: N_25  and  C_26
REMARK   11  A    between atoms: C_26  and  C_27
REMARK                            x       y       z     vdW  Elec       q    Type
REMARK                         _______ _______ _______ _____ _____    ______ ____
ROOT
ATOM      1  C   UNL     1      -0.015  11.282  20.148  0.00  0.00    +0.000 C 
ATOM      2  C   UNL     1       0.172  10.383  21.327  0.00  0.00    +0.000 C 
ATOM      3  C   UNL     1      -0.759  10.586  22.270  0.00  0.00    +0.000 C 
ATOM      4  C   UNL     1      -1.702  11.601  21.741  0.00  0.00    +0.000 C 
ATOM      5  O   UNL     1      -2.745  11.950  22.261  0.00  0.00    +0.000 OA
ATOM      6  N   UNL     1      -1.177  12.043  20.540  0.00  0.00    +0.000 N 
ENDROOT
BRANCH   1  10
ATOM      7  C   UNL     1       3.310  13.902  19.211  0.00  0.00    +0.000 A 
ATOM      8  C   UNL     1       2.824  13.797  20.519  0.00  0.00    +0.000 A 
ATOM      9  C   UNL     1       1.763  12.940  20.808  0.00  0.00    +0.000 A 
ATOM     10  C   UNL     1       1.168  12.163  19.798  0.00  0.00    +0.000 A 
ATOM     11  C   UNL     1       1.704  12.227  18.502  0.00  0.00    +0.000 A 
ATOM     12  C   UNL     1       2.755  13.099  18.207  0.00  0.00    +0.000 A 
BRANCH   7  13
ATOM     13  C   UNL     1       4.391  14.885  18.944  0.00  0.00    +0.000 C 
ATOM     14  O   UNL     1       4.637  15.832  19.680  0.00  0.00    +0.000 OA
BRANCH  13  16
ATOM     15  C   UNL     1       6.441  14.708  17.846  0.00  0.00    +0.000 C 
ATOM     16  O   UNL     1       5.019  14.600  17.778  0.00  0.00    +0.000 OA
ENDBRANCH  13  16
ENDBRANCH   7  13
ENDBRANCH   1  10
BRANCH   2  17
ATOM     17  C   UNL     1       1.269   9.420  21.561  0.00  0.00    +0.000 C 
ATOM     18  O   UNL     1       1.865   9.440  22.639  0.00  0.00    +0.000 OA
BRANCH  17  19
ATOM     19  C   UNL     1       1.657   8.421  20.534  0.00  0.00    +0.000 A 
ATOM     20  C   UNL     1       1.746   7.072  20.908  0.00  0.00    +0.000 A 
ATOM     21  C   UNL     1       2.039   6.092  19.951  0.00  0.00    +0.000 A 
ATOM     22  C   UNL     1       2.235   6.446  18.616  0.00  0.00    +0.000 A 
ATOM     23  C   UNL     1       2.171   7.788  18.247  0.00  0.00    +0.000 A 
ATOM     24  C   UNL     1       1.848   8.764  19.193  0.00  0.00    +0.000 A 
BRANCH  22  25
ATOM     25  O   UNL     1       2.487   5.420  17.748  0.00  0.00    +0.000 OA
ATOM     26  C   UNL     1       1.628   4.290  17.893  0.00  0.00    +0.000 C 
ENDBRANCH  22  25
ENDBRANCH  17  19
ENDBRANCH   2  17
BRANCH   3  27
ATOM     27  O   UNL     1      -0.875   9.990  23.495  0.00  0.00    +0.000 OA
ATOM     28  H   UNL     1       0.036   9.849  23.836  0.00  0.00    +0.000 HD
ENDBRANCH   3  27
BRANCH   6  29
ATOM     29  C   UNL     1      -1.944  12.848  19.604  0.00  0.00    +0.000 C 
BRANCH  29  30
ATOM     30  C   UNL     1      -2.541  11.982  18.549  0.00  0.00    +0.000 A 
ATOM     31  C   UNL     1      -3.726  11.280  18.460  0.00  0.00    +0.000 A 
ATOM     32  C   UNL     1      -3.720  10.638  17.199  0.00  0.00    +0.000 A 
ATOM     33  C   UNL     1      -2.538  10.991  16.594  0.00  0.00    +0.000 A 
ATOM     34  O   UNL     1      -1.813  11.806  17.404  0.00  0.00    +0.000 OA
ENDBRANCH  29  30
ENDBRANCH   6  29
TORSDOF 9
ENDMDL
MODEL 8
REMARK VINA RESULT:      -6.5      2.711      5.374
REMARK  Name = 
REMARK  11 active torsions:
REMARK  status: ('A' for Active; 'I' for Inactive)
REMARK    1  A    between atoms: C_1  and  O_2
REMARK    2  A    between atoms: O_2  and  C_3
REMARK    3  A    between atoms: C_3  and  C_5
REMARK    4  A    between atoms: C_8  and  C_9
REMARK    5  A    between atoms: C_10  and  C_11
REMARK    6  A    between atoms: C_11  and  C_13
REMARK    7  A    between atoms: C_16  and  O_17
REMARK    8  A    between atoms: O_17  and  C_18
REMARK    9  A    between atoms: C_21  and  O_22
REMARK   10  A    between atoms: N_25  and  C_26
REMARK   11  A    between atoms: C_26  and  C_27
REMARK                            x       y       z     vdW  Elec       q    Type
REMARK                         _______ _______ _______ _____ _____    ______ ____
ROOT
ATOM      1  C   UNL     1      -2.259  11.521  19.520  0.00  0.00    +0.000 C 
ATOM      2  C   UNL     1      -1.015  12.309  19.774  0.00  0.00    +0.000 C 
ATOM      3  C   UNL     1      -1.281  13.528  20.266  0.00  0.00    +0.000 C 
ATOM      4  C   UNL     1      -2.750  13.611  20.455  0.00  0.00    +0.000 C 
ATOM      5  O   UNL     1      -3.353  14.517  20.999  0.00  0.00    +0.000 OA
ATOM      6  N   UNL     1      -3.285  12.452  19.923  0.00  0.00    +0.000 N 
ENDROOT
BRANCH   1  10
ATOM      7  C   UNL     1      -2.876  10.205  15.436  0.00  0.00    +0.000 A 
ATOM      8  C   UNL     1      -2.551  11.536  15.721  0.00  0.00    +0.000 A 
ATOM      9  C   UNL     1      -2.341  11.941  17.039  0.00  0.00    +0.000 A 
ATOM     10  C   UNL     1      -2.445  11.025  18.100  0.00  0.00    +0.000 A 
ATOM     11  C   UNL     1      -2.710   9.679  17.799  0.00  0.00    +0.000 A 
ATOM     12  C   UNL     1      -2.939   9.275  16.481  0.00  0.00    +0.000 A 
BRANCH   7  13
ATOM     13  C   UNL     1      -3.163   9.843  14.024  0.00  0.00    +0.000 C 
ATOM     14  O   UNL     1      -2.291   9.604  13.199  0.00  0.00    +0.000 OA
BRANCH  13  16
ATOM     15  C   UNL     1      -4.845   9.700  12.413  0.00  0.00    +0.000 C 
ATOM     16  O   UNL     1      -4.497   9.852  13.790  0.00  0.00    +0.000 OA
ENDBRANCH  13  16
ENDBRANCH   7  13
ENDBRANCH   1  10
BRANCH   2  17
ATOM     17  C   UNL     1       0.378  11.920  19.467  0.00  0.00    +0.000 C 
ATOM     18  O   UNL     1       1.187  12.791  19.143  0.00  0.00    +0.000 OA
BRANCH  17  19
ATOM     19  C   UNL     1       0.826  10.507  19.558  0.00  0.00    +0.000 A 
ATOM     20  C   UNL     1       1.388   9.906  18.423  0.00  0.00    +0.000 A 
ATOM     21  C   UNL     1       1.887   8.599  18.490  0.00  0.00    +0.000 A 
ATOM     22  C   UNL     1       1.837   7.886  19.688  0.00  0.00    +0.000 A 
ATOM     23  C   UNL     1       1.257   8.473  20.811  0.00  0.00    +0.000 A 
ATOM     24  C   UNL     1       0.787   9.787  20.755  0.00  0.00    +0.000 A 
BRANCH  22  25
ATOM     25  O   UNL     1       2.375   6.629  19.667  0.00  0.00    +0.000 OA
ATOM     26  C   UNL     1       2.728   6.150  18.371  0.00  0.00    +0.000 C 
ENDBRANCH  22  25
ENDBRANCH  17  19
ENDBRANCH   2  17
BRANCH   3  27
ATOM     27  O   UNL     1      -0.406  14.535  20.568  0.00  0.00    +0.000 OA
ATOM     28  H   UNL     1      -0.942  15.329  20.782  0.00  0.00    +0.000 HD
ENDBRANCH   3  27
BRANCH   6  29
ATOM     29  C   UNL     1      -4.664  12.054  20.152  0.00  0.00    +0.000 C 
BRANCH  29  30
ATOM     30  C   UNL     1      -5.522  12.492  19.016  0.00  0.00    +0.000 A 
ATOM     31  C   UNL     1      -5.943  11.875  17.856  0.00  0.00    +0.000 A 
ATOM     32  C   UNL     1      -6.746  12.815  17.168  0.00  0.00    +0.000 A 
ATOM     33  C   UNL     1      -6.772  13.944  17.952  0.00  0.00    +0.000 A 
ATOM     34  O   UNL     1      -6.032  13.760  19.076  0.00  0.00    +0.000 OA
ENDBRANCH  29  30
ENDBRANCH   6  29
TORSDOF 9
ENDMDL
MODEL 9
REMARK VINA RESULT:      -6.5      3.300      7.601
REMARK  Name = 
REMARK  11 active torsions:
REMARK  status: ('A' for Active; 'I' for Inactive)
REMARK    1  A    between atoms: C_1  and  O_2
REMARK    2  A    between atoms: O_2  and  C_3
REMARK    3  A    between atoms: C_3  and  C_5
REMARK    4  A    between atoms: C_8  and  C_9
REMARK    5  A    between atoms: C_10  and  C_11
REMARK    6  A    between atoms: C_11  and  C_13
REMARK    7  A    between atoms: C_16  and  O_17
REMARK    8  A    between atoms: O_17  and  C_18
REMARK    9  A    between atoms: C_21  and  O_22
REMARK   10  A    between atoms: N_25  and  C_26
REMARK   11  A    between atoms: C_26  and  C_27
REMARK                            x       y       z     vdW  Elec       q    Type
REMARK                         _______ _______ _______ _____ _____    ______ ____
ROOT
ATOM      1  C   UNL     1      -1.286  12.428  19.181  0.00  0.00    +0.000 C 
ATOM      2  C   UNL     1      -0.071  13.298  19.179  0.00  0.00    +0.000 C 
ATOM      3  C   UNL     1       1.052  12.598  18.965  0.00  0.00    +0.000 C 
ATOM      4  C   UNL     1       0.650  11.191  18.724  0.00  0.00    +0.000 C 
ATOM      5  O   UNL     1       1.382  10.286  18.371  0.00  0.00    +0.000 OA
ATOM      6  N   UNL     1      -0.714  11.123  18.949  0.00  0.00    +0.000 N 
ENDROOT
BRANCH   1  10
ATOM      7  C   UNL     1      -3.743  12.699  22.743  0.00  0.00    +0.000 A 
ATOM      8  C   UNL     1      -4.267  13.006  21.482  0.00  0.00    +0.000 A 
ATOM      9  C   UNL     1      -3.468  12.901  20.344  0.00  0.00    +0.000 A 
ATOM     10  C   UNL     1      -2.130  12.480  20.439  0.00  0.00    +0.000 A 
ATOM     11  C   UNL     1      -1.632  12.113  21.699  0.00  0.00    +0.000 A 
ATOM     12  C   UNL     1      -2.425  12.236  22.843  0.00  0.00    +0.000 A 
BRANCH   7  13
ATOM     13  C   UNL     1      -4.613  12.901  23.930  0.00  0.00    +0.000 C 
ATOM     14  O   UNL     1      -5.394  12.055  24.344  0.00  0.00    +0.000 OA
BRANCH  13  16
ATOM     15  C   UNL     1      -5.365  15.109  23.951  0.00  0.00    +0.000 C 
ATOM     16  O   UNL     1      -4.438  14.141  24.445  0.00  0.00    +0.000 OA
ENDBRANCH  13  16
ENDBRANCH   7  13
ENDBRANCH   1  10
BRANCH   2  17
ATOM     17  C   UNL     1      -0.000  14.748  19.459  0.00  0.00    +0.000 C 
ATOM     18  O   UNL     1       0.450  15.505  18.597  0.00  0.00    +0.000 OA
BRANCH  17  19
ATOM     19  C   UNL     1      -0.475  15.313  20.748  0.00  0.00    +0.000 A 
ATOM     20  C   UNL     1      -1.712  15.971  20.779  0.00  0.00    +0.000 A 
ATOM     21  C   UNL     1      -2.225  16.454  21.989  0.00  0.00    +0.000 A 
ATOM     22  C   UNL     1      -1.515  16.277  23.176  0.00  0.00    +0.000 A 
ATOM     23  C   UNL     1      -0.273  15.645  23.144  0.00  0.00    +0.000 A 
ATOM     24  C   UNL     1       0.226  15.135  21.944  0.00  0.00    +0.000 A 
BRANCH  22  25
ATOM     25  O   UNL     1      -2.107  16.754  24.313  0.00  0.00    +0.000 OA
ATOM     26  C   UNL     1      -1.699  16.108  25.518  0.00  0.00    +0.000 C 
ENDBRANCH  22  25
ENDBRANCH  17  19
ENDBRANCH   2  17
BRANCH   3  27
ATOM     27  O   UNL     1       2.345  13.045  18.947  0.00  0.00    +0.000 OA
ATOM     28  H   UNL     1       2.373  13.823  18.349  0.00  0.00    +0.000 HD
ENDBRANCH   3  27
BRANCH   6  29
ATOM     29  C   UNL     1      -1.511   9.971  18.564  0.00  0.00    +0.000 C 
BRANCH  29  30
ATOM     30  C   UNL     1      -2.509  10.358  17.528  0.00  0.00    +0.000 A 
ATOM     31  C   UNL     1      -3.869  10.591  17.565  0.00  0.00    +0.000 A 
ATOM     32  C   UNL     1      -4.256  10.921  16.244  0.00  0.00    +0.000 A 
ATOM     33  C   UNL     1      -3.111  10.876  15.485  0.00  0.00    +0.000 A 
ATOM     34  O   UNL     1      -2.044  10.535  16.253  0.00  0.00    +0.000 OA
ENDBRANCH  29  30
ENDBRANCH   6  29
TORSDOF 9
ENDMDL
