MODEL 1
REMARK VINA RESULT:      -7.5      0.000      0.000
REMARK  Name = 
REMARK  5 active torsions:
REMARK  status: ('A' for Active; 'I' for Inactive)
REMARK    1  A    between atoms: C_2  and  C_3
REMARK    2  A    between atoms: C_3  and  N_4
REMARK    3  A    between atoms: C_5  and  C_7
REMARK    4  A    between atoms: N_12  and  N_13
REMARK    5  A    between atoms: C_14  and  C_15
REMARK                            x       y       z     vdW  Elec       q    Type
REMARK                         _______ _______ _______ _____ _____    ______ ____
ROOT
ATOM      1  O   UNL     1       8.245   5.352  19.726  0.00  0.00    +0.000 OA
ATOM      2  C   UNL     1       7.743   5.670  18.647  0.00  0.00    +0.000 C 
ATOM      3  N   UNL     1       7.738   6.946  18.101  0.00  0.00    +0.000 N 
ATOM      4  H   UNL     1       7.110   7.161  17.329  0.00  0.00    +0.000 HD
ENDROOT
BRANCH   3   5
ATOM      5  N   UNL     1       8.424   7.949  18.723  0.00  0.00    +0.000 NA
ATOM      6  C   UNL     1       8.431   9.092  18.117  0.00  0.00    +0.000 C 
BRANCH   6   7
ATOM      7  C   UNL     1       9.125  10.267  18.691  0.00  0.00    +0.000 A 
ATOM      8  C   UNL     1       9.210  10.439  20.077  0.00  0.00    +0.000 A 
ATOM      9  C   UNL     1       9.849  11.564  20.602  0.00  0.00    +0.000 A 
ATOM     10  C   UNL     1      10.403  12.516  19.744  0.00  0.00    +0.000 A 
ATOM     11  C   UNL     1      10.318  12.333  18.363  0.00  0.00    +0.000 A 
ATOM     12 BR   UNL     1      11.067  13.628  17.205  0.00  0.00    +0.000 Br
ATOM     13  C   UNL     1       9.686  11.212  17.828  0.00  0.00    +0.000 A 
ENDBRANCH   6   7
ENDBRANCH   3   5
BRANCH   2  14
ATOM     14  C   UNL     1       6.981   4.655  17.799  0.00  0.00    +0.000 C 
BRANCH  14  15
ATOM     15  N   UNL     1       5.830   4.132  18.500  0.00  0.00    +0.000 N 
ATOM     16  C   UNL     1       4.623   4.793  18.517  0.00  0.00    +0.000 C 
ATOM     17  O   UNL     1       4.493   5.870  17.933  0.00  0.00    +0.000 OA
ATOM     18  H   UNL     1       5.950   3.332  19.111  0.00  0.00    +0.000 HD
BRANCH  16  19
ATOM     19  C   UNL     1       3.543   4.141  19.250  0.00  0.00    +0.000 A 
ATOM     20  C   UNL     1       3.109   2.834  19.109  0.00  0.00    +0.000 A 
ATOM     21  C   UNL     1       2.034   2.508  19.987  0.00  0.00    +0.000 A 
ATOM     22  C   UNL     1       1.674   3.581  20.775  0.00  0.00    +0.000 A 
ATOM     23  S   UNL     1       2.632   4.958  20.456  0.00  0.00    +0.000 S 
ENDBRANCH  16  19
ENDBRANCH  14  15
ENDBRANCH   2  14
TORSDOF 5
ENDMDL
MODEL 2
REMARK VINA RESULT:      -7.4      1.408      1.496
REMARK  Name = 
REMARK  5 active torsions:
REMARK  status: ('A' for Active; 'I' for Inactive)
REMARK    1  A    between atoms: C_2  and  C_3
REMARK    2  A    between atoms: C_3  and  N_4
REMARK    3  A    between atoms: C_5  and  C_7
REMARK    4  A    between atoms: N_12  and  N_13
REMARK    5  A    between atoms: C_14  and  C_15
REMARK                            x       y       z     vdW  Elec       q    Type
REMARK                         _______ _______ _______ _____ _____    ______ ____
ROOT
ATOM      1  O   UNL     1       7.661   5.558  19.690  0.00  0.00    +0.000 OA
ATOM      2  C   UNL     1       7.613   5.777  18.479  0.00  0.00    +0.000 C 
ATOM      3  N   UNL     1       7.884   6.990  17.864  0.00  0.00    +0.000 N 
ATOM      4  H   UNL     1       7.599   7.140  16.898  0.00  0.00    +0.000 HD
ENDROOT
BRANCH   3   5
ATOM      5  N   UNL     1       8.349   8.035  18.608  0.00  0.00    +0.000 NA
ATOM      6  C   UNL     1       8.434   9.173  17.998  0.00  0.00    +0.000 C 
BRANCH   6   7
ATOM      7  C   UNL     1       8.909  10.390  18.694  0.00  0.00    +0.000 A 
ATOM      8  C   UNL     1       9.501  10.304  19.960  0.00  0.00    +0.000 A 
ATOM      9  C   UNL     1       9.923  11.463  20.612  0.00  0.00    +0.000 A 
ATOM     10  C   UNL     1       9.755  12.708  20.003  0.00  0.00    +0.000 A 
ATOM     11  C   UNL     1       9.168  12.784  18.739  0.00  0.00    +0.000 A 
ATOM     12 BR   UNL     1       8.939  14.474  17.919  0.00  0.00    +0.000 Br
ATOM     13  C   UNL     1       8.746  11.632  18.076  0.00  0.00    +0.000 A 
ENDBRANCH   6   7
ENDBRANCH   3   5
BRANCH   2  14
ATOM     14  C   UNL     1       7.160   4.698  17.498  0.00  0.00    +0.000 C 
BRANCH  14  15
ATOM     15  N   UNL     1       5.875   4.147  17.869  0.00  0.00    +0.000 N 
ATOM     16  C   UNL     1       4.710   4.528  17.243  0.00  0.00    +0.000 C 
ATOM     17  O   UNL     1       4.730   5.369  16.343  0.00  0.00    +0.000 OA
ATOM     18  H   UNL     1       5.810   3.573  18.701  0.00  0.00    +0.000 HD
BRANCH  16  19
ATOM     19  C   UNL     1       3.489   3.877  17.707  0.00  0.00    +0.000 A 
ATOM     20  C   UNL     1       2.237   4.451  17.843  0.00  0.00    +0.000 A 
ATOM     21  C   UNL     1       1.254   3.532  18.315  0.00  0.00    +0.000 A 
ATOM     22  C   UNL     1       1.786   2.279  18.530  0.00  0.00    +0.000 A 
ATOM     23  S   UNL     1       3.451   2.219  18.158  0.00  0.00    +0.000 S 
ENDBRANCH  16  19
ENDBRANCH  14  15
ENDBRANCH   2  14
TORSDOF 5
ENDMDL
MODEL 3
REMARK VINA RESULT:      -7.4      1.114      1.266
REMARK  Name = 
REMARK  5 active torsions:
REMARK  status: ('A' for Active; 'I' for Inactive)
REMARK    1  A    between atoms: C_2  and  C_3
REMARK    2  A    between atoms: C_3  and  N_4
REMARK    3  A    between atoms: C_5  and  C_7
REMARK    4  A    between atoms: N_12  and  N_13
REMARK    5  A    between atoms: C_14  and  C_15
REMARK                            x       y       z     vdW  Elec       q    Type
REMARK                         _______ _______ _______ _____ _____    ______ ____
ROOT
ATOM      1  O   UNL     1       7.863   5.995  18.852  0.00  0.00    +0.000 OA
ATOM      2  C   UNL     1       7.221   6.522  17.944  0.00  0.00    +0.000 C 
ATOM      3  N   UNL     1       7.432   7.797  17.437  0.00  0.00    +0.000 N 
ATOM      4  H   UNL     1       6.718   8.232  16.855  0.00  0.00    +0.000 HD
ENDROOT
BRANCH   3   5
ATOM      5  N   UNL     1       8.495   8.531  17.877  0.00  0.00    +0.000 NA
ATOM      6  C   UNL     1       8.243   9.759  18.197  0.00  0.00    +0.000 C 
BRANCH   6   7
ATOM      7  C   UNL     1       9.303  10.659  18.703  0.00  0.00    +0.000 A 
ATOM      8  C   UNL     1       9.532  10.791  20.078  0.00  0.00    +0.000 A 
ATOM      9  C   UNL     1      10.522  11.661  20.539  0.00  0.00    +0.000 A 
ATOM     10  C   UNL     1      11.283  12.397  19.630  0.00  0.00    +0.000 A 
ATOM     11  C   UNL     1      11.053  12.255  18.261  0.00  0.00    +0.000 A 
ATOM     12 BR   UNL     1      12.085  13.258  17.033  0.00  0.00    +0.000 Br
ATOM     13  C   UNL     1      10.069  11.386  17.788  0.00  0.00    +0.000 A 
ENDBRANCH   6   7
ENDBRANCH   3   5
BRANCH   2  14
ATOM     14  C   UNL     1       6.028   5.815  17.304  0.00  0.00    +0.000 C 
BRANCH  14  15
ATOM     15  N   UNL     1       5.243   5.100  18.286  0.00  0.00    +0.000 N 
ATOM     16  C   UNL     1       3.880   5.263  18.389  0.00  0.00    +0.000 C 
ATOM     17  O   UNL     1       3.286   6.042  17.643  0.00  0.00    +0.000 OA
ATOM     18  H   UNL     1       5.723   4.575  19.007  0.00  0.00    +0.000 HD
BRANCH  16  19
ATOM     19  C   UNL     1       3.214   4.465  19.414  0.00  0.00    +0.000 A 
ATOM     20  C   UNL     1       2.491   4.934  20.497  0.00  0.00    +0.000 A 
ATOM     21  C   UNL     1       1.960   3.885  21.304  0.00  0.00    +0.000 A 
ATOM     22  C   UNL     1       2.298   2.641  20.815  0.00  0.00    +0.000 A 
ATOM     23  S   UNL     1       3.239   2.748  19.394  0.00  0.00    +0.000 S 
ENDBRANCH  16  19
ENDBRANCH  14  15
ENDBRANCH   2  14
TORSDOF 5
ENDMDL
MODEL 4
REMARK VINA RESULT:      -7.4      1.185      1.369
REMARK  Name = 
REMARK  5 active torsions:
REMARK  status: ('A' for Active; 'I' for Inactive)
REMARK    1  A    between atoms: C_2  and  C_3
REMARK    2  A    between atoms: C_3  and  N_4
REMARK    3  A    between atoms: C_5  and  C_7
REMARK    4  A    between atoms: N_12  and  N_13
REMARK    5  A    between atoms: C_14  and  C_15
REMARK                            x       y       z     vdW  Elec       q    Type
REMARK                         _______ _______ _______ _____ _____    ______ ____
ROOT
ATOM      1  O   UNL     1       7.689   5.830  19.022  0.00  0.00    +0.000 OA
ATOM      2  C   UNL     1       7.203   6.337  18.010  0.00  0.00    +0.000 C 
ATOM      3  N   UNL     1       7.458   7.619  17.544  0.00  0.00    +0.000 N 
ATOM      4  H   UNL     1       6.846   8.030  16.841  0.00  0.00    +0.000 HD
ENDROOT
BRANCH   3   5
ATOM      5  N   UNL     1       8.398   8.389  18.166  0.00  0.00    +0.000 NA
ATOM      6  C   UNL     1       8.337   9.660  17.929  0.00  0.00    +0.000 C 
BRANCH   6   7
ATOM      7  C   UNL     1       9.288  10.607  18.553  0.00  0.00    +0.000 A 
ATOM      8  C   UNL     1       9.449  10.649  19.943  0.00  0.00    +0.000 A 
ATOM      9  C   UNL     1      10.333  11.564  20.516  0.00  0.00    +0.000 A 
ATOM     10  C   UNL     1      11.059  12.437  19.702  0.00  0.00    +0.000 A 
ATOM     11  C   UNL     1      10.897  12.384  18.317  0.00  0.00    +0.000 A 
ATOM     12 BR   UNL     1      11.880  13.572  17.220  0.00  0.00    +0.000 Br
ATOM     13  C   UNL     1      10.019  11.472  17.733  0.00  0.00    +0.000 A 
ENDBRANCH   6   7
ENDBRANCH   3   5
BRANCH   2  14
ATOM     14  C   UNL     1       6.171   5.590  17.169  0.00  0.00    +0.000 C 
BRANCH  14  15
ATOM     15  N   UNL     1       4.917   5.439  17.874  0.00  0.00    +0.000 N 
ATOM     16  C   UNL     1       4.701   4.413  18.766  0.00  0.00    +0.000 C 
ATOM     17  O   UNL     1       5.580   3.577  18.981  0.00  0.00    +0.000 OA
ATOM     18  H   UNL     1       4.130   6.017  17.604  0.00  0.00    +0.000 HD
BRANCH  16  19
ATOM     19  C   UNL     1       3.396   4.394  19.418  0.00  0.00    +0.000 A 
ATOM     20  C   UNL     1       2.755   5.455  20.033  0.00  0.00    +0.000 A 
ATOM     21  C   UNL     1       1.481   5.100  20.566  0.00  0.00    +0.000 A 
ATOM     22  C   UNL     1       1.186   3.772  20.346  0.00  0.00    +0.000 A 
ATOM     23  S   UNL     1       2.434   2.972  19.499  0.00  0.00    +0.000 S 
ENDBRANCH  16  19
ENDBRANCH  14  15
ENDBRANCH   2  14
TORSDOF 5
ENDMDL
MODEL 5
REMARK VINA RESULT:      -7.3      1.058      1.058
REMARK  Name = 
REMARK  5 active torsions:
REMARK  status: ('A' for Active; 'I' for Inactive)
REMARK    1  A    between atoms: C_2  and  C_3
REMARK    2  A    between atoms: C_3  and  N_4
REMARK    3  A    between atoms: C_5  and  C_7
REMARK    4  A    between atoms: N_12  and  N_13
REMARK    5  A    between atoms: C_14  and  C_15
REMARK                            x       y       z     vdW  Elec       q    Type
REMARK                         _______ _______ _______ _____ _____    ______ ____
ROOT
ATOM      1  O   UNL     1       7.772   6.167  18.942  0.00  0.00    +0.000 OA
ATOM      2  C   UNL     1       7.180   6.641  17.973  0.00  0.00    +0.000 C 
ATOM      3  N   UNL     1       7.445   7.868  17.381  0.00  0.00    +0.000 N 
ATOM      4  H   UNL     1       6.766   8.276  16.741  0.00  0.00    +0.000 HD
ENDROOT
BRANCH   3   5
ATOM      5  N   UNL     1       8.512   8.605  17.807  0.00  0.00    +0.000 NA
ATOM      6  C   UNL     1       8.244   9.801  18.223  0.00  0.00    +0.000 C 
BRANCH   6   7
ATOM      7  C   UNL     1       9.308  10.700  18.726  0.00  0.00    +0.000 A 
ATOM      8  C   UNL     1       9.542  10.831  20.099  0.00  0.00    +0.000 A 
ATOM      9  C   UNL     1      10.534  11.700  20.558  0.00  0.00    +0.000 A 
ATOM     10  C   UNL     1      11.292  12.436  19.646  0.00  0.00    +0.000 A 
ATOM     11  C   UNL     1      11.056  12.294  18.278  0.00  0.00    +0.000 A 
ATOM     12 BR   UNL     1      12.085  13.298  17.047  0.00  0.00    +0.000 Br
ATOM     13  C   UNL     1      10.070  11.427  17.809  0.00  0.00    +0.000 A 
ENDBRANCH   6   7
ENDBRANCH   3   5
BRANCH   2  14
ATOM     14  C   UNL     1       5.992   5.918  17.341  0.00  0.00    +0.000 C 
BRANCH  14  15
ATOM     15  N   UNL     1       5.055   5.457  18.342  0.00  0.00    +0.000 N 
ATOM     16  C   UNL     1       4.332   4.296  18.185  0.00  0.00    +0.000 C 
ATOM     17  O   UNL     1       4.459   3.614  17.167  0.00  0.00    +0.000 OA
ATOM     18  H   UNL     1       4.819   6.072  19.112  0.00  0.00    +0.000 HD
BRANCH  16  19
ATOM     19  C   UNL     1       3.438   3.944  19.283  0.00  0.00    +0.000 A 
ATOM     20  C   UNL     1       3.245   2.688  19.832  0.00  0.00    +0.000 A 
ATOM     21  C   UNL     1       2.304   2.690  20.903  0.00  0.00    +0.000 A 
ATOM     22  C   UNL     1       1.800   3.951  21.141  0.00  0.00    +0.000 A 
ATOM     23  S   UNL     1       2.467   5.114  20.083  0.00  0.00    +0.000 S 
ENDBRANCH  16  19
ENDBRANCH  14  15
ENDBRANCH   2  14
TORSDOF 5
ENDMDL
MODEL 6
REMARK VINA RESULT:      -7.2      2.030      2.338
REMARK  Name = 
REMARK  5 active torsions:
REMARK  status: ('A' for Active; 'I' for Inactive)
REMARK    1  A    between atoms: C_2  and  C_3
REMARK    2  A    between atoms: C_3  and  N_4
REMARK    3  A    between atoms: C_5  and  C_7
REMARK    4  A    between atoms: N_12  and  N_13
REMARK    5  A    between atoms: C_14  and  C_15
REMARK                            x       y       z     vdW  Elec       q    Type
REMARK                         _______ _______ _______ _____ _____    ______ ____
ROOT
ATOM      1  O   UNL     1       7.706   6.075  18.803  0.00  0.00    +0.000 OA
ATOM      2  C   UNL     1       7.503   6.663  17.741  0.00  0.00    +0.000 C 
ATOM      3  N   UNL     1       7.807   7.992  17.479  0.00  0.00    +0.000 N 
ATOM      4  H   UNL     1       7.400   8.451  16.666  0.00  0.00    +0.000 HD
ENDROOT
BRANCH   3   5
ATOM      5  N   UNL     1       8.485   8.725  18.409  0.00  0.00    +0.000 NA
ATOM      6  C   UNL     1       8.795   9.933  18.063  0.00  0.00    +0.000 C 
BRANCH   6   7
ATOM      7  C   UNL     1       9.517  10.838  18.985  0.00  0.00    +0.000 A 
ATOM      8  C   UNL     1      10.778  11.345  18.648  0.00  0.00    +0.000 A 
ATOM      9  C   UNL     1      11.454  12.180  19.538  0.00  0.00    +0.000 A 
ATOM     10  C   UNL     1      10.873  12.510  20.765  0.00  0.00    +0.000 A 
ATOM     11  C   UNL     1       9.614  12.005  21.090  0.00  0.00    +0.000 A 
ATOM     12 BR   UNL     1       8.834  12.453  22.754  0.00  0.00    +0.000 Br
ATOM     13  C   UNL     1       8.927  11.173  20.207  0.00  0.00    +0.000 A 
ENDBRANCH   6   7
ENDBRANCH   3   5
BRANCH   2  14
ATOM     14  C   UNL     1       6.798   5.971  16.576  0.00  0.00    +0.000 C 
BRANCH  14  15
ATOM     15  N   UNL     1       5.708   5.137  17.032  0.00  0.00    +0.000 N 
ATOM     16  C   UNL     1       4.421   5.613  17.140  0.00  0.00    +0.000 C 
ATOM     17  O   UNL     1       4.162   6.783  16.855  0.00  0.00    +0.000 OA
ATOM     18  H   UNL     1       5.919   4.223  17.416  0.00  0.00    +0.000 HD
BRANCH  16  19
ATOM     19  C   UNL     1       3.419   4.656  17.597  0.00  0.00    +0.000 A 
ATOM     20  C   UNL     1       2.114   4.928  17.971  0.00  0.00    +0.000 A 
ATOM     21  C   UNL     1       1.394   3.760  18.358  0.00  0.00    +0.000 A 
ATOM     22  C   UNL     1       2.173   2.625  18.273  0.00  0.00    +0.000 A 
ATOM     23  S   UNL     1       3.751   2.975  17.723  0.00  0.00    +0.000 S 
ENDBRANCH  16  19
ENDBRANCH  14  15
ENDBRANCH   2  14
TORSDOF 5
ENDMDL
MODEL 7
REMARK VINA RESULT:      -7.1      1.293      1.301
REMARK  Name = 
REMARK  5 active torsions:
REMARK  status: ('A' for Active; 'I' for Inactive)
REMARK    1  A    between atoms: C_2  and  C_3
REMARK    2  A    between atoms: C_3  and  N_4
REMARK    3  A    between atoms: C_5  and  C_7
REMARK    4  A    between atoms: N_12  and  N_13
REMARK    5  A    between atoms: C_14  and  C_15
REMARK                            x       y       z     vdW  Elec       q    Type
REMARK                         _______ _______ _______ _____ _____    ______ ____
ROOT
ATOM      1  O   UNL     1       7.786   5.500  17.493  0.00  0.00    +0.000 OA
ATOM      2  C   UNL     1       7.029   6.282  16.918  0.00  0.00    +0.000 C 
ATOM      3  N   UNL     1       7.047   7.664  17.040  0.00  0.00    +0.000 N 
ATOM      4  H   UNL     1       6.250   8.209  16.715  0.00  0.00    +0.000 HD
ENDROOT
BRANCH   3   5
ATOM      5  N   UNL     1       8.035   8.265  17.765  0.00  0.00    +0.000 NA
ATOM      6  C   UNL     1       8.040   9.559  17.753  0.00  0.00    +0.000 C 
BRANCH   6   7
ATOM      7  C   UNL     1       9.048  10.334  18.510  0.00  0.00    +0.000 A 
ATOM      8  C   UNL     1       9.063  10.312  19.910  0.00  0.00    +0.000 A 
ATOM      9  C   UNL     1      10.007  11.066  20.609  0.00  0.00    +0.000 A 
ATOM     10  C   UNL     1      10.936  11.842  19.912  0.00  0.00    +0.000 A 
ATOM     11  C   UNL     1      10.917  11.854  18.517  0.00  0.00    +0.000 A 
ATOM     12 BR   UNL     1      12.176  12.909  17.579  0.00  0.00    +0.000 Br
ATOM     13  C   UNL     1       9.982  11.101  17.808  0.00  0.00    +0.000 A 
ENDBRANCH   6   7
ENDBRANCH   3   5
BRANCH   2  14
ATOM     14  C   UNL     1       5.898   5.776  16.026  0.00  0.00    +0.000 C 
BRANCH  14  15
ATOM     15  N   UNL     1       4.961   4.959  16.766  0.00  0.00    +0.000 N 
ATOM     16  C   UNL     1       4.022   5.508  17.609  0.00  0.00    +0.000 C 
ATOM     17  O   UNL     1       3.960   6.729  17.765  0.00  0.00    +0.000 OA
ATOM     18  H   UNL     1       5.089   3.954  16.775  0.00  0.00    +0.000 HD
BRANCH  16  19
ATOM     19  C   UNL     1       3.130   4.566  18.278  0.00  0.00    +0.000 A 
ATOM     20  C   UNL     1       2.876   3.255  17.913  0.00  0.00    +0.000 A 
ATOM     21  C   UNL     1       1.958   2.604  18.789  0.00  0.00    +0.000 A 
ATOM     22  C   UNL     1       1.533   3.440  19.799  0.00  0.00    +0.000 A 
ATOM     23  S   UNL     1       2.244   4.989  19.687  0.00  0.00    +0.000 S 
ENDBRANCH  16  19
ENDBRANCH  14  15
ENDBRANCH   2  14
TORSDOF 5
ENDMDL
MODEL 8
REMARK VINA RESULT:      -7.1      1.670      2.185
REMARK  Name = 
REMARK  5 active torsions:
REMARK  status: ('A' for Active; 'I' for Inactive)
REMARK    1  A    between atoms: C_2  and  C_3
REMARK    2  A    between atoms: C_3  and  N_4
REMARK    3  A    between atoms: C_5  and  C_7
REMARK    4  A    between atoms: N_12  and  N_13
REMARK    5  A    between atoms: C_14  and  C_15
REMARK                            x       y       z     vdW  Elec       q    Type
REMARK                         _______ _______ _______ _____ _____    ______ ____
ROOT
ATOM      1  O   UNL     1       6.072   6.336  15.377  0.00  0.00    +0.000 OA
ATOM      2  C   UNL     1       6.555   5.769  16.357  0.00  0.00    +0.000 C 
ATOM      3  N   UNL     1       7.280   6.380  17.371  0.00  0.00    +0.000 N 
ATOM      4  H   UNL     1       7.830   5.810  18.010  0.00  0.00    +0.000 HD
ENDROOT
BRANCH   3   5
ATOM      5  N   UNL     1       7.408   7.739  17.384  0.00  0.00    +0.000 NA
ATOM      6  C   UNL     1       8.290   8.217  18.202  0.00  0.00    +0.000 C 
BRANCH   6   7
ATOM      7  C   UNL     1       8.539   9.673  18.304  0.00  0.00    +0.000 A 
ATOM      8  C   UNL     1       7.941  10.565  17.407  0.00  0.00    +0.000 A 
ATOM      9  C   UNL     1       8.204  11.932  17.503  0.00  0.00    +0.000 A 
ATOM     10  C   UNL     1       9.064  12.409  18.494  0.00  0.00    +0.000 A 
ATOM     11  C   UNL     1       9.652  11.513  19.388  0.00  0.00    +0.000 A 
ATOM     12 BR   UNL     1      10.819  12.165  20.727  0.00  0.00    +0.000 Br
ATOM     13  C   UNL     1       9.393  10.146  19.304  0.00  0.00    +0.000 A 
ENDBRANCH   6   7
ENDBRANCH   3   5
BRANCH   2  14
ATOM     14  C   UNL     1       6.458   4.254  16.522  0.00  0.00    +0.000 C 
BRANCH  14  15
ATOM     15  N   UNL     1       5.158   3.855  17.015  0.00  0.00    +0.000 N 
ATOM     16  C   UNL     1       4.862   3.833  18.359  0.00  0.00    +0.000 C 
ATOM     17  O   UNL     1       5.714   4.149  19.191  0.00  0.00    +0.000 OA
ATOM     18  H   UNL     1       4.493   3.447  16.368  0.00  0.00    +0.000 HD
BRANCH  16  19
ATOM     19  C   UNL     1       3.506   3.427  18.711  0.00  0.00    +0.000 A 
ATOM     20  C   UNL     1       2.682   2.567  18.006  0.00  0.00    +0.000 A 
ATOM     21  C   UNL     1       1.416   2.373  18.632  0.00  0.00    +0.000 A 
ATOM     22  C   UNL     1       1.306   3.096  19.801  0.00  0.00    +0.000 A 
ATOM     23  S   UNL     1       2.723   3.990  20.134  0.00  0.00    +0.000 S 
ENDBRANCH  16  19
ENDBRANCH  14  15
ENDBRANCH   2  14
TORSDOF 5
ENDMDL
MODEL 9
REMARK VINA RESULT:      -7.0      1.690      2.138
REMARK  Name = 
REMARK  5 active torsions:
REMARK  status: ('A' for Active; 'I' for Inactive)
REMARK    1  A    between atoms: C_2  and  C_3
REMARK    2  A    between atoms: C_3  and  N_4
REMARK    3  A    between atoms: C_5  and  C_7
REMARK    4  A    between atoms: N_12  and  N_13
REMARK    5  A    between atoms: C_14  and  C_15
REMARK                            x       y       z     vdW  Elec       q    Type
REMARK                         _______ _______ _______ _____ _____    ______ ____
ROOT
ATOM      1  O   UNL     1       5.172   7.345  17.313  0.00  0.00    +0.000 OA
ATOM      2  C   UNL     1       6.085   6.520  17.305  0.00  0.00    +0.000 C 
ATOM      3  N   UNL     1       7.433   6.804  17.130  0.00  0.00    +0.000 N 
ATOM      4  H   UNL     1       8.082   6.051  16.909  0.00  0.00    +0.000 HD
ENDROOT
BRANCH   3   5
ATOM      5  N   UNL     1       7.845   8.103  17.061  0.00  0.00    +0.000 NA
ATOM      6  C   UNL     1       8.185   8.650  18.184  0.00  0.00    +0.000 C 
BRANCH   6   7
ATOM      7  C   UNL     1       8.665  10.049  18.247  0.00  0.00    +0.000 A 
ATOM      8  C   UNL     1       7.993  11.067  17.561  0.00  0.00    +0.000 A 
ATOM      9  C   UNL     1       8.472  12.377  17.613  0.00  0.00    +0.000 A 
ATOM     10  C   UNL     1       9.621  12.671  18.350  0.00  0.00    +0.000 A 
ATOM     11  C   UNL     1      10.281  11.651  19.036  0.00  0.00    +0.000 A 
ATOM     12 BR   UNL     1      11.840  12.055  20.030  0.00  0.00    +0.000 Br
ATOM     13  C   UNL     1       9.810  10.339  18.994  0.00  0.00    +0.000 A 
ENDBRANCH   6   7
ENDBRANCH   3   5
BRANCH   2  14
ATOM     14  C   UNL     1       5.801   5.024  17.422  0.00  0.00    +0.000 C 
BRANCH  14  15
ATOM     15  N   UNL     1       4.559   4.771  18.118  0.00  0.00    +0.000 N 
ATOM     16  C   UNL     1       4.483   3.904  19.185  0.00  0.00    +0.000 C 
ATOM     17  O   UNL     1       5.486   3.305  19.575  0.00  0.00    +0.000 OA
ATOM     18  H   UNL     1       3.696   5.129  17.725  0.00  0.00    +0.000 HD
BRANCH  16  19
ATOM     19  C   UNL     1       3.168   3.759  19.802  0.00  0.00    +0.000 A 
ATOM     20  C   UNL     1       2.017   4.459  19.486  0.00  0.00    +0.000 A 
ATOM     21  C   UNL     1       0.896   4.067  20.275  0.00  0.00    +0.000 A 
ATOM     22  C   UNL     1       1.225   3.078  21.177  0.00  0.00    +0.000 A 
ATOM     23  S   UNL     1       2.869   2.629  21.061  0.00  0.00    +0.000 S 
ENDBRANCH  16  19
ENDBRANCH  14  15
ENDBRANCH   2  14
TORSDOF 5
ENDMDL
