MODEL 1
REMARK VINA RESULT:      -7.7      0.000      0.000
REMARK  Name = 
REMARK  6 active torsions:
REMARK  status: ('A' for Active; 'I' for Inactive)
REMARK    1  A    between atoms: C_1  and  N_2
REMARK    2  A    between atoms: C_3  and  C_5
REMARK    3  A    between atoms: C_7  and  C_8
REMARK    4  A    between atoms: C_11  and  O_12
REMARK    5  A    between atoms: O_12  and  C_13
REMARK    6  A    between atoms: N_16  and  C_17
REMARK                            x       y       z     vdW  Elec       q    Type
REMARK                         _______ _______ _______ _____ _____    ______ ____
ROOT
ATOM      1  C   UNL     1       5.218   5.365  16.275  0.00  0.00    +0.000 A 
ATOM      2  C   UNL     1       4.516   6.578  16.443  0.00  0.00    +0.000 A 
ATOM      3  C   UNL     1       3.721   6.419  17.564  0.00  0.00    +0.000 A 
ATOM      4  N   UNL     1       3.902   5.086  17.947  0.00  0.00    +0.000 N 
ATOM      5  N   UNL     1       4.910   4.491  17.251  0.00  0.00    +0.000 NA
ENDROOT
BRANCH   4   6
ATOM      6  C   UNL     1       3.186   4.314  18.909  0.00  0.00    +0.000 A 
ATOM      7  C   UNL     1       1.800   4.130  18.806  0.00  0.00    +0.000 A 
ATOM      8  C   UNL     1       1.107   3.439  19.804  0.00  0.00    +0.000 A 
ATOM      9  C   UNL     1       1.800   2.909  20.890  0.00  0.00    +0.000 A 
ATOM     10 CL   UNL     1       0.942   2.069  22.121  0.00  0.00    +0.000 Cl
ATOM     11  C   UNL     1       3.184   3.049  20.980  0.00  0.00    +0.000 A 
ATOM     12  C   UNL     1       3.883   3.740  19.984  0.00  0.00    +0.000 A 
ENDBRANCH   4   6
BRANCH   3  13
ATOM     13  C   UNL     1       2.898   7.426  18.248  0.00  0.00    +0.000 A 
ATOM     14  C   UNL     1       2.437   8.564  17.580  0.00  0.00    +0.000 A 
ATOM     15  C   UNL     1       1.583   9.458  18.232  0.00  0.00    +0.000 A 
ATOM     16  C   UNL     1       1.213   9.183  19.539  0.00  0.00    +0.000 A 
ATOM     17  N   UNL     1       1.686   8.133  20.237  0.00  0.00    +0.000 NA
ATOM     18  C   UNL     1       2.536   7.306  19.591  0.00  0.00    +0.000 A 
BRANCH  16  19
ATOM     19  O   UNL     1       0.310  10.040  20.130  0.00  0.00    +0.000 OA
ATOM     20  C   UNL     1      -0.202   9.528  21.360  0.00  0.00    +0.000 C 
ENDBRANCH  16  19
ENDBRANCH   3  13
BRANCH   1  23
ATOM     21  C   UNL     1       6.453   3.811  13.096  0.00  0.00    +0.000 C 
ATOM     22  N   UNL     1       5.671   4.226  14.226  0.00  0.00    +0.000 N 
ATOM     23  C   UNL     1       6.179   5.047  15.207  0.00  0.00    +0.000 C 
ATOM     24  O   UNL     1       7.324   5.494  15.195  0.00  0.00    +0.000 OA
ATOM     25  H   UNL     1       4.710   3.918  14.348  0.00  0.00    +0.000 HD
ENDBRANCH   1  23
TORSDOF 4
ENDMDL
MODEL 2
REMARK VINA RESULT:      -7.5      0.763      1.109
REMARK  Name = 
REMARK  6 active torsions:
REMARK  status: ('A' for Active; 'I' for Inactive)
REMARK    1  A    between atoms: C_1  and  N_2
REMARK    2  A    between atoms: C_3  and  C_5
REMARK    3  A    between atoms: C_7  and  C_8
REMARK    4  A    between atoms: C_11  and  O_12
REMARK    5  A    between atoms: O_12  and  C_13
REMARK    6  A    between atoms: N_16  and  C_17
REMARK                            x       y       z     vdW  Elec       q    Type
REMARK                         _______ _______ _______ _____ _____    ______ ____
ROOT
ATOM      1  C   UNL     1       5.110   5.507  16.515  0.00  0.00    +0.000 A 
ATOM      2  C   UNL     1       4.352   6.691  16.651  0.00  0.00    +0.000 A 
ATOM      3  C   UNL     1       3.533   6.508  17.751  0.00  0.00    +0.000 A 
ATOM      4  N   UNL     1       3.758   5.186  18.151  0.00  0.00    +0.000 N 
ATOM      5  N   UNL     1       4.811   4.629  17.490  0.00  0.00    +0.000 NA
ENDROOT
BRANCH   4   6
ATOM      6  C   UNL     1       3.048   4.392  19.099  0.00  0.00    +0.000 A 
ATOM      7  C   UNL     1       1.678   4.135  18.949  0.00  0.00    +0.000 A 
ATOM      8  C   UNL     1       0.985   3.423  19.932  0.00  0.00    +0.000 A 
ATOM      9  C   UNL     1       1.664   2.947  21.051  0.00  0.00    +0.000 A 
ATOM     10 CL   UNL     1       0.804   2.082  22.264  0.00  0.00    +0.000 Cl
ATOM     11  C   UNL     1       3.034   3.160  21.189  0.00  0.00    +0.000 A 
ATOM     12  C   UNL     1       3.733   3.872  20.208  0.00  0.00    +0.000 A 
ENDBRANCH   4   6
BRANCH   3  13
ATOM     13  C   UNL     1       2.648   7.484  18.401  0.00  0.00    +0.000 A 
ATOM     14  C   UNL     1       2.297   7.363  19.748  0.00  0.00    +0.000 A 
ATOM     15  C   UNL     1       1.526   8.354  20.361  0.00  0.00    +0.000 A 
ATOM     16  C   UNL     1       1.130   9.444  19.602  0.00  0.00    +0.000 A 
ATOM     17  N   UNL     1       1.392   9.566  18.287  0.00  0.00    +0.000 NA
ATOM     18  C   UNL     1       2.110   8.574  17.715  0.00  0.00    +0.000 A 
BRANCH  16  19
ATOM     19  O   UNL     1       0.436  10.443  20.252  0.00  0.00    +0.000 OA
ATOM     20  C   UNL     1      -0.827  10.711  19.645  0.00  0.00    +0.000 C 
ENDBRANCH  16  19
ENDBRANCH   3  13
BRANCH   1  23
ATOM     21  C   UNL     1       6.496   3.998  13.377  0.00  0.00    +0.000 C 
ATOM     22  N   UNL     1       5.665   4.386  14.482  0.00  0.00    +0.000 N 
ATOM     23  C   UNL     1       6.115   5.222  15.479  0.00  0.00    +0.000 C 
ATOM     24  O   UNL     1       7.244   5.706  15.503  0.00  0.00    +0.000 OA
ATOM     25  H   UNL     1       4.711   4.047  14.573  0.00  0.00    +0.000 HD
ENDBRANCH   1  23
TORSDOF 4
ENDMDL
MODEL 3
REMARK VINA RESULT:      -7.4      0.718      1.197
REMARK  Name = 
REMARK  6 active torsions:
REMARK  status: ('A' for Active; 'I' for Inactive)
REMARK    1  A    between atoms: C_1  and  N_2
REMARK    2  A    between atoms: C_3  and  C_5
REMARK    3  A    between atoms: C_7  and  C_8
REMARK    4  A    between atoms: C_11  and  O_12
REMARK    5  A    between atoms: O_12  and  C_13
REMARK    6  A    between atoms: N_16  and  C_17
REMARK                            x       y       z     vdW  Elec       q    Type
REMARK                         _______ _______ _______ _____ _____    ______ ____
ROOT
ATOM      1  C   UNL     1       5.054   5.586  16.576  0.00  0.00    +0.000 A 
ATOM      2  C   UNL     1       4.316   6.787  16.651  0.00  0.00    +0.000 A 
ATOM      3  C   UNL     1       3.496   6.676  17.759  0.00  0.00    +0.000 A 
ATOM      4  N   UNL     1       3.702   5.374  18.228  0.00  0.00    +0.000 N 
ATOM      5  N   UNL     1       4.744   4.766  17.597  0.00  0.00    +0.000 NA
ENDROOT
BRANCH   4   6
ATOM      6  C   UNL     1       2.981   4.643  19.218  0.00  0.00    +0.000 A 
ATOM      7  C   UNL     1       3.521   4.422  20.494  0.00  0.00    +0.000 A 
ATOM      8  C   UNL     1       2.832   3.633  21.420  0.00  0.00    +0.000 A 
ATOM      9  C   UNL     1       1.596   3.088  21.084  0.00  0.00    +0.000 A 
ATOM     10 CL   UNL     1       0.759   2.109  22.223  0.00  0.00    +0.000 Cl
ATOM     11  C   UNL     1       1.031   3.337  19.835  0.00  0.00    +0.000 A 
ATOM     12  C   UNL     1       1.715   4.126  18.903  0.00  0.00    +0.000 A 
ENDBRANCH   4   6
BRANCH   3  13
ATOM     13  C   UNL     1       2.628   7.699  18.358  0.00  0.00    +0.000 A 
ATOM     14  C   UNL     1       2.130   8.764  17.601  0.00  0.00    +0.000 A 
ATOM     15  C   UNL     1       1.236   9.670  18.177  0.00  0.00    +0.000 A 
ATOM     16  C   UNL     1       0.865   9.483  19.498  0.00  0.00    +0.000 A 
ATOM     17  N   UNL     1       1.371   8.509  20.278  0.00  0.00    +0.000 NA
ATOM     18  C   UNL     1       2.259   7.668  19.704  0.00  0.00    +0.000 A 
BRANCH  16  19
ATOM     19  O   UNL     1      -0.076  10.347  20.016  0.00  0.00    +0.000 OA
ATOM     20  C   UNL     1      -1.065  10.714  19.053  0.00  0.00    +0.000 C 
ENDBRANCH  16  19
ENDBRANCH   3  13
BRANCH   1  23
ATOM     21  C   UNL     1       6.393   3.938  13.488  0.00  0.00    +0.000 C 
ATOM     22  N   UNL     1       5.573   4.390  14.576  0.00  0.00    +0.000 N 
ATOM     23  C   UNL     1       6.052   5.231  15.555  0.00  0.00    +0.000 C 
ATOM     24  O   UNL     1       7.202   5.665  15.575  0.00  0.00    +0.000 OA
ATOM     25  H   UNL     1       4.604   4.096  14.668  0.00  0.00    +0.000 HD
ENDBRANCH   1  23
TORSDOF 4
ENDMDL
MODEL 4
REMARK VINA RESULT:      -7.4      3.626      5.308
REMARK  Name = 
REMARK  6 active torsions:
REMARK  status: ('A' for Active; 'I' for Inactive)
REMARK    1  A    between atoms: C_1  and  N_2
REMARK    2  A    between atoms: C_3  and  C_5
REMARK    3  A    between atoms: C_7  and  C_8
REMARK    4  A    between atoms: C_11  and  O_12
REMARK    5  A    between atoms: O_12  and  C_13
REMARK    6  A    between atoms: N_16  and  C_17
REMARK                            x       y       z     vdW  Elec       q    Type
REMARK                         _______ _______ _______ _____ _____    ______ ____
ROOT
ATOM      1  C   UNL     1       6.174   4.181  14.120  0.00  0.00    +0.000 A 
ATOM      2  C   UNL     1       5.222   3.648  15.016  0.00  0.00    +0.000 A 
ATOM      3  C   UNL     1       5.245   4.455  16.140  0.00  0.00    +0.000 A 
ATOM      4  N   UNL     1       6.284   5.363  15.909  0.00  0.00    +0.000 N 
ATOM      5  N   UNL     1       6.751   5.284  14.632  0.00  0.00    +0.000 NA
ENDROOT
BRANCH   4   6
ATOM      6  C   UNL     1       6.891   6.294  16.803  0.00  0.00    +0.000 A 
ATOM      7  C   UNL     1       6.845   7.673  16.555  0.00  0.00    +0.000 A 
ATOM      8  C   UNL     1       7.516   8.561  17.401  0.00  0.00    +0.000 A 
ATOM      9  C   UNL     1       8.210   8.075  18.507  0.00  0.00    +0.000 A 
ATOM     10 CL   UNL     1       9.043   9.170  19.538  0.00  0.00    +0.000 Cl
ATOM     11  C   UNL     1       8.225   6.710  18.786  0.00  0.00    +0.000 A 
ATOM     12  C   UNL     1       7.555   5.816  17.943  0.00  0.00    +0.000 A 
ENDBRANCH   4   6
BRANCH   3  13
ATOM     13  C   UNL     1       4.355   4.417  17.308  0.00  0.00    +0.000 A 
ATOM     14  C   UNL     1       3.533   5.500  17.632  0.00  0.00    +0.000 A 
ATOM     15  C   UNL     1       2.634   5.399  18.696  0.00  0.00    +0.000 A 
ATOM     16  C   UNL     1       2.583   4.211  19.408  0.00  0.00    +0.000 A 
ATOM     17  N   UNL     1       3.403   3.170  19.170  0.00  0.00    +0.000 NA
ATOM     18  C   UNL     1       4.285   3.310  18.156  0.00  0.00    +0.000 A 
BRANCH  16  19
ATOM     19  O   UNL     1       1.634   4.114  20.403  0.00  0.00    +0.000 OA
ATOM     20  C   UNL     1       2.144   3.492  21.582  0.00  0.00    +0.000 C 
ENDBRANCH  16  19
ENDBRANCH   3  13
BRANCH   1  23
ATOM     21  C   UNL     1       6.112   1.791  11.234  0.00  0.00    +0.000 C 
ATOM     22  N   UNL     1       5.909   2.459  12.489  0.00  0.00    +0.000 N 
ATOM     23  C   UNL     1       6.517   3.656  12.789  0.00  0.00    +0.000 C 
ATOM     24  O   UNL     1       7.267   4.250  12.019  0.00  0.00    +0.000 OA
ATOM     25  H   UNL     1       5.311   2.063  13.210  0.00  0.00    +0.000 HD
ENDBRANCH   1  23
TORSDOF 4
ENDMDL
MODEL 5
REMARK VINA RESULT:      -7.3      3.284      4.651
REMARK  Name = 
REMARK  6 active torsions:
REMARK  status: ('A' for Active; 'I' for Inactive)
REMARK    1  A    between atoms: C_1  and  N_2
REMARK    2  A    between atoms: C_3  and  C_5
REMARK    3  A    between atoms: C_7  and  C_8
REMARK    4  A    between atoms: C_11  and  O_12
REMARK    5  A    between atoms: O_12  and  C_13
REMARK    6  A    between atoms: N_16  and  C_17
REMARK                            x       y       z     vdW  Elec       q    Type
REMARK                         _______ _______ _______ _____ _____    ______ ____
ROOT
ATOM      1  C   UNL     1       5.710   4.018  14.077  0.00  0.00    +0.000 A 
ATOM      2  C   UNL     1       6.551   5.060  14.526  0.00  0.00    +0.000 A 
ATOM      3  C   UNL     1       6.203   5.306  15.841  0.00  0.00    +0.000 A 
ATOM      4  N   UNL     1       5.100   4.480  16.082  0.00  0.00    +0.000 N 
ATOM      5  N   UNL     1       4.890   3.604  15.062  0.00  0.00    +0.000 NA
ENDROOT
BRANCH   4   6
ATOM      6  C   UNL     1       4.208   4.460  17.195  0.00  0.00    +0.000 A 
ATOM      7  C   UNL     1       3.480   5.601  17.564  0.00  0.00    +0.000 A 
ATOM      8  C   UNL     1       2.675   5.582  18.706  0.00  0.00    +0.000 A 
ATOM      9  C   UNL     1       2.576   4.418  19.465  0.00  0.00    +0.000 A 
ATOM     10 CL   UNL     1       1.593   4.404  20.876  0.00  0.00    +0.000 Cl
ATOM     11  C   UNL     1       3.261   3.266  19.084  0.00  0.00    +0.000 A 
ATOM     12  C   UNL     1       4.069   3.279  17.941  0.00  0.00    +0.000 A 
ENDBRANCH   4   6
BRANCH   3  13
ATOM     13  C   UNL     1       6.860   6.199  16.806  0.00  0.00    +0.000 A 
ATOM     14  C   UNL     1       7.493   5.697  17.947  0.00  0.00    +0.000 A 
ATOM     15  C   UNL     1       8.185   6.562  18.798  0.00  0.00    +0.000 A 
ATOM     16  C   UNL     1       8.224   7.910  18.481  0.00  0.00    +0.000 A 
ATOM     17  N   UNL     1       7.573   8.441  17.428  0.00  0.00    +0.000 NA
ATOM     18  C   UNL     1       6.885   7.585  16.642  0.00  0.00    +0.000 A 
BRANCH  16  19
ATOM     19  O   UNL     1       8.977   8.726  19.297  0.00  0.00    +0.000 OA
ATOM     20  C   UNL     1       9.053  10.064  18.806  0.00  0.00    +0.000 C 
ENDBRANCH  16  19
ENDBRANCH   3  13
BRANCH   1  23
ATOM     21  C   UNL     1       7.057   2.145  11.124  0.00  0.00    +0.000 C 
ATOM     22  N   UNL     1       6.877   2.798  12.390  0.00  0.00    +0.000 N 
ATOM     23  C   UNL     1       5.696   3.416  12.735  0.00  0.00    +0.000 C 
ATOM     24  O   UNL     1       4.710   3.453  12.004  0.00  0.00    +0.000 OA
ATOM     25  H   UNL     1       7.624   2.836  13.078  0.00  0.00    +0.000 HD
ENDBRANCH   1  23
TORSDOF 4
ENDMDL
MODEL 6
REMARK VINA RESULT:      -7.3      3.558      5.338
REMARK  Name = 
REMARK  6 active torsions:
REMARK  status: ('A' for Active; 'I' for Inactive)
REMARK    1  A    between atoms: C_1  and  N_2
REMARK    2  A    between atoms: C_3  and  C_5
REMARK    3  A    between atoms: C_7  and  C_8
REMARK    4  A    between atoms: C_11  and  O_12
REMARK    5  A    between atoms: O_12  and  C_13
REMARK    6  A    between atoms: N_16  and  C_17
REMARK                            x       y       z     vdW  Elec       q    Type
REMARK                         _______ _______ _______ _____ _____    ______ ____
ROOT
ATOM      1  C   UNL     1       6.122   4.235  14.213  0.00  0.00    +0.000 A 
ATOM      2  C   UNL     1       5.184   3.715  15.131  0.00  0.00    +0.000 A 
ATOM      3  C   UNL     1       5.231   4.531  16.246  0.00  0.00    +0.000 A 
ATOM      4  N   UNL     1       6.269   5.433  15.988  0.00  0.00    +0.000 N 
ATOM      5  N   UNL     1       6.713   5.341  14.704  0.00  0.00    +0.000 NA
ENDROOT
BRANCH   4   6
ATOM      6  C   UNL     1       6.896   6.369  16.863  0.00  0.00    +0.000 A 
ATOM      7  C   UNL     1       6.838   7.748  16.611  0.00  0.00    +0.000 A 
ATOM      8  C   UNL     1       7.528   8.641  17.436  0.00  0.00    +0.000 A 
ATOM      9  C   UNL     1       8.252   8.162  18.525  0.00  0.00    +0.000 A 
ATOM     10 CL   UNL     1       9.108   9.264  19.530  0.00  0.00    +0.000 Cl
ATOM     11  C   UNL     1       8.280   6.798  18.809  0.00  0.00    +0.000 A 
ATOM     12  C   UNL     1       7.592   5.898  17.987  0.00  0.00    +0.000 A 
ENDBRANCH   4   6
BRANCH   3  13
ATOM     13  C   UNL     1       4.362   4.508  17.431  0.00  0.00    +0.000 A 
ATOM     14  C   UNL     1       4.179   3.338  18.175  0.00  0.00    +0.000 A 
ATOM     15  C   UNL     1       3.418   3.369  19.346  0.00  0.00    +0.000 A 
ATOM     16  C   UNL     1       2.863   4.575  19.741  0.00  0.00    +0.000 A 
ATOM     17  N   UNL     1       2.962   5.708  19.020  0.00  0.00    +0.000 NA
ATOM     18  C   UNL     1       3.675   5.639  17.874  0.00  0.00    +0.000 A 
BRANCH  16  19
ATOM     19  O   UNL     1       2.182   4.591  20.940  0.00  0.00    +0.000 OA
ATOM     20  C   UNL     1       2.206   3.324  21.596  0.00  0.00    +0.000 C 
ENDBRANCH  16  19
ENDBRANCH   3  13
BRANCH   1  23
ATOM     21  C   UNL     1       5.974   1.836  11.338  0.00  0.00    +0.000 C 
ATOM     22  N   UNL     1       5.800   2.513  12.592  0.00  0.00    +0.000 N 
ATOM     23  C   UNL     1       6.439   3.697  12.881  0.00  0.00    +0.000 C 
ATOM     24  O   UNL     1       7.195   4.269  12.100  0.00  0.00    +0.000 OA
ATOM     25  H   UNL     1       5.199   2.134  13.320  0.00  0.00    +0.000 HD
ENDBRANCH   1  23
TORSDOF 4
ENDMDL
MODEL 7
REMARK VINA RESULT:      -7.2      3.596      5.373
REMARK  Name = 
REMARK  6 active torsions:
REMARK  status: ('A' for Active; 'I' for Inactive)
REMARK    1  A    between atoms: C_1  and  N_2
REMARK    2  A    between atoms: C_3  and  C_5
REMARK    3  A    between atoms: C_7  and  C_8
REMARK    4  A    between atoms: C_11  and  O_12
REMARK    5  A    between atoms: O_12  and  C_13
REMARK    6  A    between atoms: N_16  and  C_17
REMARK                            x       y       z     vdW  Elec       q    Type
REMARK                         _______ _______ _______ _____ _____    ______ ____
ROOT
ATOM      1  C   UNL     1       6.129   4.274  14.344  0.00  0.00    +0.000 A 
ATOM      2  C   UNL     1       5.213   3.792  15.305  0.00  0.00    +0.000 A 
ATOM      3  C   UNL     1       5.336   4.613  16.411  0.00  0.00    +0.000 A 
ATOM      4  N   UNL     1       6.392   5.476  16.103  0.00  0.00    +0.000 N 
ATOM      5  N   UNL     1       6.778   5.361  14.802  0.00  0.00    +0.000 NA
ENDROOT
BRANCH   4   6
ATOM      6  C   UNL     1       7.087   6.395  16.944  0.00  0.00    +0.000 A 
ATOM      7  C   UNL     1       7.712   5.969  18.125  0.00  0.00    +0.000 A 
ATOM      8  C   UNL     1       8.316   6.899  18.974  0.00  0.00    +0.000 A 
ATOM      9  C   UNL     1       8.321   8.249  18.633  0.00  0.00    +0.000 A 
ATOM     10 CL   UNL     1       9.057   9.391  19.688  0.00  0.00    +0.000 Cl
ATOM     11  C   UNL     1       7.742   8.678  17.441  0.00  0.00    +0.000 A 
ATOM     12  C   UNL     1       7.135   7.751  16.586  0.00  0.00    +0.000 A 
ENDBRANCH   4   6
BRANCH   3  13
ATOM     13  C   UNL     1       4.518   4.626  17.632  0.00  0.00    +0.000 A 
ATOM     14  C   UNL     1       3.468   5.534  17.794  0.00  0.00    +0.000 A 
ATOM     15  C   UNL     1       2.653   5.464  18.926  0.00  0.00    +0.000 A 
ATOM     16  C   UNL     1       2.913   4.480  19.867  0.00  0.00    +0.000 A 
ATOM     17  N   UNL     1       3.953   3.629  19.779  0.00  0.00    +0.000 NA
ATOM     18  C   UNL     1       4.743   3.744  18.690  0.00  0.00    +0.000 A 
BRANCH  16  19
ATOM     19  O   UNL     1       2.046   4.386  20.935  0.00  0.00    +0.000 OA
ATOM     20  C   UNL     1       1.978   3.063  21.465  0.00  0.00    +0.000 C 
ENDBRANCH  16  19
ENDBRANCH   3  13
BRANCH   1  23
ATOM     21  C   UNL     1       5.673   1.945  11.444  0.00  0.00    +0.000 C 
ATOM     22  N   UNL     1       5.590   2.624  12.707  0.00  0.00    +0.000 N 
ATOM     23  C   UNL     1       6.371   3.717  13.004  0.00  0.00    +0.000 C 
ATOM     24  O   UNL     1       7.187   4.202  12.225  0.00  0.00    +0.000 OA
ATOM     25  H   UNL     1       4.952   2.312  13.434  0.00  0.00    +0.000 HD
ENDBRANCH   1  23
TORSDOF 4
ENDMDL
MODEL 8
REMARK VINA RESULT:      -7.2      1.000      1.598
REMARK  Name = 
REMARK  6 active torsions:
REMARK  status: ('A' for Active; 'I' for Inactive)
REMARK    1  A    between atoms: C_1  and  N_2
REMARK    2  A    between atoms: C_3  and  C_5
REMARK    3  A    between atoms: C_7  and  C_8
REMARK    4  A    between atoms: C_11  and  O_12
REMARK    5  A    between atoms: O_12  and  C_13
REMARK    6  A    between atoms: N_16  and  C_17
REMARK                            x       y       z     vdW  Elec       q    Type
REMARK                         _______ _______ _______ _____ _____    ______ ____
ROOT
ATOM      1  C   UNL     1       5.020   5.662  16.628  0.00  0.00    +0.000 A 
ATOM      2  C   UNL     1       4.259   6.850  16.692  0.00  0.00    +0.000 A 
ATOM      3  C   UNL     1       3.427   6.724  17.789  0.00  0.00    +0.000 A 
ATOM      4  N   UNL     1       3.650   5.427  18.263  0.00  0.00    +0.000 N 
ATOM      5  N   UNL     1       4.711   4.837  17.645  0.00  0.00    +0.000 NA
ENDROOT
BRANCH   4   6
ATOM      6  C   UNL     1       2.929   4.683  19.244  0.00  0.00    +0.000 A 
ATOM      7  C   UNL     1       3.353   4.644  20.580  0.00  0.00    +0.000 A 
ATOM      8  C   UNL     1       2.679   3.844  21.507  0.00  0.00    +0.000 A 
ATOM      9  C   UNL     1       1.569   3.103  21.107  0.00  0.00    +0.000 A 
ATOM     10 CL   UNL     1       0.751   2.111  22.249  0.00  0.00    +0.000 Cl
ATOM     11  C   UNL     1       1.114   3.169  19.792  0.00  0.00    +0.000 A 
ATOM     12  C   UNL     1       1.784   3.969  18.859  0.00  0.00    +0.000 A 
ENDBRANCH   4   6
BRANCH   3  13
ATOM     13  C   UNL     1       2.532   7.732  18.376  0.00  0.00    +0.000 A 
ATOM     14  C   UNL     1       2.105   7.640  19.704  0.00  0.00    +0.000 A 
ATOM     15  C   UNL     1       1.328   8.660  20.258  0.00  0.00    +0.000 A 
ATOM     16  C   UNL     1       1.001   9.747  19.463  0.00  0.00    +0.000 A 
ATOM     17  N   UNL     1       1.337   9.841  18.163  0.00  0.00    +0.000 NA
ATOM     18  C   UNL     1       2.060   8.824  17.646  0.00  0.00    +0.000 A 
BRANCH  16  19
ATOM     19  O   UNL     1       0.298  10.773  20.059  0.00  0.00    +0.000 OA
ATOM     20  C   UNL     1       0.492  12.021  19.396  0.00  0.00    +0.000 C 
ENDBRANCH  16  19
ENDBRANCH   3  13
BRANCH   1  23
ATOM     21  C   UNL     1       6.437   4.012  13.576  0.00  0.00    +0.000 C 
ATOM     22  N   UNL     1       5.594   4.454  14.651  0.00  0.00    +0.000 N 
ATOM     23  C   UNL     1       6.037   5.324  15.620  0.00  0.00    +0.000 C 
ATOM     24  O   UNL     1       7.172   5.796  15.643  0.00  0.00    +0.000 OA
ATOM     25  H   UNL     1       4.634   4.130  14.739  0.00  0.00    +0.000 HD
ENDBRANCH   1  23
TORSDOF 4
ENDMDL
MODEL 9
REMARK VINA RESULT:      -6.9      5.145      7.825
REMARK  Name = 
REMARK  6 active torsions:
REMARK  status: ('A' for Active; 'I' for Inactive)
REMARK    1  A    between atoms: C_1  and  N_2
REMARK    2  A    between atoms: C_3  and  C_5
REMARK    3  A    between atoms: C_7  and  C_8
REMARK    4  A    between atoms: C_11  and  O_12
REMARK    5  A    between atoms: O_12  and  C_13
REMARK    6  A    between atoms: N_16  and  C_17
REMARK                            x       y       z     vdW  Elec       q    Type
REMARK                         _______ _______ _______ _____ _____    ______ ____
ROOT
ATOM      1  C   UNL     1      -2.010  11.352  17.705  0.00  0.00    +0.000 A 
ATOM      2  C   UNL     1      -1.384  12.380  18.444  0.00  0.00    +0.000 A 
ATOM      3  C   UNL     1      -0.159  11.882  18.849  0.00  0.00    +0.000 A 
ATOM      4  N   UNL     1      -0.157  10.547  18.429  0.00  0.00    +0.000 N 
ATOM      5  N   UNL     1      -1.216  10.269  17.619  0.00  0.00    +0.000 NA
ENDROOT
BRANCH   4   6
ATOM      6  C   UNL     1       0.757   9.498  18.745  0.00  0.00    +0.000 A 
ATOM      7  C   UNL     1       1.573   8.925  17.759  0.00  0.00    +0.000 A 
ATOM      8  C   UNL     1       2.401   7.845  18.074  0.00  0.00    +0.000 A 
ATOM      9  C   UNL     1       2.434   7.353  19.377  0.00  0.00    +0.000 A 
ATOM     10 CL   UNL     1       3.446   6.015  19.757  0.00  0.00    +0.000 Cl
ATOM     11  C   UNL     1       1.659   7.943  20.374  0.00  0.00    +0.000 A 
ATOM     12  C   UNL     1       0.828   9.025  20.065  0.00  0.00    +0.000 A 
ENDBRANCH   4   6
BRANCH   3  13
ATOM     13  C   UNL     1       0.935  12.591  19.528  0.00  0.00    +0.000 A 
ATOM     14  C   UNL     1       2.063  13.028  18.829  0.00  0.00    +0.000 A 
ATOM     15  C   UNL     1       3.044  13.776  19.485  0.00  0.00    +0.000 A 
ATOM     16  C   UNL     1       2.864  14.068  20.827  0.00  0.00    +0.000 A 
ATOM     17  N   UNL     1       1.825  13.611  21.551  0.00  0.00    +0.000 NA
ATOM     18  C   UNL     1       0.910  12.861  20.897  0.00  0.00    +0.000 A 
BRANCH  16  19
ATOM     19  O   UNL     1       3.809  14.872  21.428  0.00  0.00    +0.000 OA
ATOM     20  C   UNL     1       4.878  14.119  22.000  0.00  0.00    +0.000 C 
ENDBRANCH  16  19
ENDBRANCH   3  13
BRANCH   1  23
ATOM     21  C   UNL     1      -5.653  12.183  17.410  0.00  0.00    +0.000 C 
ATOM     22  N   UNL     1      -4.296  12.024  17.853  0.00  0.00    +0.000 N 
ATOM     23  C   UNL     1      -3.340  11.407  17.078  0.00  0.00    +0.000 C 
ATOM     24  O   UNL     1      -3.561  10.954  15.958  0.00  0.00    +0.000 OA
ATOM     25  H   UNL     1      -3.993  12.356  18.765  0.00  0.00    +0.000 HD
ENDBRANCH   1  23
TORSDOF 4
ENDMDL
