MODEL 1
REMARK VINA RESULT:      -7.6      0.000      0.000
REMARK  Name = 
REMARK  6 active torsions:
REMARK  status: ('A' for Active; 'I' for Inactive)
REMARK    1  A    between atoms: C_1  and  C_2
REMARK    2  A    between atoms: C_2  and  C_3
REMARK    3  A    between atoms: C_2  and  O_4
REMARK    4  A    between atoms: C_2  and  C_12
REMARK    5  A    between atoms: O_4  and  C_5
REMARK    6  A    between atoms: C_14  and  C_15
REMARK                            x       y       z     vdW  Elec       q    Type
REMARK                         _______ _______ _______ _____ _____    ______ ____
ROOT
ATOM      1  C   UNL     1       7.596   4.566  17.419  0.00  0.00    +0.000 C 
ATOM      2  C   UNL     1       6.990   5.967  17.210  0.00  0.00    +0.000 C 
ATOM      3  C   UNL     1       7.767   7.087  17.923  0.00  0.00    +0.000 C 
ENDROOT
BRANCH   2   4
ATOM      4  C   UNL     1       5.610   5.904  17.840  0.00  0.00    +0.000 A 
ATOM      5  N   UNL     1       5.106   4.969  18.618  0.00  0.00    +0.000 NA
ATOM      6  C   UNL     1       3.768   5.300  18.681  0.00  0.00    +0.000 A 
ATOM      7  N   UNL     1       3.460   6.413  17.989  0.00  0.00    +0.000 NA
ATOM      8  O   UNL     1       4.675   6.809  17.427  0.00  0.00    +0.000 OA
BRANCH   6   9
ATOM      9  C   UNL     1       2.787   4.476  19.386  0.00  0.00    +0.000 A 
ATOM     10  C   UNL     1       1.835   3.733  18.694  0.00  0.00    +0.000 A 
ATOM     11  N   UNL     1       0.920   2.937  19.310  0.00  0.00    +0.000 NA
ATOM     12  C   UNL     1       0.995   2.910  20.658  0.00  0.00    +0.000 A 
ATOM     13  C   UNL     1       1.938   3.641  21.360  0.00  0.00    +0.000 A 
ATOM     14  N   UNL     1       2.850   4.432  20.747  0.00  0.00    +0.000 NA
ENDBRANCH   6   9
ENDBRANCH   2   4
BRANCH   2  15
ATOM     15  O   UNL     1       6.782   6.286  15.820  0.00  0.00    +0.000 OA
BRANCH  15  16
ATOM     16  C   UNL     1       6.514   5.351  14.860  0.00  0.00    +0.000 A 
ATOM     17  C   UNL     1       5.418   4.489  14.801  0.00  0.00    +0.000 A 
ATOM     18  C   UNL     1       5.273   3.586  13.746  0.00  0.00    +0.000 A 
ATOM     19  C   UNL     1       6.232   3.534  12.746  0.00  0.00    +0.000 A 
ATOM     20  F   UNL     1       6.088   2.665  11.736  0.00  0.00    +0.000 F 
ATOM     21  C   UNL     1       7.338   4.370  12.787  0.00  0.00    +0.000 A 
ATOM     22  C   UNL     1       7.476   5.275  13.843  0.00  0.00    +0.000 A 
ENDBRANCH  15  16
ENDBRANCH   2  15
TORSDOF 4
ENDMDL
MODEL 2
REMARK VINA RESULT:      -7.5      1.201      1.895
REMARK  Name = 
REMARK  6 active torsions:
REMARK  status: ('A' for Active; 'I' for Inactive)
REMARK    1  A    between atoms: C_1  and  C_2
REMARK    2  A    between atoms: C_2  and  C_3
REMARK    3  A    between atoms: C_2  and  O_4
REMARK    4  A    between atoms: C_2  and  C_12
REMARK    5  A    between atoms: O_4  and  C_5
REMARK    6  A    between atoms: C_14  and  C_15
REMARK                            x       y       z     vdW  Elec       q    Type
REMARK                         _______ _______ _______ _____ _____    ______ ____
ROOT
ATOM      1  C   UNL     1       7.059   7.274  17.462  0.00  0.00    +0.000 C 
ATOM      2  C   UNL     1       6.390   6.212  16.569  0.00  0.00    +0.000 C 
ATOM      3  C   UNL     1       5.263   6.772  15.684  0.00  0.00    +0.000 C 
ENDROOT
BRANCH   2   4
ATOM      4  C   UNL     1       5.758   5.221  17.530  0.00  0.00    +0.000 A 
ATOM      5  N   UNL     1       4.485   5.066  17.826  0.00  0.00    +0.000 NA
ATOM      6  C   UNL     1       4.517   4.219  18.915  0.00  0.00    +0.000 A 
ATOM      7  N   UNL     1       5.762   3.844  19.264  0.00  0.00    +0.000 NA
ATOM      8  O   UNL     1       6.583   4.511  18.353  0.00  0.00    +0.000 OA
BRANCH   6   9
ATOM      9  C   UNL     1       3.309   3.827  19.642  0.00  0.00    +0.000 A 
ATOM     10  C   UNL     1       2.056   4.301  19.269  0.00  0.00    +0.000 A 
ATOM     11  N   UNL     1       0.906   3.943  19.904  0.00  0.00    +0.000 NA
ATOM     12  C   UNL     1       1.060   3.084  20.934  0.00  0.00    +0.000 A 
ATOM     13  C   UNL     1       2.301   2.602  21.314  0.00  0.00    +0.000 A 
ATOM     14  N   UNL     1       3.445   2.957  20.683  0.00  0.00    +0.000 NA
ENDBRANCH   6   9
ENDBRANCH   2   4
BRANCH   2  15
ATOM     15  O   UNL     1       7.338   5.461  15.784  0.00  0.00    +0.000 OA
BRANCH  15  16
ATOM     16  C   UNL     1       7.031   4.861  14.595  0.00  0.00    +0.000 A 
ATOM     17  C   UNL     1       7.607   5.108  13.349  0.00  0.00    +0.000 A 
ATOM     18  C   UNL     1       7.193   4.405  12.216  0.00  0.00    +0.000 A 
ATOM     19  C   UNL     1       6.190   3.454  12.322  0.00  0.00    +0.000 A 
ATOM     20  F   UNL     1       5.796   2.783  11.232  0.00  0.00    +0.000 F 
ATOM     21  C   UNL     1       5.591   3.198  13.546  0.00  0.00    +0.000 A 
ATOM     22  C   UNL     1       6.012   3.902  14.679  0.00  0.00    +0.000 A 
ENDBRANCH  15  16
ENDBRANCH   2  15
TORSDOF 4
ENDMDL
MODEL 3
REMARK VINA RESULT:      -7.5      1.203      1.602
REMARK  Name = 
REMARK  6 active torsions:
REMARK  status: ('A' for Active; 'I' for Inactive)
REMARK    1  A    between atoms: C_1  and  C_2
REMARK    2  A    between atoms: C_2  and  C_3
REMARK    3  A    between atoms: C_2  and  O_4
REMARK    4  A    between atoms: C_2  and  C_12
REMARK    5  A    between atoms: O_4  and  C_5
REMARK    6  A    between atoms: C_14  and  C_15
REMARK                            x       y       z     vdW  Elec       q    Type
REMARK                         _______ _______ _______ _____ _____    ______ ____
ROOT
ATOM      1  C   UNL     1       7.267   7.273  17.543  0.00  0.00    +0.000 C 
ATOM      2  C   UNL     1       6.483   6.286  16.656  0.00  0.00    +0.000 C 
ATOM      3  C   UNL     1       5.345   6.945  15.857  0.00  0.00    +0.000 C 
ENDROOT
BRANCH   2   4
ATOM      4  C   UNL     1       5.846   5.301  17.620  0.00  0.00    +0.000 A 
ATOM      5  N   UNL     1       4.569   5.126  17.886  0.00  0.00    +0.000 NA
ATOM      6  C   UNL     1       4.589   4.301  18.992  0.00  0.00    +0.000 A 
ATOM      7  N   UNL     1       5.832   3.958  19.380  0.00  0.00    +0.000 NA
ATOM      8  O   UNL     1       6.664   4.625  18.478  0.00  0.00    +0.000 OA
BRANCH   6   9
ATOM      9  C   UNL     1       3.371   3.899  19.696  0.00  0.00    +0.000 A 
ATOM     10  C   UNL     1       2.154   4.526  19.450  0.00  0.00    +0.000 A 
ATOM     11  N   UNL     1       0.995   4.168  20.065  0.00  0.00    +0.000 NA
ATOM     12  C   UNL     1       1.100   3.146  20.943  0.00  0.00    +0.000 A 
ATOM     13  C   UNL     1       2.304   2.511  21.195  0.00  0.00    +0.000 A 
ATOM     14  N   UNL     1       3.457   2.867  20.582  0.00  0.00    +0.000 NA
ENDBRANCH   6   9
ENDBRANCH   2   4
BRANCH   2  15
ATOM     15  O   UNL     1       7.337   5.508  15.793  0.00  0.00    +0.000 OA
BRANCH  15  16
ATOM     16  C   UNL     1       6.883   4.804  14.714  0.00  0.00    +0.000 A 
ATOM     17  C   UNL     1       5.833   3.886  14.683  0.00  0.00    +0.000 A 
ATOM     18  C   UNL     1       5.475   3.247  13.494  0.00  0.00    +0.000 A 
ATOM     19  C   UNL     1       6.174   3.516  12.328  0.00  0.00    +0.000 A 
ATOM     20  F   UNL     1       5.827   2.900  11.191  0.00  0.00    +0.000 F 
ATOM     21  C   UNL     1       7.231   4.415  12.333  0.00  0.00    +0.000 A 
ATOM     22  C   UNL     1       7.582   5.056  13.525  0.00  0.00    +0.000 A 
ENDBRANCH  15  16
ENDBRANCH   2  15
TORSDOF 4
ENDMDL
MODEL 4
REMARK VINA RESULT:      -7.4      4.104      5.194
REMARK  Name = 
REMARK  6 active torsions:
REMARK  status: ('A' for Active; 'I' for Inactive)
REMARK    1  A    between atoms: C_1  and  C_2
REMARK    2  A    between atoms: C_2  and  C_3
REMARK    3  A    between atoms: C_2  and  O_4
REMARK    4  A    between atoms: C_2  and  C_12
REMARK    5  A    between atoms: O_4  and  C_5
REMARK    6  A    between atoms: C_14  and  C_15
REMARK                            x       y       z     vdW  Elec       q    Type
REMARK                         _______ _______ _______ _____ _____    ______ ____
ROOT
ATOM      1  C   UNL     1       1.973   5.086  18.050  0.00  0.00    +0.000 C 
ATOM      2  C   UNL     1       2.837   5.602  19.216  0.00  0.00    +0.000 C 
ATOM      3  C   UNL     1       2.685   4.779  20.508  0.00  0.00    +0.000 C 
ENDROOT
BRANCH   2   4
ATOM      4  C   UNL     1       2.320   6.999  19.509  0.00  0.00    +0.000 A 
ATOM      5  N   UNL     1       1.773   7.455  20.616  0.00  0.00    +0.000 NA
ATOM      6  C   UNL     1       1.277   8.686  20.238  0.00  0.00    +0.000 A 
ATOM      7  N   UNL     1       1.530   8.992  18.951  0.00  0.00    +0.000 NA
ATOM      8  O   UNL     1       2.214   7.874  18.467  0.00  0.00    +0.000 OA
BRANCH   6   9
ATOM      9  C   UNL     1       0.503   9.534  21.144  0.00  0.00    +0.000 A 
ATOM     10  C   UNL     1       0.544   9.346  22.521  0.00  0.00    +0.000 A 
ATOM     11  N   UNL     1      -0.142  10.126  23.400  0.00  0.00    +0.000 NA
ATOM     12  C   UNL     1      -0.877  11.113  22.842  0.00  0.00    +0.000 A 
ATOM     13  C   UNL     1      -0.924  11.314  21.473  0.00  0.00    +0.000 A 
ATOM     14  N   UNL     1      -0.241  10.538  20.599  0.00  0.00    +0.000 NA
ENDBRANCH   6   9
ENDBRANCH   2   4
BRANCH   2  15
ATOM     15  O   UNL     1       4.226   5.754  18.861  0.00  0.00    +0.000 OA
BRANCH  15  16
ATOM     16  C   UNL     1       4.744   5.376  17.654  0.00  0.00    +0.000 A 
ATOM     17  C   UNL     1       5.185   4.106  17.283  0.00  0.00    +0.000 A 
ATOM     18  C   UNL     1       5.686   3.867  16.002  0.00  0.00    +0.000 A 
ATOM     19  C   UNL     1       5.758   4.903  15.085  0.00  0.00    +0.000 A 
ATOM     20  F   UNL     1       6.240   4.669  13.857  0.00  0.00    +0.000 F 
ATOM     21  C   UNL     1       5.340   6.180  15.431  0.00  0.00    +0.000 A 
ATOM     22  C   UNL     1       4.835   6.412  16.714  0.00  0.00    +0.000 A 
ENDBRANCH  15  16
ENDBRANCH   2  15
TORSDOF 4
ENDMDL
MODEL 5
REMARK VINA RESULT:      -7.4      4.150      5.301
REMARK  Name = 
REMARK  6 active torsions:
REMARK  status: ('A' for Active; 'I' for Inactive)
REMARK    1  A    between atoms: C_1  and  C_2
REMARK    2  A    between atoms: C_2  and  C_3
REMARK    3  A    between atoms: C_2  and  O_4
REMARK    4  A    between atoms: C_2  and  C_12
REMARK    5  A    between atoms: O_4  and  C_5
REMARK    6  A    between atoms: C_14  and  C_15
REMARK                            x       y       z     vdW  Elec       q    Type
REMARK                         _______ _______ _______ _____ _____    ______ ____
ROOT
ATOM      1  C   UNL     1       1.931   5.101  18.137  0.00  0.00    +0.000 C 
ATOM      2  C   UNL     1       2.775   5.600  19.325  0.00  0.00    +0.000 C 
ATOM      3  C   UNL     1       2.584   4.771  20.607  0.00  0.00    +0.000 C 
ENDROOT
BRANCH   2   4
ATOM      4  C   UNL     1       2.269   7.001  19.616  0.00  0.00    +0.000 A 
ATOM      5  N   UNL     1       1.702   7.457  20.712  0.00  0.00    +0.000 NA
ATOM      6  C   UNL     1       1.230   8.696  20.331  0.00  0.00    +0.000 A 
ATOM      7  N   UNL     1       1.517   9.007  19.053  0.00  0.00    +0.000 NA
ATOM      8  O   UNL     1       2.197   7.884  18.577  0.00  0.00    +0.000 OA
BRANCH   6   9
ATOM      9  C   UNL     1       0.446   9.548  21.225  0.00  0.00    +0.000 A 
ATOM     10  C   UNL     1       0.456   9.352  22.603  0.00  0.00    +0.000 A 
ATOM     11  N   UNL     1      -0.241  10.135  23.470  0.00  0.00    +0.000 NA
ATOM     12  C   UNL     1      -0.953  11.133  22.902  0.00  0.00    +0.000 A 
ATOM     13  C   UNL     1      -0.969  11.341  21.533  0.00  0.00    +0.000 A 
ATOM     14  N   UNL     1      -0.275  10.563  20.670  0.00  0.00    +0.000 NA
ENDBRANCH   6   9
ENDBRANCH   2   4
BRANCH   2  15
ATOM     15  O   UNL     1       4.173   5.737  19.001  0.00  0.00    +0.000 OA
BRANCH  15  16
ATOM     16  C   UNL     1       4.678   5.578  17.741  0.00  0.00    +0.000 A 
ATOM     17  C   UNL     1       4.802   6.552  16.750  0.00  0.00    +0.000 A 
ATOM     18  C   UNL     1       5.350   6.241  15.504  0.00  0.00    +0.000 A 
ATOM     19  C   UNL     1       5.768   4.947  15.238  0.00  0.00    +0.000 A 
ATOM     20  F   UNL     1       6.292   4.653  14.041  0.00  0.00    +0.000 F 
ATOM     21  C   UNL     1       5.644   3.955  16.200  0.00  0.00    +0.000 A 
ATOM     22  C   UNL     1       5.099   4.274  17.448  0.00  0.00    +0.000 A 
ENDBRANCH  15  16
ENDBRANCH   2  15
TORSDOF 4
ENDMDL
MODEL 6
REMARK VINA RESULT:      -7.4      0.620      1.465
REMARK  Name = 
REMARK  6 active torsions:
REMARK  status: ('A' for Active; 'I' for Inactive)
REMARK    1  A    between atoms: C_1  and  C_2
REMARK    2  A    between atoms: C_2  and  C_3
REMARK    3  A    between atoms: C_2  and  O_4
REMARK    4  A    between atoms: C_2  and  C_12
REMARK    5  A    between atoms: O_4  and  C_5
REMARK    6  A    between atoms: C_14  and  C_15
REMARK                            x       y       z     vdW  Elec       q    Type
REMARK                         _______ _______ _______ _____ _____    ______ ____
ROOT
ATOM      1  C   UNL     1       7.459   4.518  17.134  0.00  0.00    +0.000 C 
ATOM      2  C   UNL     1       6.815   5.913  17.012  0.00  0.00    +0.000 C 
ATOM      3  C   UNL     1       7.624   7.027  17.699  0.00  0.00    +0.000 C 
ENDROOT
BRANCH   2   4
ATOM      4  C   UNL     1       5.487   5.806  17.741  0.00  0.00    +0.000 A 
ATOM      5  N   UNL     1       5.074   4.858  18.556  0.00  0.00    +0.000 NA
ATOM      6  C   UNL     1       3.733   5.143  18.714  0.00  0.00    +0.000 A 
ATOM      7  N   UNL     1       3.337   6.240  18.043  0.00  0.00    +0.000 NA
ATOM      8  O   UNL     1       4.494   6.675  17.393  0.00  0.00    +0.000 OA
BRANCH   6   9
ATOM      9  C   UNL     1       2.834   4.289  19.491  0.00  0.00    +0.000 A 
ATOM     10  C   UNL     1       2.783   4.369  20.879  0.00  0.00    +0.000 A 
ATOM     11  N   UNL     1       1.946   3.611  21.638  0.00  0.00    +0.000 NA
ATOM     12  C   UNL     1       1.154   2.762  20.948  0.00  0.00    +0.000 A 
ATOM     13  C   UNL     1       1.192   2.674  19.567  0.00  0.00    +0.000 A 
ATOM     14  N   UNL     1       2.024   3.430  18.812  0.00  0.00    +0.000 NA
ENDBRANCH   6   9
ENDBRANCH   2   4
BRANCH   2  15
ATOM     15  O   UNL     1       6.498   6.267  15.652  0.00  0.00    +0.000 OA
BRANCH  15  16
ATOM     16  C   UNL     1       6.504   5.376  14.616  0.00  0.00    +0.000 A 
ATOM     17  C   UNL     1       7.501   5.202  13.655  0.00  0.00    +0.000 A 
ATOM     18  C   UNL     1       7.371   4.237  12.654  0.00  0.00    +0.000 A 
ATOM     19  C   UNL     1       6.235   3.444  12.603  0.00  0.00    +0.000 A 
ATOM     20  F   UNL     1       6.115   2.521  11.641  0.00  0.00    +0.000 F 
ATOM     21  C   UNL     1       5.223   3.605  13.538  0.00  0.00    +0.000 A 
ATOM     22  C   UNL     1       5.360   4.570  14.540  0.00  0.00    +0.000 A 
ENDBRANCH  15  16
ENDBRANCH   2  15
TORSDOF 4
ENDMDL
MODEL 7
REMARK VINA RESULT:      -7.3      3.659      7.139
REMARK  Name = 
REMARK  6 active torsions:
REMARK  status: ('A' for Active; 'I' for Inactive)
REMARK    1  A    between atoms: C_1  and  C_2
REMARK    2  A    between atoms: C_2  and  C_3
REMARK    3  A    between atoms: C_2  and  O_4
REMARK    4  A    between atoms: C_2  and  C_12
REMARK    5  A    between atoms: O_4  and  C_5
REMARK    6  A    between atoms: C_14  and  C_15
REMARK                            x       y       z     vdW  Elec       q    Type
REMARK                         _______ _______ _______ _____ _____    ______ ____
ROOT
ATOM      1  C   UNL     1       4.303   3.188  19.884  0.00  0.00    +0.000 C 
ATOM      2  C   UNL     1       3.694   3.099  18.472  0.00  0.00    +0.000 C 
ATOM      3  C   UNL     1       3.497   1.655  17.977  0.00  0.00    +0.000 C 
ENDROOT
BRANCH   2   4
ATOM      4  C   UNL     1       4.710   3.755  17.555  0.00  0.00    +0.000 A 
ATOM      5  N   UNL     1       4.749   3.751  16.239  0.00  0.00    +0.000 NA
ATOM      6  C   UNL     1       5.996   4.272  15.960  0.00  0.00    +0.000 A 
ATOM      7  N   UNL     1       6.693   4.609  17.061  0.00  0.00    +0.000 NA
ATOM      8  O   UNL     1       5.847   4.261  18.116  0.00  0.00    +0.000 OA
BRANCH   6   9
ATOM      9  C   UNL     1       6.514   4.383  14.597  0.00  0.00    +0.000 A 
ATOM     10  C   UNL     1       5.982   3.626  13.557  0.00  0.00    +0.000 A 
ATOM     11  N   UNL     1       6.420   3.716  12.272  0.00  0.00    +0.000 NA
ATOM     12  C   UNL     1       7.418   4.602  12.064  0.00  0.00    +0.000 A 
ATOM     13  C   UNL     1       7.955   5.364  13.088  0.00  0.00    +0.000 A 
ATOM     14  N   UNL     1       7.519   5.276  14.366  0.00  0.00    +0.000 NA
ENDBRANCH   6   9
ENDBRANCH   2   4
BRANCH   2  15
ATOM     15  O   UNL     1       2.479   3.862  18.336  0.00  0.00    +0.000 OA
BRANCH  15  16
ATOM     16  C   UNL     1       2.321   5.129  18.825  0.00  0.00    +0.000 A 
ATOM     17  C   UNL     1       2.627   6.329  18.182  0.00  0.00    +0.000 A 
ATOM     18  C   UNL     1       2.401   7.556  18.809  0.00  0.00    +0.000 A 
ATOM     19  C   UNL     1       1.876   7.589  20.091  0.00  0.00    +0.000 A 
ATOM     20  F   UNL     1       1.662   8.768  20.689  0.00  0.00    +0.000 F 
ATOM     21  C   UNL     1       1.576   6.411  20.760  0.00  0.00    +0.000 A 
ATOM     22  C   UNL     1       1.799   5.185  20.125  0.00  0.00    +0.000 A 
ENDBRANCH  15  16
ENDBRANCH   2  15
TORSDOF 4
ENDMDL
MODEL 8
REMARK VINA RESULT:      -7.2      1.193      1.763
REMARK  Name = 
REMARK  6 active torsions:
REMARK  status: ('A' for Active; 'I' for Inactive)
REMARK    1  A    between atoms: C_1  and  C_2
REMARK    2  A    between atoms: C_2  and  C_3
REMARK    3  A    between atoms: C_2  and  O_4
REMARK    4  A    between atoms: C_2  and  C_12
REMARK    5  A    between atoms: O_4  and  C_5
REMARK    6  A    between atoms: C_14  and  C_15
REMARK                            x       y       z     vdW  Elec       q    Type
REMARK                         _______ _______ _______ _____ _____    ______ ____
ROOT
ATOM      1  C   UNL     1       8.165   5.929  19.356  0.00  0.00    +0.000 C 
ATOM      2  C   UNL     1       7.382   5.931  18.029  0.00  0.00    +0.000 C 
ATOM      3  C   UNL     1       7.490   7.255  17.252  0.00  0.00    +0.000 C 
ENDROOT
BRANCH   2   4
ATOM      4  C   UNL     1       5.926   5.758  18.424  0.00  0.00    +0.000 A 
ATOM      5  N   UNL     1       5.390   4.833  19.191  0.00  0.00    +0.000 NA
ATOM      6  C   UNL     1       4.035   5.011  18.999  0.00  0.00    +0.000 A 
ATOM      7  N   UNL     1       3.743   6.026  18.164  0.00  0.00    +0.000 NA
ATOM      8  O   UNL     1       4.993   6.516  17.777  0.00  0.00    +0.000 OA
BRANCH   6   9
ATOM      9  C   UNL     1       3.033   4.135  19.605  0.00  0.00    +0.000 A 
ATOM     10  C   UNL     1       2.428   4.459  20.816  0.00  0.00    +0.000 A 
ATOM     11  N   UNL     1       1.476   3.684  21.402  0.00  0.00    +0.000 NA
ATOM     12  C   UNL     1       1.146   2.563  20.724  0.00  0.00    +0.000 A 
ATOM     13  C   UNL     1       1.737   2.231  19.517  0.00  0.00    +0.000 A 
ATOM     14  N   UNL     1       2.684   3.002  18.933  0.00  0.00    +0.000 NA
ENDBRANCH   6   9
ENDBRANCH   2   4
BRANCH   2  15
ATOM     15  O   UNL     1       7.705   4.808  17.185  0.00  0.00    +0.000 OA
BRANCH  15  16
ATOM     16  C   UNL     1       7.148   4.601  15.954  0.00  0.00    +0.000 A 
ATOM     17  C   UNL     1       7.582   5.115  14.732  0.00  0.00    +0.000 A 
ATOM     18  C   UNL     1       6.912   4.806  13.546  0.00  0.00    +0.000 A 
ATOM     19  C   UNL     1       5.795   3.986  13.578  0.00  0.00    +0.000 A 
ATOM     20  F   UNL     1       5.156   3.694  12.438  0.00  0.00    +0.000 F 
ATOM     21  C   UNL     1       5.334   3.472  14.782  0.00  0.00    +0.000 A 
ATOM     22  C   UNL     1       6.011   3.781  15.965  0.00  0.00    +0.000 A 
ENDBRANCH  15  16
ENDBRANCH   2  15
TORSDOF 4
ENDMDL
MODEL 9
REMARK VINA RESULT:      -7.2      3.665      7.116
REMARK  Name = 
REMARK  6 active torsions:
REMARK  status: ('A' for Active; 'I' for Inactive)
REMARK    1  A    between atoms: C_1  and  C_2
REMARK    2  A    between atoms: C_2  and  C_3
REMARK    3  A    between atoms: C_2  and  O_4
REMARK    4  A    between atoms: C_2  and  C_12
REMARK    5  A    between atoms: O_4  and  C_5
REMARK    6  A    between atoms: C_14  and  C_15
REMARK                            x       y       z     vdW  Elec       q    Type
REMARK                         _______ _______ _______ _____ _____    ______ ____
ROOT
ATOM      1  C   UNL     1       4.361   3.155  19.816  0.00  0.00    +0.000 C 
ATOM      2  C   UNL     1       3.750   3.081  18.404  0.00  0.00    +0.000 C 
ATOM      3  C   UNL     1       3.564   1.644  17.887  0.00  0.00    +0.000 C 
ENDROOT
BRANCH   2   4
ATOM      4  C   UNL     1       4.760   3.760  17.495  0.00  0.00    +0.000 A 
ATOM      5  N   UNL     1       4.805   3.764  16.180  0.00  0.00    +0.000 NA
ATOM      6  C   UNL     1       6.044   4.307  15.910  0.00  0.00    +0.000 A 
ATOM      7  N   UNL     1       6.730   4.650  17.017  0.00  0.00    +0.000 NA
ATOM      8  O   UNL     1       5.885   4.282  18.065  0.00  0.00    +0.000 OA
BRANCH   6   9
ATOM      9  C   UNL     1       6.567   4.435  14.550  0.00  0.00    +0.000 A 
ATOM     10  C   UNL     1       6.046   3.683  13.502  0.00  0.00    +0.000 A 
ATOM     11  N   UNL     1       6.488   3.788  12.219  0.00  0.00    +0.000 NA
ATOM     12  C   UNL     1       7.480   4.683  12.023  0.00  0.00    +0.000 A 
ATOM     13  C   UNL     1       8.006   5.441  13.056  0.00  0.00    +0.000 A 
ATOM     14  N   UNL     1       7.566   5.337  14.332  0.00  0.00    +0.000 NA
ENDBRANCH   6   9
ENDBRANCH   2   4
BRANCH   2  15
ATOM     15  O   UNL     1       2.529   3.837  18.281  0.00  0.00    +0.000 OA
BRANCH  15  16
ATOM     16  C   UNL     1       2.277   4.987  18.975  0.00  0.00    +0.000 A 
ATOM     17  C   UNL     1       1.716   5.102  20.248  0.00  0.00    +0.000 A 
ATOM     18  C   UNL     1       1.526   6.354  20.837  0.00  0.00    +0.000 A 
ATOM     19  C   UNL     1       1.888   7.502  20.150  0.00  0.00    +0.000 A 
ATOM     20  F   UNL     1       1.703   8.700  20.719  0.00  0.00    +0.000 F 
ATOM     21  C   UNL     1       2.435   7.417  18.878  0.00  0.00    +0.000 A 
ATOM     22  C   UNL     1       2.627   6.161  18.295  0.00  0.00    +0.000 A 
ENDBRANCH  15  16
ENDBRANCH   2  15
TORSDOF 4
ENDMDL
