MODEL 1
REMARK VINA RESULT:      -8.7      0.000      0.000
REMARK  Name = 
REMARK  4 active torsions:
REMARK  status: ('A' for Active; 'I' for Inactive)
REMARK    1  A    between atoms: S_2  and  C_4
REMARK    2  A    between atoms: S_2  and  N_12
REMARK    3  A    between atoms: C_15  and  C_16
REMARK    4  A    between atoms: C_18  and  C_19
REMARK                            x       y       z     vdW  Elec       q    Type
REMARK                         _______ _______ _______ _____ _____    ______ ____
ROOT
ATOM      1  N   UNL     1       4.318   4.995  17.549  0.00  0.00    +0.000 NA
ATOM      2  C   UNL     1       4.402   6.308  16.867  0.00  0.00    +0.000 C 
ATOM      3  C   UNL     1       5.452   6.275  15.754  0.00  0.00    +0.000 C 
ATOM      4  C   UNL     1       6.820   5.822  16.270  0.00  0.00    +0.000 C 
ATOM      5  C   UNL     1       6.662   4.434  16.899  0.00  0.00    +0.000 C 
ATOM      6  C   UNL     1       5.610   4.421  18.002  0.00  0.00    +0.000 C 
ENDROOT
BRANCH   4   7
ATOM      7  C   UNL     1       7.398   6.810  17.230  0.00  0.00    +0.000 A 
ATOM      8  N   UNL     1       7.536   8.108  17.104  0.00  0.00    +0.000 NA
ATOM      9  C   UNL     1       8.240   8.454  18.236  0.00  0.00    +0.000 A 
ATOM     10  N   UNL     1       8.515   7.414  19.039  0.00  0.00    +0.000 NA
ATOM     11  O   UNL     1       7.947   6.323  18.379  0.00  0.00    +0.000 OA
BRANCH   9  12
ATOM     12  C   UNL     1       8.666   9.825  18.478  0.00  0.00    +0.000 A 
ATOM     13  C   UNL     1       8.336  10.834  17.567  0.00  0.00    +0.000 A 
ATOM     14  C   UNL     1       8.767  12.124  17.822  0.00  0.00    +0.000 A 
ATOM     15  N   UNL     1       9.493  12.467  18.904  0.00  0.00    +0.000 NA
ATOM     16  C   UNL     1       9.803  11.481  19.771  0.00  0.00    +0.000 A 
ATOM     17  C   UNL     1       9.419  10.161  19.606  0.00  0.00    +0.000 A 
ENDBRANCH   9  12
ENDBRANCH   4   7
BRANCH   1  19
ATOM     18  O   UNL     1       3.583   4.379  19.922  0.00  0.00    +0.000 OA
ATOM     19  S   UNL     1       3.019   4.808  18.658  0.00  0.00    +0.000 S 
ATOM     20  O   UNL     1       1.963   4.060  18.017  0.00  0.00    +0.000 OA
BRANCH  19  21
ATOM     21  C   UNL     1       2.427   6.477  18.910  0.00  0.00    +0.000 A 
ATOM     22  C   UNL     1       2.254   7.349  17.831  0.00  0.00    +0.000 A 
ATOM     23  C   UNL     1       1.787   8.649  18.062  0.00  0.00    +0.000 A 
ATOM     24  C   UNL     1       1.503   9.070  19.363  0.00  0.00    +0.000 A 
ATOM     25 CL   UNL     1       0.963  10.680  19.640  0.00  0.00    +0.000 Cl
ATOM     26  C   UNL     1       1.660   8.185  20.428  0.00  0.00    +0.000 A 
ATOM     27  F   UNL     1       1.413   8.574  21.688  0.00  0.00    +0.000 F 
ATOM     28  C   UNL     1       2.094   6.882  20.210  0.00  0.00    +0.000 A 
ENDBRANCH  19  21
ENDBRANCH   1  19
TORSDOF 4
ENDMDL
MODEL 2
REMARK VINA RESULT:      -8.7      5.044      7.481
REMARK  Name = 
REMARK  4 active torsions:
REMARK  status: ('A' for Active; 'I' for Inactive)
REMARK    1  A    between atoms: S_2  and  C_4
REMARK    2  A    between atoms: S_2  and  N_12
REMARK    3  A    between atoms: C_15  and  C_16
REMARK    4  A    between atoms: C_18  and  C_19
REMARK                            x       y       z     vdW  Elec       q    Type
REMARK                         _______ _______ _______ _____ _____    ______ ____
ROOT
ATOM      1  N   UNL     1       4.950   4.981  18.239  0.00  0.00    +0.000 NA
ATOM      2  C   UNL     1       4.721   5.128  19.695  0.00  0.00    +0.000 C 
ATOM      3  C   UNL     1       3.391   4.488  20.101  0.00  0.00    +0.000 C 
ATOM      4  C   UNL     1       2.217   5.041  19.290  0.00  0.00    +0.000 C 
ATOM      5  C   UNL     1       2.499   4.794  17.805  0.00  0.00    +0.000 C 
ATOM      6  C   UNL     1       3.826   5.400  17.364  0.00  0.00    +0.000 C 
ENDROOT
BRANCH   4   7
ATOM      7  C   UNL     1       1.982   6.487  19.582  0.00  0.00    +0.000 A 
ATOM      8  N   UNL     1       1.432   7.043  20.635  0.00  0.00    +0.000 NA
ATOM      9  C   UNL     1       1.373   8.374  20.285  0.00  0.00    +0.000 A 
ATOM     10  N   UNL     1       1.880   8.634  19.068  0.00  0.00    +0.000 NA
ATOM     11  O   UNL     1       2.295   7.385  18.605  0.00  0.00    +0.000 OA
BRANCH   9  12
ATOM     12  C   UNL     1       0.768   9.366  21.162  0.00  0.00    +0.000 A 
ATOM     13  C   UNL     1       0.155   8.967  22.354  0.00  0.00    +0.000 A 
ATOM     14  C   UNL     1      -0.420   9.935  23.159  0.00  0.00    +0.000 A 
ATOM     15  N   UNL     1      -0.426  11.249  22.857  0.00  0.00    +0.000 NA
ATOM     16  C   UNL     1       0.168  11.614  21.702  0.00  0.00    +0.000 A 
ATOM     17  C   UNL     1       0.771  10.723  20.831  0.00  0.00    +0.000 A 
ENDBRANCH   9  12
ENDBRANCH   4   7
BRANCH   1  19
ATOM     18  O   UNL     1       7.483   4.649  18.403  0.00  0.00    +0.000 OA
ATOM     19  S   UNL     1       6.509   5.437  17.676  0.00  0.00    +0.000 S 
ATOM     20  O   UNL     1       6.588   6.879  17.643  0.00  0.00    +0.000 OA
BRANCH  19  21
ATOM     21  C   UNL     1       6.543   4.851  15.987  0.00  0.00    +0.000 A 
ATOM     22  C   UNL     1       5.716   3.803  15.573  0.00  0.00    +0.000 A 
ATOM     23  C   UNL     1       5.766   3.369  14.242  0.00  0.00    +0.000 A 
ATOM     24  C   UNL     1       6.641   3.978  13.339  0.00  0.00    +0.000 A 
ATOM     25 CL   UNL     1       6.719   3.415  11.715  0.00  0.00    +0.000 Cl
ATOM     26  C   UNL     1       7.445   5.036  13.759  0.00  0.00    +0.000 A 
ATOM     27  F   UNL     1       8.307   5.621  12.914  0.00  0.00    +0.000 F 
ATOM     28  C   UNL     1       7.384   5.496  15.070  0.00  0.00    +0.000 A 
ENDBRANCH  19  21
ENDBRANCH   1  19
TORSDOF 4
ENDMDL
MODEL 3
REMARK VINA RESULT:      -8.5      0.869      1.261
REMARK  Name = 
REMARK  4 active torsions:
REMARK  status: ('A' for Active; 'I' for Inactive)
REMARK    1  A    between atoms: S_2  and  C_4
REMARK    2  A    between atoms: S_2  and  N_12
REMARK    3  A    between atoms: C_15  and  C_16
REMARK    4  A    between atoms: C_18  and  C_19
REMARK                            x       y       z     vdW  Elec       q    Type
REMARK                         _______ _______ _______ _____ _____    ______ ____
ROOT
ATOM      1  N   UNL     1       4.218   4.984  17.635  0.00  0.00    +0.000 NA
ATOM      2  C   UNL     1       4.267   6.323  17.001  0.00  0.00    +0.000 C 
ATOM      3  C   UNL     1       5.254   6.331  15.831  0.00  0.00    +0.000 C 
ATOM      4  C   UNL     1       6.647   5.858  16.251  0.00  0.00    +0.000 C 
ATOM      5  C   UNL     1       6.521   4.447  16.835  0.00  0.00    +0.000 C 
ATOM      6  C   UNL     1       5.532   4.392  17.993  0.00  0.00    +0.000 C 
ENDROOT
BRANCH   4   7
ATOM      7  C   UNL     1       7.281   6.808  17.214  0.00  0.00    +0.000 A 
ATOM      8  N   UNL     1       7.425   8.109  17.125  0.00  0.00    +0.000 NA
ATOM      9  C   UNL     1       8.186   8.410  18.233  0.00  0.00    +0.000 A 
ATOM     10  N   UNL     1       8.489   7.341  18.986  0.00  0.00    +0.000 NA
ATOM     11  O   UNL     1       7.880   6.278  18.319  0.00  0.00    +0.000 OA
BRANCH   9  12
ATOM     12  C   UNL     1       8.637   9.769  18.500  0.00  0.00    +0.000 A 
ATOM     13  C   UNL     1       8.362  10.792  17.586  0.00  0.00    +0.000 A 
ATOM     14  C   UNL     1       8.814  12.069  17.866  0.00  0.00    +0.000 A 
ATOM     15  N   UNL     1       9.512  12.386  18.974  0.00  0.00    +0.000 NA
ATOM     16  C   UNL     1       9.770  11.387  19.843  0.00  0.00    +0.000 A 
ATOM     17  C   UNL     1       9.360  10.078  19.654  0.00  0.00    +0.000 A 
ENDBRANCH   9  12
ENDBRANCH   4   7
BRANCH   1  19
ATOM     18  O   UNL     1       3.616   4.293  20.025  0.00  0.00    +0.000 OA
ATOM     19  S   UNL     1       2.982   4.756  18.808  0.00  0.00    +0.000 S 
ATOM     20  O   UNL     1       1.897   4.020  18.202  0.00  0.00    +0.000 OA
BRANCH  19  21
ATOM     21  C   UNL     1       2.397   6.412  19.141  0.00  0.00    +0.000 A 
ATOM     22  C   UNL     1       2.021   6.795  20.432  0.00  0.00    +0.000 A 
ATOM     23  C   UNL     1       1.568   8.101  20.660  0.00  0.00    +0.000 A 
ATOM     24  C   UNL     1       1.488   9.009  19.602  0.00  0.00    +0.000 A 
ATOM     25 CL   UNL     1       0.899  10.600  19.886  0.00  0.00    +0.000 Cl
ATOM     26  C   UNL     1       1.886   8.621  18.324  0.00  0.00    +0.000 A 
ATOM     27  F   UNL     1       1.798   9.471  17.289  0.00  0.00    +0.000 F 
ATOM     28  C   UNL     1       2.365   7.338  18.089  0.00  0.00    +0.000 A 
ENDBRANCH  19  21
ENDBRANCH   1  19
TORSDOF 4
ENDMDL
MODEL 4
REMARK VINA RESULT:      -8.4      3.113      5.907
REMARK  Name = 
REMARK  4 active torsions:
REMARK  status: ('A' for Active; 'I' for Inactive)
REMARK    1  A    between atoms: S_2  and  C_4
REMARK    2  A    between atoms: S_2  and  N_12
REMARK    3  A    between atoms: C_15  and  C_16
REMARK    4  A    between atoms: C_18  and  C_19
REMARK                            x       y       z     vdW  Elec       q    Type
REMARK                         _______ _______ _______ _____ _____    ______ ____
ROOT
ATOM      1  N   UNL     1       4.702   5.293  18.253  0.00  0.00    +0.000 NA
ATOM      2  C   UNL     1       5.499   4.092  17.912  0.00  0.00    +0.000 C 
ATOM      3  C   UNL     1       6.996   4.411  17.934  0.00  0.00    +0.000 C 
ATOM      4  C   UNL     1       7.345   5.592  17.026  0.00  0.00    +0.000 C 
ATOM      5  C   UNL     1       6.532   6.807  17.482  0.00  0.00    +0.000 C 
ATOM      6  C   UNL     1       5.034   6.524  17.491  0.00  0.00    +0.000 C 
ENDROOT
BRANCH   4   7
ATOM      7  C   UNL     1       7.106   5.266  15.587  0.00  0.00    +0.000 A 
ATOM      8  N   UNL     1       6.264   4.411  15.058  0.00  0.00    +0.000 NA
ATOM      9  C   UNL     1       6.583   4.453  13.719  0.00  0.00    +0.000 A 
ATOM     10  N   UNL     1       7.574   5.312  13.428  0.00  0.00    +0.000 NA
ATOM     11  O   UNL     1       7.915   5.861  14.664  0.00  0.00    +0.000 OA
BRANCH   9  12
ATOM     12  C   UNL     1       5.915   3.598  12.749  0.00  0.00    +0.000 A 
ATOM     13  C   UNL     1       6.558   2.455  12.261  0.00  0.00    +0.000 A 
ATOM     14  C   UNL     1       5.899   1.670  11.332  0.00  0.00    +0.000 A 
ATOM     15  N   UNL     1       4.665   1.946  10.865  0.00  0.00    +0.000 NA
ATOM     16  C   UNL     1       4.062   3.052  11.345  0.00  0.00    +0.000 A 
ATOM     17  C   UNL     1       4.636   3.900  12.276  0.00  0.00    +0.000 A 
ENDBRANCH   9  12
ENDBRANCH   4   7
BRANCH   1  19
ATOM     18  O   UNL     1       2.876   4.248  19.711  0.00  0.00    +0.000 OA
ATOM     19  S   UNL     1       3.022   5.032  18.501  0.00  0.00    +0.000 S 
ATOM     20  O   UNL     1       2.428   4.604  17.255  0.00  0.00    +0.000 OA
BRANCH  19  21
ATOM     21  C   UNL     1       2.386   6.661  18.875  0.00  0.00    +0.000 A 
ATOM     22  C   UNL     1       2.190   7.606  17.863  0.00  0.00    +0.000 A 
ATOM     23  C   UNL     1       1.688   8.873  18.190  0.00  0.00    +0.000 A 
ATOM     24  C   UNL     1       1.393   9.187  19.518  0.00  0.00    +0.000 A 
ATOM     25 CL   UNL     1       0.809  10.757  19.912  0.00  0.00    +0.000 Cl
ATOM     26  C   UNL     1       1.572   8.230  20.514  0.00  0.00    +0.000 A 
ATOM     27  F   UNL     1       1.313   8.517  21.799  0.00  0.00    +0.000 F 
ATOM     28  C   UNL     1       2.041   6.959  20.200  0.00  0.00    +0.000 A 
ENDBRANCH  19  21
ENDBRANCH   1  19
TORSDOF 4
ENDMDL
MODEL 5
REMARK VINA RESULT:      -8.3      3.224      6.010
REMARK  Name = 
REMARK  4 active torsions:
REMARK  status: ('A' for Active; 'I' for Inactive)
REMARK    1  A    between atoms: S_2  and  C_4
REMARK    2  A    between atoms: S_2  and  N_12
REMARK    3  A    between atoms: C_15  and  C_16
REMARK    4  A    between atoms: C_18  and  C_19
REMARK                            x       y       z     vdW  Elec       q    Type
REMARK                         _______ _______ _______ _____ _____    ______ ____
ROOT
ATOM      1  N   UNL     1       4.774   5.240  18.212  0.00  0.00    +0.000 NA
ATOM      2  C   UNL     1       5.613   4.068  17.871  0.00  0.00    +0.000 C 
ATOM      3  C   UNL     1       7.097   4.445  17.879  0.00  0.00    +0.000 C 
ATOM      4  C   UNL     1       7.393   5.633  16.962  0.00  0.00    +0.000 C 
ATOM      5  C   UNL     1       6.537   6.819  17.418  0.00  0.00    +0.000 C 
ATOM      6  C   UNL     1       5.052   6.478  17.441  0.00  0.00    +0.000 C 
ENDROOT
BRANCH   4   7
ATOM      7  C   UNL     1       7.155   5.291  15.527  0.00  0.00    +0.000 A 
ATOM      8  N   UNL     1       6.308   4.435  15.007  0.00  0.00    +0.000 NA
ATOM      9  C   UNL     1       6.631   4.457  13.669  0.00  0.00    +0.000 A 
ATOM     10  N   UNL     1       7.629   5.304  13.369  0.00  0.00    +0.000 NA
ATOM     11  O   UNL     1       7.971   5.867  14.599  0.00  0.00    +0.000 OA
BRANCH   9  12
ATOM     12  C   UNL     1       5.959   3.593  12.708  0.00  0.00    +0.000 A 
ATOM     13  C   UNL     1       4.658   3.891  12.289  0.00  0.00    +0.000 A 
ATOM     14  C   UNL     1       4.044   3.043  11.384  0.00  0.00    +0.000 A 
ATOM     15  N   UNL     1       4.630   1.938  10.881  0.00  0.00    +0.000 NA
ATOM     16  C   UNL     1       5.884   1.666  11.300  0.00  0.00    +0.000 A 
ATOM     17  C   UNL     1       6.583   2.452  12.200  0.00  0.00    +0.000 A 
ENDBRANCH   9  12
ENDBRANCH   4   7
BRANCH   1  19
ATOM     18  O   UNL     1       3.009   4.044  19.628  0.00  0.00    +0.000 OA
ATOM     19  S   UNL     1       3.106   4.916  18.475  0.00  0.00    +0.000 S 
ATOM     20  O   UNL     1       2.496   4.562  17.215  0.00  0.00    +0.000 OA
BRANCH  19  21
ATOM     21  C   UNL     1       2.437   6.495  18.979  0.00  0.00    +0.000 A 
ATOM     22  C   UNL     1       2.068   6.730  20.307  0.00  0.00    +0.000 A 
ATOM     23  C   UNL     1       1.548   7.980  20.669  0.00  0.00    +0.000 A 
ATOM     24  C   UNL     1       1.395   8.979  19.706  0.00  0.00    +0.000 A 
ATOM     25 CL   UNL     1       0.724  10.499  20.154  0.00  0.00    +0.000 Cl
ATOM     26  C   UNL     1       1.786   8.741  18.390  0.00  0.00    +0.000 A 
ATOM     27  F   UNL     1       1.629   9.680  17.445  0.00  0.00    +0.000 F 
ATOM     28  C   UNL     1       2.331   7.515  18.023  0.00  0.00    +0.000 A 
ENDBRANCH  19  21
ENDBRANCH   1  19
TORSDOF 4
ENDMDL
MODEL 6
REMARK VINA RESULT:      -8.2      2.999      3.490
REMARK  Name = 
REMARK  4 active torsions:
REMARK  status: ('A' for Active; 'I' for Inactive)
REMARK    1  A    between atoms: S_2  and  C_4
REMARK    2  A    between atoms: S_2  and  N_12
REMARK    3  A    between atoms: C_15  and  C_16
REMARK    4  A    between atoms: C_18  and  C_19
REMARK                            x       y       z     vdW  Elec       q    Type
REMARK                         _______ _______ _______ _____ _____    ______ ____
ROOT
ATOM      1  N   UNL     1       5.239   4.811  18.050  0.00  0.00    +0.000 NA
ATOM      2  C   UNL     1       6.184   4.986  16.923  0.00  0.00    +0.000 C 
ATOM      3  C   UNL     1       7.620   4.702  17.372  0.00  0.00    +0.000 C 
ATOM      4  C   UNL     1       8.023   5.552  18.579  0.00  0.00    +0.000 C 
ATOM      5  C   UNL     1       7.039   5.267  19.719  0.00  0.00    +0.000 C 
ATOM      6  C   UNL     1       5.594   5.520  19.305  0.00  0.00    +0.000 C 
ENDROOT
BRANCH   4   7
ATOM      7  C   UNL     1       8.074   7.005  18.234  0.00  0.00    +0.000 A 
ATOM      8  N   UNL     1       8.721   7.978  18.830  0.00  0.00    +0.000 NA
ATOM      9  C   UNL     1       8.289   9.095  18.151  0.00  0.00    +0.000 A 
ATOM     10  N   UNL     1       7.419   8.824  17.165  0.00  0.00    +0.000 NA
ATOM     11  O   UNL     1       7.284   7.436  17.210  0.00  0.00    +0.000 OA
BRANCH   9  12
ATOM     12  C   UNL     1       8.724  10.432  18.530  0.00  0.00    +0.000 A 
ATOM     13  C   UNL     1       8.472  11.517  17.683  0.00  0.00    +0.000 A 
ATOM     14  C   UNL     1       8.910  12.772  18.068  0.00  0.00    +0.000 A 
ATOM     15  N   UNL     1       9.571  13.011  19.218  0.00  0.00    +0.000 NA
ATOM     16  C   UNL     1       9.806  11.952  20.020  0.00  0.00    +0.000 A 
ATOM     17  C   UNL     1       9.408  10.660  19.725  0.00  0.00    +0.000 A 
ENDBRANCH   9  12
ENDBRANCH   4   7
BRANCH   1  19
ATOM     18  O   UNL     1       3.367   3.967  16.521  0.00  0.00    +0.000 OA
ATOM     19  S   UNL     1       3.570   4.862  17.642  0.00  0.00    +0.000 S 
ATOM     20  O   UNL     1       3.147   6.242  17.585  0.00  0.00    +0.000 OA
BRANCH  19  21
ATOM     21  C   UNL     1       2.762   4.104  19.046  0.00  0.00    +0.000 A 
ATOM     22  C   UNL     1       1.406   4.328  19.303  0.00  0.00    +0.000 A 
ATOM     23  C   UNL     1       0.803   3.718  20.411  0.00  0.00    +0.000 A 
ATOM     24  C   UNL     1       1.556   2.897  21.253  0.00  0.00    +0.000 A 
ATOM     25 CL   UNL     1       0.814   2.179  22.630  0.00  0.00    +0.000 Cl
ATOM     26  C   UNL     1       2.902   2.664  20.975  0.00  0.00    +0.000 A 
ATOM     27  F   UNL     1       3.648   1.896  21.782  0.00  0.00    +0.000 F 
ATOM     28  C   UNL     1       3.505   3.240  19.862  0.00  0.00    +0.000 A 
ENDBRANCH  19  21
ENDBRANCH   1  19
TORSDOF 4
ENDMDL
MODEL 7
REMARK VINA RESULT:      -8.1      6.999     10.476
REMARK  Name = 
REMARK  4 active torsions:
REMARK  status: ('A' for Active; 'I' for Inactive)
REMARK    1  A    between atoms: S_2  and  C_4
REMARK    2  A    between atoms: S_2  and  N_12
REMARK    3  A    between atoms: C_15  and  C_16
REMARK    4  A    between atoms: C_18  and  C_19
REMARK                            x       y       z     vdW  Elec       q    Type
REMARK                         _______ _______ _______ _____ _____    ______ ____
ROOT
ATOM      1  N   UNL     1       0.410  10.315  20.301  0.00  0.00    +0.000 NA
ATOM      2  C   UNL     1      -0.813  10.172  19.476  0.00  0.00    +0.000 C 
ATOM      3  C   UNL     1      -0.900  11.294  18.439  0.00  0.00    +0.000 C 
ATOM      4  C   UNL     1      -0.817  12.680  19.084  0.00  0.00    +0.000 C 
ATOM      5  C   UNL     1       0.499  12.771  19.862  0.00  0.00    +0.000 C 
ATOM      6  C   UNL     1       0.634  11.657  20.894  0.00  0.00    +0.000 C 
ENDROOT
BRANCH   4   7
ATOM      7  C   UNL     1      -2.001  12.951  19.955  0.00  0.00    +0.000 A 
ATOM      8  N   UNL     1      -3.138  12.301  20.037  0.00  0.00    +0.000 NA
ATOM      9  C   UNL     1      -3.875  13.080  20.900  0.00  0.00    +0.000 A 
ATOM     10  N   UNL     1      -3.217  14.162  21.346  0.00  0.00    +0.000 NA
ATOM     11  O   UNL     1      -1.969  14.072  20.730  0.00  0.00    +0.000 OA
BRANCH   9  12
ATOM     12  C   UNL     1      -5.253  12.750  21.236  0.00  0.00    +0.000 A 
ATOM     13  C   UNL     1      -6.043  12.032  20.331  0.00  0.00    +0.000 A 
ATOM     14  C   UNL     1      -7.351  11.745  20.677  0.00  0.00    +0.000 A 
ATOM     15  N   UNL     1      -7.914  12.121  21.842  0.00  0.00    +0.000 NA
ATOM     16  C   UNL     1      -7.138  12.814  22.701  0.00  0.00    +0.000 A 
ATOM     17  C   UNL     1      -5.819  13.149  22.448  0.00  0.00    +0.000 A 
ENDBRANCH   9  12
ENDBRANCH   4   7
BRANCH   1  19
ATOM     18  O   UNL     1      -0.491   8.385  21.721  0.00  0.00    +0.000 OA
ATOM     19  S   UNL     1       0.767   8.997  21.346  0.00  0.00    +0.000 S 
ATOM     20  O   UNL     1       1.713   9.439  22.345  0.00  0.00    +0.000 OA
BRANCH  19  21
ATOM     21  C   UNL     1       1.603   7.825  20.286  0.00  0.00    +0.000 A 
ATOM     22  C   UNL     1       1.734   6.484  20.660  0.00  0.00    +0.000 A 
ATOM     23  C   UNL     1       2.394   5.590  19.806  0.00  0.00    +0.000 A 
ATOM     24  C   UNL     1       2.921   6.041  18.594  0.00  0.00    +0.000 A 
ATOM     25 CL   UNL     1       3.758   4.942  17.568  0.00  0.00    +0.000 Cl
ATOM     26  C   UNL     1       2.765   7.375  18.223  0.00  0.00    +0.000 A 
ATOM     27  F   UNL     1       3.282   7.833  17.072  0.00  0.00    +0.000 F 
ATOM     28  C   UNL     1       2.087   8.266  19.047  0.00  0.00    +0.000 A 
ENDBRANCH  19  21
ENDBRANCH   1  19
TORSDOF 4
ENDMDL
MODEL 8
REMARK VINA RESULT:      -8.1      7.029     10.518
REMARK  Name = 
REMARK  4 active torsions:
REMARK  status: ('A' for Active; 'I' for Inactive)
REMARK    1  A    between atoms: S_2  and  C_4
REMARK    2  A    between atoms: S_2  and  N_12
REMARK    3  A    between atoms: C_15  and  C_16
REMARK    4  A    between atoms: C_18  and  C_19
REMARK                            x       y       z     vdW  Elec       q    Type
REMARK                         _______ _______ _______ _____ _____    ______ ____
ROOT
ATOM      1  N   UNL     1       0.370  10.412  20.253  0.00  0.00    +0.000 NA
ATOM      2  C   UNL     1      -0.860  10.279  19.438  0.00  0.00    +0.000 C 
ATOM      3  C   UNL     1      -0.975  11.433  18.440  0.00  0.00    +0.000 C 
ATOM      4  C   UNL     1      -0.903  12.798  19.129  0.00  0.00    +0.000 C 
ATOM      5  C   UNL     1       0.421  12.882  19.894  0.00  0.00    +0.000 C 
ATOM      6  C   UNL     1       0.583  11.738  20.888  0.00  0.00    +0.000 C 
ENDROOT
BRANCH   4   7
ATOM      7  C   UNL     1      -2.080  13.024  20.021  0.00  0.00    +0.000 A 
ATOM      8  N   UNL     1      -3.198  12.343  20.109  0.00  0.00    +0.000 NA
ATOM      9  C   UNL     1      -3.943  13.089  20.996  0.00  0.00    +0.000 A 
ATOM     10  N   UNL     1      -3.306  14.180  21.450  0.00  0.00    +0.000 NA
ATOM     11  O   UNL     1      -2.065  14.133  20.814  0.00  0.00    +0.000 OA
BRANCH   9  12
ATOM     12  C   UNL     1      -5.306  12.718  21.346  0.00  0.00    +0.000 A 
ATOM     13  C   UNL     1      -5.815  13.030  22.611  0.00  0.00    +0.000 A 
ATOM     14  C   UNL     1      -7.111  12.653  22.915  0.00  0.00    +0.000 A 
ATOM     15  N   UNL     1      -7.916  11.994  22.058  0.00  0.00    +0.000 NA
ATOM     16  C   UNL     1      -7.408  11.699  20.844  0.00  0.00    +0.000 A 
ATOM     17  C   UNL     1      -6.126  12.035  20.445  0.00  0.00    +0.000 A 
ENDBRANCH   9  12
ENDBRANCH   4   7
BRANCH   1  19
ATOM     18  O   UNL     1      -0.486   8.411  21.601  0.00  0.00    +0.000 OA
ATOM     19  S   UNL     1       0.758   9.066  21.250  0.00  0.00    +0.000 S 
ATOM     20  O   UNL     1       1.691   9.494  22.267  0.00  0.00    +0.000 OA
BRANCH  19  21
ATOM     21  C   UNL     1       1.623   7.953  20.151  0.00  0.00    +0.000 A 
ATOM     22  C   UNL     1       2.065   8.382  18.896  0.00  0.00    +0.000 A 
ATOM     23  C   UNL     1       2.742   7.485  18.059  0.00  0.00    +0.000 A 
ATOM     24  C   UNL     1       2.965   6.171  18.476  0.00  0.00    +0.000 A 
ATOM     25 CL   UNL     1       3.767   5.068  17.426  0.00  0.00    +0.000 Cl
ATOM     26  C   UNL     1       2.538   5.761  19.737  0.00  0.00    +0.000 A 
ATOM     27  F   UNL     1       2.723   4.499  20.150  0.00  0.00    +0.000 F 
ATOM     28  C   UNL     1       1.891   6.650  20.590  0.00  0.00    +0.000 A 
ENDBRANCH  19  21
ENDBRANCH   1  19
TORSDOF 4
ENDMDL
MODEL 9
REMARK VINA RESULT:      -8.1      5.075      7.088
REMARK  Name = 
REMARK  4 active torsions:
REMARK  status: ('A' for Active; 'I' for Inactive)
REMARK    1  A    between atoms: S_2  and  C_4
REMARK    2  A    between atoms: S_2  and  N_12
REMARK    3  A    between atoms: C_15  and  C_16
REMARK    4  A    between atoms: C_18  and  C_19
REMARK                            x       y       z     vdW  Elec       q    Type
REMARK                         _______ _______ _______ _____ _____    ______ ____
ROOT
ATOM      1  N   UNL     1       5.300   4.263  17.899  0.00  0.00    +0.000 NA
ATOM      2  C   UNL     1       5.098   4.212  19.366  0.00  0.00    +0.000 C 
ATOM      3  C   UNL     1       3.897   3.331  19.716  0.00  0.00    +0.000 C 
ATOM      4  C   UNL     1       2.625   3.776  18.989  0.00  0.00    +0.000 C 
ATOM      5  C   UNL     1       2.895   3.739  17.481  0.00  0.00    +0.000 C 
ATOM      6  C   UNL     1       4.097   4.592  17.093  0.00  0.00    +0.000 C 
ENDROOT
BRANCH   4   7
ATOM      7  C   UNL     1       2.179   5.127  19.445  0.00  0.00    +0.000 A 
ATOM      8  N   UNL     1       2.085   6.245  18.764  0.00  0.00    +0.000 NA
ATOM      9  C   UNL     1       1.748   7.166  19.731  0.00  0.00    +0.000 A 
ATOM     10  N   UNL     1       1.623   6.637  20.959  0.00  0.00    +0.000 NA
ATOM     11  O   UNL     1       1.896   5.283  20.770  0.00  0.00    +0.000 OA
BRANCH   9  12
ATOM     12  C   UNL     1       1.595   8.579  19.415  0.00  0.00    +0.000 A 
ATOM     13  C   UNL     1       2.062   9.080  18.195  0.00  0.00    +0.000 A 
ATOM     14  C   UNL     1       1.911  10.430  17.932  0.00  0.00    +0.000 A 
ATOM     15  N   UNL     1       1.339  11.297  18.791  0.00  0.00    +0.000 NA
ATOM     16  C   UNL     1       0.898  10.796  19.963  0.00  0.00    +0.000 A 
ATOM     17  C   UNL     1       1.001   9.463  20.318  0.00  0.00    +0.000 A 
ENDBRANCH   9  12
ENDBRANCH   4   7
BRANCH   1  19
ATOM     18  O   UNL     1       7.859   4.290  17.951  0.00  0.00    +0.000 OA
ATOM     19  S   UNL     1       6.751   5.017  17.368  0.00  0.00    +0.000 S 
ATOM     20  O   UNL     1       6.621   6.446  17.538  0.00  0.00    +0.000 OA
BRANCH  19  21
ATOM     21  C   UNL     1       6.792   4.680  15.613  0.00  0.00    +0.000 A 
ATOM     22  C   UNL     1       5.951   3.718  15.046  0.00  0.00    +0.000 A 
ATOM     23  C   UNL     1       6.007   3.479  13.666  0.00  0.00    +0.000 A 
ATOM     24  C   UNL     1       6.902   4.195  12.868  0.00  0.00    +0.000 A 
ATOM     25 CL   UNL     1       6.986   3.871  11.180  0.00  0.00    +0.000 Cl
ATOM     26  C   UNL     1       7.719   5.167  13.442  0.00  0.00    +0.000 A 
ATOM     27  F   UNL     1       8.600   5.852  12.697  0.00  0.00    +0.000 F 
ATOM     28  C   UNL     1       7.653   5.435  14.804  0.00  0.00    +0.000 A 
ENDBRANCH  19  21
ENDBRANCH   1  19
TORSDOF 4
ENDMDL
