MODEL 1
REMARK VINA RESULT:      -7.4      0.000      0.000
REMARK  Name = 
REMARK  8 active torsions:
REMARK  status: ('A' for Active; 'I' for Inactive)
REMARK    1  A    between atoms: C_1  and  C_2
REMARK    2  A    between atoms: N_4  and  C_5
REMARK    3  A    between atoms: C_13  and  C_14
REMARK    4  A    between atoms: N_16  and  C_17
REMARK    5  A    between atoms: C_17  and  C_18
REMARK    6  A    between atoms: C_18  and  C_19
REMARK    7  A    between atoms: C_18  and  C_20
REMARK    8  A    between atoms: C_20  and  O_22
REMARK                            x       y       z     vdW  Elec       q    Type
REMARK                         _______ _______ _______ _____ _____    ______ ____
ROOT
ATOM      1  C   UNL     1       1.979   3.414  20.839  0.00  0.00    +0.000 C 
ATOM      2  C   UNL     1       2.289   4.787  20.358  0.00  0.00    +0.000 A 
ATOM      3  N   UNL     1       1.593   5.830  20.827  0.00  0.00    +0.000 NA
ATOM      4  N   UNL     1       2.068   6.905  20.156  0.00  0.00    +0.000 N 
ATOM      5  C   UNL     1       3.099   6.549  19.316  0.00  0.00    +0.000 A 
ATOM      6  C   UNL     1       3.276   5.181  19.416  0.00  0.00    +0.000 A 
ENDROOT
BRANCH   4   7
ATOM      7  C   UNL     1       1.501   8.200  20.338  0.00  0.00    +0.000 A 
ATOM      8  C   UNL     1       1.349   9.053  19.232  0.00  0.00    +0.000 A 
ATOM      9  C   UNL     1       0.811  10.333  19.399  0.00  0.00    +0.000 A 
ATOM     10  C   UNL     1       0.431  10.767  20.666  0.00  0.00    +0.000 A 
ATOM     11 CL   UNL     1      -0.217  12.347  20.875  0.00  0.00    +0.000 Cl
ATOM     12  C   UNL     1       0.575   9.929  21.770  0.00  0.00    +0.000 A 
ATOM     13  C   UNL     1       1.105   8.645  21.609  0.00  0.00    +0.000 A 
ENDBRANCH   4   7
BRANCH   6  14
ATOM     14  C   UNL     1       4.223   4.340  18.700  0.00  0.00    +0.000 C 
ATOM     15  O   UNL     1       4.991   3.575  19.270  0.00  0.00    +0.000 OA
ATOM     16  N   UNL     1       4.173   4.441  17.326  0.00  0.00    +0.000 N 
ATOM     17  H   UNL     1       3.608   5.169  16.910  0.00  0.00    +0.000 HD
BRANCH  16  18
ATOM     18  C   UNL     1       5.100   3.741  16.454  0.00  0.00    +0.000 C 
BRANCH  18  19
ATOM     19  C   UNL     1       5.865   4.664  15.503  0.00  0.00    +0.000 C 
ATOM     20  C   UNL     1       6.196   3.929  14.204  0.00  0.00    +0.000 C 
BRANCH  19  21
ATOM     21  C   UNL     1       7.147   5.123  16.168  0.00  0.00    +0.000 C 
ATOM     22  O   UNL     1       7.588   6.262  16.121  0.00  0.00    +0.000 OA
BRANCH  21  23
ATOM     23  O   UNL     1       7.807   4.125  16.802  0.00  0.00    +0.000 OA
ATOM     24  H   UNL     1       7.598   3.236  16.452  0.00  0.00    +0.000 HD
ENDBRANCH  21  23
ENDBRANCH  19  21
ENDBRANCH  18  19
ENDBRANCH  16  18
ENDBRANCH   6  14
TORSDOF 6
ENDMDL
MODEL 2
REMARK VINA RESULT:      -7.4      2.851      4.126
REMARK  Name = 
REMARK  8 active torsions:
REMARK  status: ('A' for Active; 'I' for Inactive)
REMARK    1  A    between atoms: C_1  and  C_2
REMARK    2  A    between atoms: N_4  and  C_5
REMARK    3  A    between atoms: C_13  and  C_14
REMARK    4  A    between atoms: N_16  and  C_17
REMARK    5  A    between atoms: C_17  and  C_18
REMARK    6  A    between atoms: C_18  and  C_19
REMARK    7  A    between atoms: C_18  and  C_20
REMARK    8  A    between atoms: C_20  and  O_22
REMARK                            x       y       z     vdW  Elec       q    Type
REMARK                         _______ _______ _______ _____ _____    ______ ____
ROOT
ATOM      1  C   UNL     1       3.001   7.752  17.483  0.00  0.00    +0.000 C 
ATOM      2  C   UNL     1       2.328   7.775  18.810  0.00  0.00    +0.000 A 
ATOM      3  N   UNL     1       1.524   8.796  19.132  0.00  0.00    +0.000 NA
ATOM      4  N   UNL     1       1.130   8.551  20.403  0.00  0.00    +0.000 N 
ATOM      5  C   UNL     1       1.634   7.352  20.856  0.00  0.00    +0.000 A 
ATOM      6  C   UNL     1       2.419   6.815  19.852  0.00  0.00    +0.000 A 
ENDROOT
BRANCH   4   7
ATOM      7  C   UNL     1       0.318   9.479  21.117  0.00  0.00    +0.000 A 
ATOM      8  C   UNL     1      -0.130  10.646  20.475  0.00  0.00    +0.000 A 
ATOM      9  C   UNL     1      -0.913  11.575  21.169  0.00  0.00    +0.000 A 
ATOM     10  C   UNL     1      -1.243  11.346  22.502  0.00  0.00    +0.000 A 
ATOM     11 CL   UNL     1      -2.192  12.495  23.362  0.00  0.00    +0.000 Cl
ATOM     12  C   UNL     1      -0.805  10.192  23.149  0.00  0.00    +0.000 A 
ATOM     13  C   UNL     1      -0.029   9.256  22.458  0.00  0.00    +0.000 A 
ENDBRANCH   4   7
BRANCH   6  14
ATOM     14  C   UNL     1       3.185   5.577  19.871  0.00  0.00    +0.000 C 
ATOM     15  O   UNL     1       4.381   5.534  19.609  0.00  0.00    +0.000 OA
ATOM     16  N   UNL     1       2.473   4.455  20.237  0.00  0.00    +0.000 N 
ATOM     17  H   UNL     1       1.468   4.522  20.327  0.00  0.00    +0.000 HD
BRANCH  16  18
ATOM     18  C   UNL     1       3.051   3.123  20.228  0.00  0.00    +0.000 C 
BRANCH  18  19
ATOM     19  C   UNL     1       2.376   2.166  19.243  0.00  0.00    +0.000 C 
ATOM     20  C   UNL     1       3.340   1.801  18.115  0.00  0.00    +0.000 C 
BRANCH  19  21
ATOM     21  C   UNL     1       1.143   2.828  18.663  0.00  0.00    +0.000 C 
ATOM     22  O   UNL     1       1.133   3.528  17.661  0.00  0.00    +0.000 OA
BRANCH  21  23
ATOM     23  O   UNL     1       0.024   2.608  19.394  0.00  0.00    +0.000 OA
ATOM     24  H   UNL     1      -0.740   3.146  19.109  0.00  0.00    +0.000 HD
ENDBRANCH  21  23
ENDBRANCH  19  21
ENDBRANCH  18  19
ENDBRANCH  16  18
ENDBRANCH   6  14
TORSDOF 6
ENDMDL
MODEL 3
REMARK VINA RESULT:      -7.3      1.118      1.268
REMARK  Name = 
REMARK  8 active torsions:
REMARK  status: ('A' for Active; 'I' for Inactive)
REMARK    1  A    between atoms: C_1  and  C_2
REMARK    2  A    between atoms: N_4  and  C_5
REMARK    3  A    between atoms: C_13  and  C_14
REMARK    4  A    between atoms: N_16  and  C_17
REMARK    5  A    between atoms: C_17  and  C_18
REMARK    6  A    between atoms: C_18  and  C_19
REMARK    7  A    between atoms: C_18  and  C_20
REMARK    8  A    between atoms: C_20  and  O_22
REMARK                            x       y       z     vdW  Elec       q    Type
REMARK                         _______ _______ _______ _____ _____    ______ ____
ROOT
ATOM      1  C   UNL     1       3.196   3.262  20.195  0.00  0.00    +0.000 C 
ATOM      2  C   UNL     1       3.234   4.654  19.675  0.00  0.00    +0.000 A 
ATOM      3  N   UNL     1       2.403   5.576  20.176  0.00  0.00    +0.000 NA
ATOM      4  N   UNL     1       2.641   6.698  19.459  0.00  0.00    +0.000 N 
ATOM      5  C   UNL     1       3.660   6.501  18.553  0.00  0.00    +0.000 A 
ATOM      6  C   UNL     1       4.073   5.185  18.660  0.00  0.00    +0.000 A 
ENDROOT
BRANCH   4   7
ATOM      7  C   UNL     1       1.875   7.882  19.662  0.00  0.00    +0.000 A 
ATOM      8  C   UNL     1       1.679   8.774  18.595  0.00  0.00    +0.000 A 
ATOM      9  C   UNL     1       0.944   9.949  18.784  0.00  0.00    +0.000 A 
ATOM     10  C   UNL     1       0.412  10.240  20.037  0.00  0.00    +0.000 A 
ATOM     11 CL   UNL     1      -0.479  11.692  20.276  0.00  0.00    +0.000 Cl
ATOM     12  C   UNL     1       0.598   9.363  21.103  0.00  0.00    +0.000 A 
ATOM     13  C   UNL     1       1.324   8.182  20.918  0.00  0.00    +0.000 A 
ENDBRANCH   4   7
BRANCH   6  14
ATOM     14  C   UNL     1       5.101   4.498  17.891  0.00  0.00    +0.000 C 
ATOM     15  O   UNL     1       6.177   4.166  18.372  0.00  0.00    +0.000 OA
ATOM     16  N   UNL     1       4.763   4.217  16.584  0.00  0.00    +0.000 N 
ATOM     17  H   UNL     1       3.915   4.615  16.202  0.00  0.00    +0.000 HD
BRANCH  16  18
ATOM     18  C   UNL     1       5.694   3.614  15.646  0.00  0.00    +0.000 C 
BRANCH  18  19
ATOM     19  C   UNL     1       5.996   4.493  14.430  0.00  0.00    +0.000 C 
ATOM     20  C   UNL     1       6.212   3.624  13.190  0.00  0.00    +0.000 C 
BRANCH  19  21
ATOM     21  C   UNL     1       7.241   5.313  14.698  0.00  0.00    +0.000 C 
ATOM     22  O   UNL     1       7.539   5.795  15.782  0.00  0.00    +0.000 OA
BRANCH  21  23
ATOM     23  O   UNL     1       7.998   5.512  13.593  0.00  0.00    +0.000 OA
ATOM     24  H   UNL     1       7.907   6.409  13.214  0.00  0.00    +0.000 HD
ENDBRANCH  21  23
ENDBRANCH  19  21
ENDBRANCH  18  19
ENDBRANCH  16  18
ENDBRANCH   6  14
TORSDOF 6
ENDMDL
MODEL 4
REMARK VINA RESULT:      -7.3      1.163      1.638
REMARK  Name = 
REMARK  8 active torsions:
REMARK  status: ('A' for Active; 'I' for Inactive)
REMARK    1  A    between atoms: C_1  and  C_2
REMARK    2  A    between atoms: N_4  and  C_5
REMARK    3  A    between atoms: C_13  and  C_14
REMARK    4  A    between atoms: N_16  and  C_17
REMARK    5  A    between atoms: C_17  and  C_18
REMARK    6  A    between atoms: C_18  and  C_19
REMARK    7  A    between atoms: C_18  and  C_20
REMARK    8  A    between atoms: C_20  and  O_22
REMARK                            x       y       z     vdW  Elec       q    Type
REMARK                         _______ _______ _______ _____ _____    ______ ____
ROOT
ATOM      1  C   UNL     1       2.553   2.992  19.254  0.00  0.00    +0.000 C 
ATOM      2  C   UNL     1       2.841   4.447  19.153  0.00  0.00    +0.000 A 
ATOM      3  N   UNL     1       2.015   5.332  19.726  0.00  0.00    +0.000 NA
ATOM      4  N   UNL     1       2.515   6.547  19.402  0.00  0.00    +0.000 N 
ATOM      5  C   UNL     1       3.683   6.426  18.682  0.00  0.00    +0.000 A 
ATOM      6  C   UNL     1       3.931   5.078  18.498  0.00  0.00    +0.000 A 
ENDROOT
BRANCH   4   7
ATOM      7  C   UNL     1       1.843   7.746  19.776  0.00  0.00    +0.000 A 
ATOM      8  C   UNL     1       1.320   7.872  21.074  0.00  0.00    +0.000 A 
ATOM      9  C   UNL     1       0.642   9.037  21.450  0.00  0.00    +0.000 A 
ATOM     10  C   UNL     1       0.478  10.071  20.532  0.00  0.00    +0.000 A 
ATOM     11 CL   UNL     1      -0.370  11.497  20.988  0.00  0.00    +0.000 Cl
ATOM     12  C   UNL     1       0.993   9.958  19.243  0.00  0.00    +0.000 A 
ATOM     13  C   UNL     1       1.679   8.800  18.864  0.00  0.00    +0.000 A 
ENDBRANCH   4   7
BRANCH   6  14
ATOM     14  C   UNL     1       5.029   4.455  17.774  0.00  0.00    +0.000 C 
ATOM     15  O   UNL     1       6.105   4.195  18.299  0.00  0.00    +0.000 OA
ATOM     16  N   UNL     1       4.762   4.146  16.457  0.00  0.00    +0.000 N 
ATOM     17  H   UNL     1       3.905   4.486  16.041  0.00  0.00    +0.000 HD
BRANCH  16  18
ATOM     18  C   UNL     1       5.765   3.599  15.561  0.00  0.00    +0.000 C 
BRANCH  18  19
ATOM     19  C   UNL     1       6.011   4.457  14.318  0.00  0.00    +0.000 C 
ATOM     20  C   UNL     1       6.152   3.568  13.081  0.00  0.00    +0.000 C 
BRANCH  19  21
ATOM     21  C   UNL     1       7.277   5.267  14.508  0.00  0.00    +0.000 C 
ATOM     22  O   UNL     1       8.058   5.561  13.614  0.00  0.00    +0.000 OA
BRANCH  21  23
ATOM     23  O   UNL     1       7.502   5.613  15.797  0.00  0.00    +0.000 OA
ATOM     24  H   UNL     1       6.705   5.945  16.256  0.00  0.00    +0.000 HD
ENDBRANCH  21  23
ENDBRANCH  19  21
ENDBRANCH  18  19
ENDBRANCH  16  18
ENDBRANCH   6  14
TORSDOF 6
ENDMDL
MODEL 5
REMARK VINA RESULT:      -7.2      1.080      1.556
REMARK  Name = 
REMARK  8 active torsions:
REMARK  status: ('A' for Active; 'I' for Inactive)
REMARK    1  A    between atoms: C_1  and  C_2
REMARK    2  A    between atoms: N_4  and  C_5
REMARK    3  A    between atoms: C_13  and  C_14
REMARK    4  A    between atoms: N_16  and  C_17
REMARK    5  A    between atoms: C_17  and  C_18
REMARK    6  A    between atoms: C_18  and  C_19
REMARK    7  A    between atoms: C_18  and  C_20
REMARK    8  A    between atoms: C_20  and  O_22
REMARK                            x       y       z     vdW  Elec       q    Type
REMARK                         _______ _______ _______ _____ _____    ______ ____
ROOT
ATOM      1  C   UNL     1       2.716   3.442  20.469  0.00  0.00    +0.000 C 
ATOM      2  C   UNL     1       2.600   4.790  19.851  0.00  0.00    +0.000 A 
ATOM      3  N   UNL     1       2.154   5.821  20.579  0.00  0.00    +0.000 NA
ATOM      4  N   UNL     1       2.108   6.868  19.723  0.00  0.00    +0.000 N 
ATOM      5  C   UNL     1       2.581   6.512  18.480  0.00  0.00    +0.000 A 
ATOM      6  C   UNL     1       2.911   5.170  18.519  0.00  0.00    +0.000 A 
ENDROOT
BRANCH   4   7
ATOM      7  C   UNL     1       1.599   8.135  20.131  0.00  0.00    +0.000 A 
ATOM      8  C   UNL     1       1.289   8.355  21.484  0.00  0.00    +0.000 A 
ATOM      9  C   UNL     1       0.771   9.588  21.896  0.00  0.00    +0.000 A 
ATOM     10  C   UNL     1       0.554  10.597  20.961  0.00  0.00    +0.000 A 
ATOM     11 CL   UNL     1      -0.097  12.108  21.464  0.00  0.00    +0.000 Cl
ATOM     12  C   UNL     1       0.859  10.390  19.617  0.00  0.00    +0.000 A 
ATOM     13  C   UNL     1       1.385   9.163  19.201  0.00  0.00    +0.000 A 
ENDBRANCH   4   7
BRANCH   6  14
ATOM     14  C   UNL     1       3.423   4.336  17.442  0.00  0.00    +0.000 C 
ATOM     15  O   UNL     1       2.761   3.444  16.923  0.00  0.00    +0.000 OA
ATOM     16  N   UNL     1       4.700   4.641  17.021  0.00  0.00    +0.000 N 
ATOM     17  H   UNL     1       5.245   5.303  17.558  0.00  0.00    +0.000 HD
BRANCH  16  18
ATOM     18  C   UNL     1       5.402   3.861  16.018  0.00  0.00    +0.000 C 
BRANCH  18  19
ATOM     19  C   UNL     1       5.800   4.667  14.780  0.00  0.00    +0.000 C 
ATOM     20  C   UNL     1       5.996   3.737  13.583  0.00  0.00    +0.000 C 
BRANCH  19  21
ATOM     21  C   UNL     1       7.088   5.415  15.058  0.00  0.00    +0.000 C 
ATOM     22  O   UNL     1       7.370   5.946  16.123  0.00  0.00    +0.000 OA
BRANCH  21  23
ATOM     23  O   UNL     1       7.907   5.487  13.982  0.00  0.00    +0.000 OA
ATOM     24  H   UNL     1       7.562   6.058  13.267  0.00  0.00    +0.000 HD
ENDBRANCH  21  23
ENDBRANCH  19  21
ENDBRANCH  18  19
ENDBRANCH  16  18
ENDBRANCH   6  14
TORSDOF 6
ENDMDL
MODEL 6
REMARK VINA RESULT:      -7.1      1.626      2.165
REMARK  Name = 
REMARK  8 active torsions:
REMARK  status: ('A' for Active; 'I' for Inactive)
REMARK    1  A    between atoms: C_1  and  C_2
REMARK    2  A    between atoms: N_4  and  C_5
REMARK    3  A    between atoms: C_13  and  C_14
REMARK    4  A    between atoms: N_16  and  C_17
REMARK    5  A    between atoms: C_17  and  C_18
REMARK    6  A    between atoms: C_18  and  C_19
REMARK    7  A    between atoms: C_18  and  C_20
REMARK    8  A    between atoms: C_20  and  O_22
REMARK                            x       y       z     vdW  Elec       q    Type
REMARK                         _______ _______ _______ _____ _____    ______ ____
ROOT
ATOM      1  C   UNL     1       1.798   3.777  20.347  0.00  0.00    +0.000 C 
ATOM      2  C   UNL     1       2.008   5.234  20.140  0.00  0.00    +0.000 A 
ATOM      3  N   UNL     1       1.298   6.118  20.852  0.00  0.00    +0.000 NA
ATOM      4  N   UNL     1       1.674   7.332  20.388  0.00  0.00    +0.000 N 
ATOM      5  C   UNL     1       2.659   7.215  19.433  0.00  0.00    +0.000 A 
ATOM      6  C   UNL     1       2.907   5.868  19.241  0.00  0.00    +0.000 A 
ENDROOT
BRANCH   4   7
ATOM      7  C   UNL     1       1.060   8.527  20.863  0.00  0.00    +0.000 A 
ATOM      8  C   UNL     1       0.737   8.647  22.225  0.00  0.00    +0.000 A 
ATOM      9  C   UNL     1       0.118   9.807  22.702  0.00  0.00    +0.000 A 
ATOM     10  C   UNL     1      -0.187  10.843  21.824  0.00  0.00    +0.000 A 
ATOM     11 CL   UNL     1      -0.963  12.264  22.406  0.00  0.00    +0.000 Cl
ATOM     12  C   UNL     1       0.129  10.736  20.471  0.00  0.00    +0.000 A 
ATOM     13  C   UNL     1       0.756   9.583  19.989  0.00  0.00    +0.000 A 
ENDBRANCH   4   7
BRANCH   6  14
ATOM     14  C   UNL     1       3.840   5.246  18.314  0.00  0.00    +0.000 C 
ATOM     15  O   UNL     1       3.523   4.914  17.178  0.00  0.00    +0.000 OA
ATOM     16  N   UNL     1       5.122   5.084  18.794  0.00  0.00    +0.000 N 
ATOM     17  H   UNL     1       5.303   5.265  19.773  0.00  0.00    +0.000 HD
BRANCH  16  18
ATOM     18  C   UNL     1       6.162   4.406  18.041  0.00  0.00    +0.000 C 
BRANCH  18  19
ATOM     19  C   UNL     1       7.442   5.230  17.881  0.00  0.00    +0.000 C 
ATOM     20  C   UNL     1       7.863   5.820  19.228  0.00  0.00    +0.000 C 
BRANCH  19  21
ATOM     21  C   UNL     1       7.200   6.349  16.890  0.00  0.00    +0.000 C 
ATOM     22  O   UNL     1       7.767   7.432  16.907  0.00  0.00    +0.000 OA
BRANCH  21  23
ATOM     23  O   UNL     1       6.241   6.058  15.979  0.00  0.00    +0.000 OA
ATOM     24  H   UNL     1       6.141   5.100  15.810  0.00  0.00    +0.000 HD
ENDBRANCH  21  23
ENDBRANCH  19  21
ENDBRANCH  18  19
ENDBRANCH  16  18
ENDBRANCH   6  14
TORSDOF 6
ENDMDL
MODEL 7
REMARK VINA RESULT:      -7.1      0.453      1.126
REMARK  Name = 
REMARK  8 active torsions:
REMARK  status: ('A' for Active; 'I' for Inactive)
REMARK    1  A    between atoms: C_1  and  C_2
REMARK    2  A    between atoms: N_4  and  C_5
REMARK    3  A    between atoms: C_13  and  C_14
REMARK    4  A    between atoms: N_16  and  C_17
REMARK    5  A    between atoms: C_17  and  C_18
REMARK    6  A    between atoms: C_18  and  C_19
REMARK    7  A    between atoms: C_18  and  C_20
REMARK    8  A    between atoms: C_20  and  O_22
REMARK                            x       y       z     vdW  Elec       q    Type
REMARK                         _______ _______ _______ _____ _____    ______ ____
ROOT
ATOM      1  C   UNL     1       2.267   3.474  21.120  0.00  0.00    +0.000 C 
ATOM      2  C   UNL     1       2.365   4.786  20.427  0.00  0.00    +0.000 A 
ATOM      3  N   UNL     1       1.837   5.879  20.992  0.00  0.00    +0.000 NA
ATOM      4  N   UNL     1       2.035   6.874  20.096  0.00  0.00    +0.000 N 
ATOM      5  C   UNL     1       2.739   6.422  19.002  0.00  0.00    +0.000 A 
ATOM      6  C   UNL     1       2.973   5.070  19.176  0.00  0.00    +0.000 A 
ENDROOT
BRANCH   4   7
ATOM      7  C   UNL     1       1.527   8.185  20.323  0.00  0.00    +0.000 A 
ATOM      8  C   UNL     1       1.200   8.586  21.629  0.00  0.00    +0.000 A 
ATOM      9  C   UNL     1       0.683   9.864  21.865  0.00  0.00    +0.000 A 
ATOM     10  C   UNL     1       0.483  10.739  20.801  0.00  0.00    +0.000 A 
ATOM     11 CL   UNL     1      -0.168  12.306  21.087  0.00  0.00    +0.000 Cl
ATOM     12  C   UNL     1       0.804  10.353  19.501  0.00  0.00    +0.000 A 
ATOM     13  C   UNL     1       1.329   9.080  19.260  0.00  0.00    +0.000 A 
ENDBRANCH   4   7
BRANCH   6  14
ATOM     14  C   UNL     1       3.652   4.150  18.275  0.00  0.00    +0.000 C 
ATOM     15  O   UNL     1       3.820   2.966  18.542  0.00  0.00    +0.000 OA
ATOM     16  N   UNL     1       4.065   4.698  17.080  0.00  0.00    +0.000 N 
ATOM     17  H   UNL     1       4.009   5.701  16.958  0.00  0.00    +0.000 HD
BRANCH  16  18
ATOM     18  C   UNL     1       4.832   3.952  16.099  0.00  0.00    +0.000 C 
BRANCH  18  19
ATOM     19  C   UNL     1       5.833   4.809  15.320  0.00  0.00    +0.000 C 
ATOM     20  C   UNL     1       6.385   4.026  14.128  0.00  0.00    +0.000 C 
BRANCH  19  21
ATOM     21  C   UNL     1       6.971   5.211  16.234  0.00  0.00    +0.000 C 
ATOM     22  O   UNL     1       7.574   6.273  16.172  0.00  0.00    +0.000 OA
BRANCH  21  23
ATOM     23  O   UNL     1       7.305   4.249  17.127  0.00  0.00    +0.000 OA
ATOM     24  H   UNL     1       6.537   3.870  17.597  0.00  0.00    +0.000 HD
ENDBRANCH  21  23
ENDBRANCH  19  21
ENDBRANCH  18  19
ENDBRANCH  16  18
ENDBRANCH   6  14
TORSDOF 6
ENDMDL
MODEL 8
REMARK VINA RESULT:      -7.1      1.011      1.229
REMARK  Name = 
REMARK  8 active torsions:
REMARK  status: ('A' for Active; 'I' for Inactive)
REMARK    1  A    between atoms: C_1  and  C_2
REMARK    2  A    between atoms: N_4  and  C_5
REMARK    3  A    between atoms: C_13  and  C_14
REMARK    4  A    between atoms: N_16  and  C_17
REMARK    5  A    between atoms: C_17  and  C_18
REMARK    6  A    between atoms: C_18  and  C_19
REMARK    7  A    between atoms: C_18  and  C_20
REMARK    8  A    between atoms: C_20  and  O_22
REMARK                            x       y       z     vdW  Elec       q    Type
REMARK                         _______ _______ _______ _____ _____    ______ ____
ROOT
ATOM      1  C   UNL     1       1.414   3.432  20.468  0.00  0.00    +0.000 C 
ATOM      2  C   UNL     1       1.878   4.821  20.209  0.00  0.00    +0.000 A 
ATOM      3  N   UNL     1       1.210   5.856  20.733  0.00  0.00    +0.000 NA
ATOM      4  N   UNL     1       1.838   6.959  20.265  0.00  0.00    +0.000 N 
ATOM      5  C   UNL     1       2.933   6.619  19.502  0.00  0.00    +0.000 A 
ATOM      6  C   UNL     1       2.995   5.239  19.439  0.00  0.00    +0.000 A 
ENDROOT
BRANCH   4   7
ATOM      7  C   UNL     1       1.349   8.266  20.553  0.00  0.00    +0.000 A 
ATOM      8  C   UNL     1       1.237   9.208  19.518  0.00  0.00    +0.000 A 
ATOM      9  C   UNL     1       0.776  10.501  19.790  0.00  0.00    +0.000 A 
ATOM     10  C   UNL     1       0.436  10.857  21.092  0.00  0.00    +0.000 A 
ATOM     11 CL   UNL     1      -0.116  12.451  21.430  0.00  0.00    +0.000 Cl
ATOM     12  C   UNL     1       0.542   9.931  22.127  0.00  0.00    +0.000 A 
ATOM     13  C   UNL     1       0.994   8.634  21.860  0.00  0.00    +0.000 A 
ENDBRANCH   4   7
BRANCH   6  14
ATOM     14  C   UNL     1       3.957   4.412  18.725  0.00  0.00    +0.000 C 
ATOM     15  O   UNL     1       4.686   3.606  19.290  0.00  0.00    +0.000 OA
ATOM     16  N   UNL     1       3.967   4.576  17.356  0.00  0.00    +0.000 N 
ATOM     17  H   UNL     1       3.434   5.334  16.951  0.00  0.00    +0.000 HD
BRANCH  16  18
ATOM     18  C   UNL     1       4.918   3.898  16.492  0.00  0.00    +0.000 C 
BRANCH  18  19
ATOM     19  C   UNL     1       6.109   4.768  16.087  0.00  0.00    +0.000 C 
ATOM     20  C   UNL     1       7.291   4.516  17.024  0.00  0.00    +0.000 C 
BRANCH  19  21
ATOM     21  C   UNL     1       5.712   6.229  16.152  0.00  0.00    +0.000 C 
ATOM     22  O   UNL     1       5.111   6.828  15.271  0.00  0.00    +0.000 OA
BRANCH  21  23
ATOM     23  O   UNL     1       6.129   6.846  17.283  0.00  0.00    +0.000 OA
ATOM     24  H   UNL     1       5.955   6.331  18.095  0.00  0.00    +0.000 HD
ENDBRANCH  21  23
ENDBRANCH  19  21
ENDBRANCH  18  19
ENDBRANCH  16  18
ENDBRANCH   6  14
TORSDOF 6
ENDMDL
MODEL 9
REMARK VINA RESULT:      -7.0      1.318      1.969
REMARK  Name = 
REMARK  8 active torsions:
REMARK  status: ('A' for Active; 'I' for Inactive)
REMARK    1  A    between atoms: C_1  and  C_2
REMARK    2  A    between atoms: N_4  and  C_5
REMARK    3  A    between atoms: C_13  and  C_14
REMARK    4  A    between atoms: N_16  and  C_17
REMARK    5  A    between atoms: C_17  and  C_18
REMARK    6  A    between atoms: C_18  and  C_19
REMARK    7  A    between atoms: C_18  and  C_20
REMARK    8  A    between atoms: C_20  and  O_22
REMARK                            x       y       z     vdW  Elec       q    Type
REMARK                         _______ _______ _______ _____ _____    ______ ____
ROOT
ATOM      1  C   UNL     1       2.158   4.356  21.029  0.00  0.00    +0.000 C 
ATOM      2  C   UNL     1       2.287   5.652  20.311  0.00  0.00    +0.000 A 
ATOM      3  N   UNL     1       1.530   6.695  20.676  0.00  0.00    +0.000 NA
ATOM      4  N   UNL     1       1.838   7.681  19.802  0.00  0.00    +0.000 N 
ATOM      5  C   UNL     1       2.827   7.281  18.932  0.00  0.00    +0.000 A 
ATOM      6  C   UNL     1       3.148   5.968  19.227  0.00  0.00    +0.000 A 
ENDROOT
BRANCH   4   7
ATOM      7  C   UNL     1       1.160   8.933  19.833  0.00  0.00    +0.000 A 
ATOM      8  C   UNL     1       0.433   9.301  20.977  0.00  0.00    +0.000 A 
ATOM      9  C   UNL     1      -0.253  10.520  21.015  0.00  0.00    +0.000 A 
ATOM     10  C   UNL     1      -0.222  11.368  19.911  0.00  0.00    +0.000 A 
ATOM     11 CL   UNL     1      -1.077  12.860  19.949  0.00  0.00    +0.000 Cl
ATOM     12  C   UNL     1       0.497  11.015  18.771  0.00  0.00    +0.000 A 
ATOM     13  C   UNL     1       1.191   9.802  18.731  0.00  0.00    +0.000 A 
ENDBRANCH   4   7
BRANCH   6  14
ATOM     14  C   UNL     1       4.113   5.105  18.563  0.00  0.00    +0.000 C 
ATOM     15  O   UNL     1       3.794   4.293  17.703  0.00  0.00    +0.000 OA
ATOM     16  N   UNL     1       5.424   5.286  18.950  0.00  0.00    +0.000 N 
ATOM     17  H   UNL     1       5.620   5.881  19.744  0.00  0.00    +0.000 HD
BRANCH  16  18
ATOM     18  C   UNL     1       6.509   4.456  18.458  0.00  0.00    +0.000 C 
BRANCH  18  19
ATOM     19  C   UNL     1       7.418   5.166  17.452  0.00  0.00    +0.000 C 
ATOM     20  C   UNL     1       7.296   6.682  17.607  0.00  0.00    +0.000 C 
BRANCH  19  21
ATOM     21  C   UNL     1       7.023   4.765  16.045  0.00  0.00    +0.000 C 
ATOM     22  O   UNL     1       7.386   5.339  15.029  0.00  0.00    +0.000 OA
BRANCH  21  23
ATOM     23  O   UNL     1       6.173   3.712  16.009  0.00  0.00    +0.000 OA
ATOM     24  H   UNL     1       5.363   3.883  15.488  0.00  0.00    +0.000 HD
ENDBRANCH  21  23
ENDBRANCH  19  21
ENDBRANCH  18  19
ENDBRANCH  16  18
ENDBRANCH   6  14
TORSDOF 6
ENDMDL
