MODEL 1
REMARK VINA RESULT:      -8.6      0.000      0.000
REMARK  Name = 
REMARK  9 active torsions:
REMARK  status: ('A' for Active; 'I' for Inactive)
REMARK    1  A    between atoms: C_1  and  C_2
REMARK    2  A    between atoms: C_4  and  C_5
REMARK    3  A    between atoms: C_5  and  O_6
REMARK    4  A    between atoms: O_6  and  C_7
REMARK    5  A    between atoms: C_10  and  C_11
REMARK    6  A    between atoms: N_13  and  C_14
REMARK    7  A    between atoms: C_14  and  C_15
REMARK    8  A    between atoms: C_15  and  C_16
REMARK    9  A    between atoms: N_18  and  O_19
REMARK                            x       y       z     vdW  Elec       q    Type
REMARK                         _______ _______ _______ _____ _____    ______ ____
ROOT
ATOM      1  C   UNL     1       6.934   5.488  17.768  0.00  0.00    +0.000 A 
ATOM      2  C   UNL     1       6.727   6.509  16.853  0.00  0.00    +0.000 A 
ATOM      3  C   UNL     1       7.286   7.760  17.028  0.00  0.00    +0.000 A 
ATOM      4  C   UNL     1       8.040   8.042  18.182  0.00  0.00    +0.000 A 
ATOM      5  C   UNL     1       8.265   7.019  19.099  0.00  0.00    +0.000 A 
ATOM      6  C   UNL     1       7.712   5.739  18.910  0.00  0.00    +0.000 A 
ENDROOT
BRANCH   4   7
ATOM      7  C   UNL     1       8.548   9.437  18.357  0.00  0.00    +0.000 C 
ATOM      8  O   UNL     1       8.204  10.322  17.563  0.00  0.00    +0.000 OA
ATOM      9  N   UNL     1       9.376   9.707  19.418  0.00  0.00    +0.000 N 
ATOM     10  H   UNL     1       9.563   9.004  20.132  0.00  0.00    +0.000 HD
BRANCH   9  11
ATOM     11  C   UNL     1       9.874  11.046  19.693  0.00  0.00    +0.000 C 
BRANCH  11  12
ATOM     12  C   UNL     1      11.135  11.387  18.905  0.00  0.00    +0.000 C 
BRANCH  12  13
ATOM     13  C   UNL     1      10.936  12.608  18.039  0.00  0.00    +0.000 C 
ATOM     14  O   UNL     1      10.313  13.618  18.395  0.00  0.00    +0.000 OA
ATOM     15  N   UNL     1      11.501  12.528  16.796  0.00  0.00    +0.000 N 
ATOM     16  H   UNL     1      12.006  11.731  16.421  0.00  0.00    +0.000 HD
BRANCH  15  17
ATOM     17  O   UNL     1      11.333  13.645  15.948  0.00  0.00    +0.000 OA
ATOM     18  H   UNL     1      11.807  13.363  15.134  0.00  0.00    +0.000 HD
ENDBRANCH  15  17
ENDBRANCH  12  13
ENDBRANCH  11  12
ENDBRANCH   9  11
ENDBRANCH   4   7
BRANCH   1  19
ATOM     19  O   UNL     1       6.387   4.242  17.569  0.00  0.00    +0.000 OA
BRANCH  19  20
ATOM     20  C   UNL     1       5.048   4.296  17.009  0.00  0.00    +0.000 C 
BRANCH  20  24
ATOM     21  C   UNL     1       2.283   8.279  18.279  0.00  0.00    +0.000 C 
ATOM     22  C   UNL     1       2.748   6.878  18.537  0.00  0.00    +0.000 A 
ATOM     23  C   UNL     1       3.640   6.268  17.681  0.00  0.00    +0.000 A 
ATOM     24  C   UNL     1       4.077   4.967  17.950  0.00  0.00    +0.000 A 
ATOM     25  C   UNL     1       3.582   4.306  19.104  0.00  0.00    +0.000 A 
ATOM     26  C   UNL     1       3.943   2.987  19.482  0.00  0.00    +0.000 A 
ATOM     27  C   UNL     1       3.414   2.392  20.628  0.00  0.00    +0.000 A 
ATOM     28  C   UNL     1       2.518   3.100  21.413  0.00  0.00    +0.000 A 
ATOM     29  C   UNL     1       2.156   4.398  21.047  0.00  0.00    +0.000 A 
ATOM     30  C   UNL     1       2.669   5.014  19.913  0.00  0.00    +0.000 A 
ATOM     31  N   UNL     1       2.266   6.264  19.639  0.00  0.00    +0.000 NA
ENDBRANCH  20  24
ENDBRANCH  19  20
ENDBRANCH   1  19
TORSDOF 8
ENDMDL
MODEL 2
REMARK VINA RESULT:      -8.6      5.790      9.872
REMARK  Name = 
REMARK  9 active torsions:
REMARK  status: ('A' for Active; 'I' for Inactive)
REMARK    1  A    between atoms: C_1  and  C_2
REMARK    2  A    between atoms: C_4  and  C_5
REMARK    3  A    between atoms: C_5  and  O_6
REMARK    4  A    between atoms: O_6  and  C_7
REMARK    5  A    between atoms: C_10  and  C_11
REMARK    6  A    between atoms: N_13  and  C_14
REMARK    7  A    between atoms: C_14  and  C_15
REMARK    8  A    between atoms: C_15  and  C_16
REMARK    9  A    between atoms: N_18  and  O_19
REMARK                            x       y       z     vdW  Elec       q    Type
REMARK                         _______ _______ _______ _____ _____    ______ ____
ROOT
ATOM      1  C   UNL     1       1.086   9.787  18.803  0.00  0.00    +0.000 A 
ATOM      2  C   UNL     1       0.962   9.169  20.039  0.00  0.00    +0.000 A 
ATOM      3  C   UNL     1       1.571   7.959  20.307  0.00  0.00    +0.000 A 
ATOM      4  C   UNL     1       2.292   7.292  19.299  0.00  0.00    +0.000 A 
ATOM      5  C   UNL     1       2.433   7.911  18.060  0.00  0.00    +0.000 A 
ATOM      6  C   UNL     1       1.829   9.153  17.794  0.00  0.00    +0.000 A 
ENDROOT
BRANCH   4   7
ATOM      7  C   UNL     1       2.856   5.947  19.622  0.00  0.00    +0.000 C 
ATOM      8  O   UNL     1       2.534   5.379  20.673  0.00  0.00    +0.000 OA
ATOM      9  N   UNL     1       3.712   5.360  18.723  0.00  0.00    +0.000 N 
ATOM     10  H   UNL     1       3.884   5.778  17.809  0.00  0.00    +0.000 HD
BRANCH   9  11
ATOM     11  C   UNL     1       4.267   4.032  18.933  0.00  0.00    +0.000 C 
BRANCH  11  12
ATOM     12  C   UNL     1       3.803   3.020  17.889  0.00  0.00    +0.000 C 
BRANCH  12  13
ATOM     13  C   UNL     1       2.297   2.952  17.811  0.00  0.00    +0.000 C 
ATOM     14  O   UNL     1       1.594   3.792  17.231  0.00  0.00    +0.000 OA
ATOM     15  N   UNL     1       1.737   1.876  18.441  0.00  0.00    +0.000 N 
ATOM     16  H   UNL     1       2.239   1.159  18.955  0.00  0.00    +0.000 HD
BRANCH  15  17
ATOM     17  O   UNL     1       0.329   1.776  18.400  0.00  0.00    +0.000 OA
ATOM     18  H   UNL     1       0.192   0.816  18.242  0.00  0.00    +0.000 HD
ENDBRANCH  15  17
ENDBRANCH  12  13
ENDBRANCH  11  12
ENDBRANCH   9  11
ENDBRANCH   4   7
BRANCH   1  19
ATOM     19  O   UNL     1       0.490  11.001  18.560  0.00  0.00    +0.000 OA
BRANCH  19  20
ATOM     20  C   UNL     1      -0.715  11.207  19.343  0.00  0.00    +0.000 C 
BRANCH  20  24
ATOM     21  C   UNL     1      -3.016   9.987  15.061  0.00  0.00    +0.000 C 
ATOM     22  C   UNL     1      -3.042  10.608  16.424  0.00  0.00    +0.000 A 
ATOM     23  C   UNL     1      -1.912  10.609  17.214  0.00  0.00    +0.000 A 
ATOM     24  C   UNL     1      -1.951  11.211  18.475  0.00  0.00    +0.000 A 
ATOM     25  C   UNL     1      -3.164  11.804  18.912  0.00  0.00    +0.000 A 
ATOM     26  C   UNL     1      -3.333  12.439  20.170  0.00  0.00    +0.000 A 
ATOM     27  C   UNL     1      -4.557  12.997  20.540  0.00  0.00    +0.000 A 
ATOM     28  C   UNL     1      -5.630  12.932  19.665  0.00  0.00    +0.000 A 
ATOM     29  C   UNL     1      -5.473  12.307  18.427  0.00  0.00    +0.000 A 
ATOM     30  C   UNL     1      -4.265  11.745  18.032  0.00  0.00    +0.000 A 
ATOM     31  N   UNL     1      -4.206  11.166  16.823  0.00  0.00    +0.000 NA
ENDBRANCH  20  24
ENDBRANCH  19  20
ENDBRANCH   1  19
TORSDOF 8
ENDMDL
MODEL 3
REMARK VINA RESULT:      -8.6      4.694      8.026
REMARK  Name = 
REMARK  9 active torsions:
REMARK  status: ('A' for Active; 'I' for Inactive)
REMARK    1  A    between atoms: C_1  and  C_2
REMARK    2  A    between atoms: C_4  and  C_5
REMARK    3  A    between atoms: C_5  and  O_6
REMARK    4  A    between atoms: O_6  and  C_7
REMARK    5  A    between atoms: C_10  and  C_11
REMARK    6  A    between atoms: N_13  and  C_14
REMARK    7  A    between atoms: C_14  and  C_15
REMARK    8  A    between atoms: C_15  and  C_16
REMARK    9  A    between atoms: N_18  and  O_19
REMARK                            x       y       z     vdW  Elec       q    Type
REMARK                         _______ _______ _______ _____ _____    ______ ____
ROOT
ATOM      1  C   UNL     1       1.578   8.512  19.553  0.00  0.00    +0.000 A 
ATOM      2  C   UNL     1       1.968   7.308  20.120  0.00  0.00    +0.000 A 
ATOM      3  C   UNL     1       2.796   6.429  19.450  0.00  0.00    +0.000 A 
ATOM      4  C   UNL     1       3.219   6.716  18.139  0.00  0.00    +0.000 A 
ATOM      5  C   UNL     1       2.843   7.928  17.567  0.00  0.00    +0.000 A 
ATOM      6  C   UNL     1       2.016   8.833  18.258  0.00  0.00    +0.000 A 
ENDROOT
BRANCH   4   7
ATOM      7  C   UNL     1       4.043   5.688  17.434  0.00  0.00    +0.000 C 
ATOM      8  O   UNL     1       3.555   4.582  17.169  0.00  0.00    +0.000 OA
ATOM      9  N   UNL     1       5.329   6.009  17.076  0.00  0.00    +0.000 N 
ATOM     10  H   UNL     1       5.687   6.956  17.192  0.00  0.00    +0.000 HD
BRANCH   9  11
ATOM     11  C   UNL     1       6.183   5.088  16.341  0.00  0.00    +0.000 C 
BRANCH  11  12
ATOM     12  C   UNL     1       7.420   4.665  17.128  0.00  0.00    +0.000 C 
BRANCH  12  13
ATOM     13  C   UNL     1       7.187   4.749  18.618  0.00  0.00    +0.000 C 
ATOM     14  O   UNL     1       6.226   4.227  19.200  0.00  0.00    +0.000 OA
ATOM     15  N   UNL     1       8.130   5.460  19.307  0.00  0.00    +0.000 N 
ATOM     16  H   UNL     1       8.932   5.934  18.903  0.00  0.00    +0.000 HD
BRANCH  15  17
ATOM     17  O   UNL     1       7.948   5.571  20.703  0.00  0.00    +0.000 OA
ATOM     18  H   UNL     1       8.642   6.222  20.953  0.00  0.00    +0.000 HD
ENDBRANCH  15  17
ENDBRANCH  12  13
ENDBRANCH  11  12
ENDBRANCH   9  11
ENDBRANCH   4   7
BRANCH   1  19
ATOM     19  O   UNL     1       0.769   9.385  20.241  0.00  0.00    +0.000 OA
BRANCH  19  20
ATOM     20  C   UNL     1       0.749  10.716  19.660  0.00  0.00    +0.000 C 
BRANCH  20  24
ATOM     21  C   UNL     1      -2.721  13.639  21.788  0.00  0.00    +0.000 C 
ATOM     22  C   UNL     1      -2.287  12.720  20.688  0.00  0.00    +0.000 A 
ATOM     23  C   UNL     1      -1.020  12.177  20.689  0.00  0.00    +0.000 A 
ATOM     24  C   UNL     1      -0.641  11.305  19.663  0.00  0.00    +0.000 A 
ATOM     25  C   UNL     1      -1.578  11.005  18.641  0.00  0.00    +0.000 A 
ATOM     26  C   UNL     1      -1.313  10.142  17.546  0.00  0.00    +0.000 A 
ATOM     27  C   UNL     1      -2.279   9.894  16.570  0.00  0.00    +0.000 A 
ATOM     28  C   UNL     1      -3.521  10.502  16.668  0.00  0.00    +0.000 A 
ATOM     29  C   UNL     1      -3.789  11.354  17.741  0.00  0.00    +0.000 A 
ATOM     30  C   UNL     1      -2.846  11.616  18.728  0.00  0.00    +0.000 A 
ATOM     31  N   UNL     1      -3.192  12.447  19.723  0.00  0.00    +0.000 NA
ENDBRANCH  20  24
ENDBRANCH  19  20
ENDBRANCH   1  19
TORSDOF 8
ENDMDL
MODEL 4
REMARK VINA RESULT:      -8.5      4.672      8.251
REMARK  Name = 
REMARK  9 active torsions:
REMARK  status: ('A' for Active; 'I' for Inactive)
REMARK    1  A    between atoms: C_1  and  C_2
REMARK    2  A    between atoms: C_4  and  C_5
REMARK    3  A    between atoms: C_5  and  O_6
REMARK    4  A    between atoms: O_6  and  C_7
REMARK    5  A    between atoms: C_10  and  C_11
REMARK    6  A    between atoms: N_13  and  C_14
REMARK    7  A    between atoms: C_14  and  C_15
REMARK    8  A    between atoms: C_15  and  C_16
REMARK    9  A    between atoms: N_18  and  O_19
REMARK                            x       y       z     vdW  Elec       q    Type
REMARK                         _______ _______ _______ _____ _____    ______ ____
ROOT
ATOM      1  C   UNL     1       1.344   8.624  19.993  0.00  0.00    +0.000 A 
ATOM      2  C   UNL     1       1.467   7.465  20.745  0.00  0.00    +0.000 A 
ATOM      3  C   UNL     1       2.099   6.343  20.246  0.00  0.00    +0.000 A 
ATOM      4  C   UNL     1       2.587   6.335  18.926  0.00  0.00    +0.000 A 
ATOM      5  C   UNL     1       2.480   7.498  18.169  0.00  0.00    +0.000 A 
ATOM      6  C   UNL     1       1.854   8.648  18.685  0.00  0.00    +0.000 A 
ENDROOT
BRANCH   4   7
ATOM      7  C   UNL     1       3.184   5.066  18.414  0.00  0.00    +0.000 C 
ATOM      8  O   UNL     1       3.008   4.008  19.031  0.00  0.00    +0.000 OA
ATOM      9  N   UNL     1       3.906   5.103  17.246  0.00  0.00    +0.000 N 
ATOM     10  H   UNL     1       3.952   5.951  16.682  0.00  0.00    +0.000 HD
BRANCH   9  11
ATOM     11  C   UNL     1       4.478   3.906  16.649  0.00  0.00    +0.000 C 
BRANCH  11  12
ATOM     12  C   UNL     1       5.546   4.212  15.603  0.00  0.00    +0.000 C 
BRANCH  12  13
ATOM     13  C   UNL     1       6.059   5.627  15.731  0.00  0.00    +0.000 C 
ATOM     14  O   UNL     1       5.469   6.622  15.286  0.00  0.00    +0.000 OA
ATOM     15  N   UNL     1       7.252   5.748  16.386  0.00  0.00    +0.000 N 
ATOM     16  H   UNL     1       7.807   4.983  16.760  0.00  0.00    +0.000 HD
BRANCH  15  17
ATOM     17  O   UNL     1       7.775   7.053  16.522  0.00  0.00    +0.000 OA
ATOM     18  H   UNL     1       7.076   7.602  16.102  0.00  0.00    +0.000 HD
ENDBRANCH  15  17
ENDBRANCH  12  13
ENDBRANCH  11  12
ENDBRANCH   9  11
ENDBRANCH   4   7
BRANCH   1  19
ATOM     19  O   UNL     1       0.730   9.739  20.512  0.00  0.00    +0.000 OA
BRANCH  19  20
ATOM     20  C   UNL     1       0.561  10.799  19.534  0.00  0.00    +0.000 C 
BRANCH  20  24
ATOM     21  C   UNL     1      -3.064  13.570  21.608  0.00  0.00    +0.000 C 
ATOM     22  C   UNL     1      -2.576  12.665  20.518  0.00  0.00    +0.000 A 
ATOM     23  C   UNL     1      -1.285  12.182  20.536  0.00  0.00    +0.000 A 
ATOM     24  C   UNL     1      -0.855  11.323  19.519  0.00  0.00    +0.000 A 
ATOM     25  C   UNL     1      -1.766  10.975  18.488  0.00  0.00    +0.000 A 
ATOM     26  C   UNL     1      -1.449  10.119  17.401  0.00  0.00    +0.000 A 
ATOM     27  C   UNL     1      -2.391   9.822  16.416  0.00  0.00    +0.000 A 
ATOM     28  C   UNL     1      -3.661  10.373  16.498  0.00  0.00    +0.000 A 
ATOM     29  C   UNL     1      -3.980  11.216  17.562  0.00  0.00    +0.000 A 
ATOM     30  C   UNL     1      -3.062  11.527  18.558  0.00  0.00    +0.000 A 
ATOM     31  N   UNL     1      -3.457  12.346  19.545  0.00  0.00    +0.000 NA
ENDBRANCH  20  24
ENDBRANCH  19  20
ENDBRANCH   1  19
TORSDOF 8
ENDMDL
MODEL 5
REMARK VINA RESULT:      -8.5      2.489      9.508
REMARK  Name = 
REMARK  9 active torsions:
REMARK  status: ('A' for Active; 'I' for Inactive)
REMARK    1  A    between atoms: C_1  and  C_2
REMARK    2  A    between atoms: C_4  and  C_5
REMARK    3  A    between atoms: C_5  and  O_6
REMARK    4  A    between atoms: O_6  and  C_7
REMARK    5  A    between atoms: C_10  and  C_11
REMARK    6  A    between atoms: N_13  and  C_14
REMARK    7  A    between atoms: C_14  and  C_15
REMARK    8  A    between atoms: C_15  and  C_16
REMARK    9  A    between atoms: N_18  and  O_19
REMARK                            x       y       z     vdW  Elec       q    Type
REMARK                         _______ _______ _______ _____ _____    ______ ____
ROOT
ATOM      1  C   UNL     1       7.781   8.036  17.922  0.00  0.00    +0.000 A 
ATOM      2  C   UNL     1       8.193   7.001  18.749  0.00  0.00    +0.000 A 
ATOM      3  C   UNL     1       7.472   5.828  18.853  0.00  0.00    +0.000 A 
ATOM      4  C   UNL     1       6.260   5.679  18.156  0.00  0.00    +0.000 A 
ATOM      5  C   UNL     1       5.845   6.706  17.312  0.00  0.00    +0.000 A 
ATOM      6  C   UNL     1       6.589   7.894  17.192  0.00  0.00    +0.000 A 
ENDROOT
BRANCH   4   7
ATOM      7  C   UNL     1       5.482   4.422  18.373  0.00  0.00    +0.000 C 
ATOM      8  O   UNL     1       5.664   3.754  19.399  0.00  0.00    +0.000 OA
ATOM      9  N   UNL     1       4.560   4.047  17.428  0.00  0.00    +0.000 N 
ATOM     10  H   UNL     1       4.331   4.658  16.644  0.00  0.00    +0.000 HD
BRANCH   9  11
ATOM     11  C   UNL     1       3.723   2.867  17.584  0.00  0.00    +0.000 C 
BRANCH  11  12
ATOM     12  C   UNL     1       2.261   3.204  17.864  0.00  0.00    +0.000 C 
BRANCH  12  13
ATOM     13  C   UNL     1       1.988   3.304  19.346  0.00  0.00    +0.000 C 
ATOM     14  O   UNL     1       1.044   3.940  19.836  0.00  0.00    +0.000 OA
ATOM     15  N   UNL     1       2.874   2.631  20.140  0.00  0.00    +0.000 N 
ATOM     16  H   UNL     1       3.682   2.107  19.819  0.00  0.00    +0.000 HD
BRANCH  15  17
ATOM     17  O   UNL     1       2.661   2.703  21.534  0.00  0.00    +0.000 OA
ATOM     18  H   UNL     1       2.948   3.619  21.742  0.00  0.00    +0.000 HD
ENDBRANCH  15  17
ENDBRANCH  12  13
ENDBRANCH  11  12
ENDBRANCH   9  11
ENDBRANCH   4   7
BRANCH   1  19
ATOM     19  O   UNL     1       8.520   9.189  17.815  0.00  0.00    +0.000 OA
BRANCH  19  20
ATOM     20  C   UNL     1       9.127   9.591  19.072  0.00  0.00    +0.000 C 
BRANCH  20  24
ATOM     21  C   UNL     1      11.406  13.258  16.527  0.00  0.00    +0.000 C 
ATOM     22  C   UNL     1      10.743  12.751  17.771  0.00  0.00    +0.000 A 
ATOM     23  C   UNL     1      10.260  11.461  17.831  0.00  0.00    +0.000 A 
ATOM     24  C   UNL     1       9.661  11.002  19.008  0.00  0.00    +0.000 A 
ATOM     25  C   UNL     1       9.563  11.884  20.114  0.00  0.00    +0.000 A 
ATOM     26  C   UNL     1       8.974  11.540  21.359  0.00  0.00    +0.000 A 
ATOM     27  C   UNL     1       8.904  12.460  22.405  0.00  0.00    +0.000 A 
ATOM     28  C   UNL     1       9.419  13.735  22.229  0.00  0.00    +0.000 A 
ATOM     29  C   UNL     1       9.998  14.083  21.008  0.00  0.00    +0.000 A 
ATOM     30  C   UNL     1      10.082  13.186  19.950  0.00  0.00    +0.000 A 
ATOM     31  N   UNL     1      10.657  13.607  18.813  0.00  0.00    +0.000 NA
ENDBRANCH  20  24
ENDBRANCH  19  20
ENDBRANCH   1  19
TORSDOF 8
ENDMDL
MODEL 6
REMARK VINA RESULT:      -8.5      4.872      8.338
REMARK  Name = 
REMARK  9 active torsions:
REMARK  status: ('A' for Active; 'I' for Inactive)
REMARK    1  A    between atoms: C_1  and  C_2
REMARK    2  A    between atoms: C_4  and  C_5
REMARK    3  A    between atoms: C_5  and  O_6
REMARK    4  A    between atoms: O_6  and  C_7
REMARK    5  A    between atoms: C_10  and  C_11
REMARK    6  A    between atoms: N_13  and  C_14
REMARK    7  A    between atoms: C_14  and  C_15
REMARK    8  A    between atoms: C_15  and  C_16
REMARK    9  A    between atoms: N_18  and  O_19
REMARK                            x       y       z     vdW  Elec       q    Type
REMARK                         _______ _______ _______ _____ _____    ______ ____
ROOT
ATOM      1  C   UNL     1       1.107   9.071  19.658  0.00  0.00    +0.000 A 
ATOM      2  C   UNL     1       1.716   8.968  18.416  0.00  0.00    +0.000 A 
ATOM      3  C   UNL     1       2.511   7.888  18.088  0.00  0.00    +0.000 A 
ATOM      4  C   UNL     1       2.767   6.884  19.039  0.00  0.00    +0.000 A 
ATOM      5  C   UNL     1       2.149   6.971  20.284  0.00  0.00    +0.000 A 
ATOM      6  C   UNL     1       1.323   8.062  20.611  0.00  0.00    +0.000 A 
ENDROOT
BRANCH   4   7
ATOM      7  C   UNL     1       3.702   5.784  18.655  0.00  0.00    +0.000 C 
ATOM      8  O   UNL     1       4.585   5.421  19.443  0.00  0.00    +0.000 OA
ATOM      9  N   UNL     1       3.543   5.183  17.431  0.00  0.00    +0.000 N 
ATOM     10  H   UNL     1       2.746   5.405  16.835  0.00  0.00    +0.000 HD
BRANCH   9  11
ATOM     11  C   UNL     1       4.375   4.071  16.998  0.00  0.00    +0.000 C 
BRANCH  11  12
ATOM     12  C   UNL     1       5.219   4.400  15.770  0.00  0.00    +0.000 C 
BRANCH  12  13
ATOM     13  C   UNL     1       5.861   5.761  15.885  0.00  0.00    +0.000 C 
ATOM     14  O   UNL     1       5.305   6.821  15.561  0.00  0.00    +0.000 OA
ATOM     15  N   UNL     1       7.134   5.756  16.381  0.00  0.00    +0.000 N 
ATOM     16  H   UNL     1       7.666   4.932  16.648  0.00  0.00    +0.000 HD
BRANCH  15  17
ATOM     17  O   UNL     1       7.777   7.007  16.499  0.00  0.00    +0.000 OA
ATOM     18  H   UNL     1       8.389   6.858  17.255  0.00  0.00    +0.000 HD
ENDBRANCH  15  17
ENDBRANCH  12  13
ENDBRANCH  11  12
ENDBRANCH   9  11
ENDBRANCH   4   7
BRANCH   1  19
ATOM     19  O   UNL     1       0.303  10.143  19.962  0.00  0.00    +0.000 OA
BRANCH  19  20
ATOM     20  C   UNL     1       0.140  11.061  18.848  0.00  0.00    +0.000 C 
BRANCH  20  24
ATOM     21  C   UNL     1      -3.151   9.715  15.316  0.00  0.00    +0.000 C 
ATOM     22  C   UNL     1      -2.838  10.382  16.620  0.00  0.00    +0.000 A 
ATOM     23  C   UNL     1      -1.547  10.401  17.104  0.00  0.00    +0.000 A 
ATOM     24  C   UNL     1      -1.272  11.046  18.314  0.00  0.00    +0.000 A 
ATOM     25  C   UNL     1      -2.340  11.663  19.017  0.00  0.00    +0.000 A 
ATOM     26  C   UNL     1      -2.191  12.342  20.254  0.00  0.00    +0.000 A 
ATOM     27  C   UNL     1      -3.286  12.923  20.896  0.00  0.00    +0.000 A 
ATOM     28  C   UNL     1      -4.542  12.836  20.318  0.00  0.00    +0.000 A 
ATOM     29  C   UNL     1      -4.697  12.168  19.102  0.00  0.00    +0.000 A 
ATOM     30  C   UNL     1      -3.624  11.583  18.440  0.00  0.00    +0.000 A 
ATOM     31  N   UNL     1      -3.867  10.963  17.275  0.00  0.00    +0.000 NA
ENDBRANCH  20  24
ENDBRANCH  19  20
ENDBRANCH   1  19
TORSDOF 8
ENDMDL
MODEL 7
REMARK VINA RESULT:      -8.5      4.558      7.983
REMARK  Name = 
REMARK  9 active torsions:
REMARK  status: ('A' for Active; 'I' for Inactive)
REMARK    1  A    between atoms: C_1  and  C_2
REMARK    2  A    between atoms: C_4  and  C_5
REMARK    3  A    between atoms: C_5  and  O_6
REMARK    4  A    between atoms: O_6  and  C_7
REMARK    5  A    between atoms: C_10  and  C_11
REMARK    6  A    between atoms: N_13  and  C_14
REMARK    7  A    between atoms: C_14  and  C_15
REMARK    8  A    between atoms: C_15  and  C_16
REMARK    9  A    between atoms: N_18  and  O_19
REMARK                            x       y       z     vdW  Elec       q    Type
REMARK                         _______ _______ _______ _____ _____    ______ ____
ROOT
ATOM      1  C   UNL     1       1.519   8.528  19.762  0.00  0.00    +0.000 A 
ATOM      2  C   UNL     1       2.015   8.613  18.469  0.00  0.00    +0.000 A 
ATOM      3  C   UNL     1       2.664   7.549  17.873  0.00  0.00    +0.000 A 
ATOM      4  C   UNL     1       2.888   6.363  18.595  0.00  0.00    +0.000 A 
ATOM      5  C   UNL     1       2.381   6.263  19.888  0.00  0.00    +0.000 A 
ATOM      6  C   UNL     1       1.702   7.340  20.488  0.00  0.00    +0.000 A 
ENDROOT
BRANCH   4   7
ATOM      7  C   UNL     1       3.670   5.279  17.927  0.00  0.00    +0.000 C 
ATOM      8  O   UNL     1       3.387   4.094  18.141  0.00  0.00    +0.000 OA
ATOM      9  N   UNL     1       4.680   5.632  17.067  0.00  0.00    +0.000 N 
ATOM     10  H   UNL     1       4.834   6.605  16.806  0.00  0.00    +0.000 HD
BRANCH   9  11
ATOM     11  C   UNL     1       5.457   4.643  16.336  0.00  0.00    +0.000 C 
BRANCH  11  12
ATOM     12  C   UNL     1       6.958   4.913  16.377  0.00  0.00    +0.000 C 
BRANCH  12  13
ATOM     13  C   UNL     1       7.361   5.621  17.649  0.00  0.00    +0.000 C 
ATOM     14  O   UNL     1       7.322   6.850  17.801  0.00  0.00    +0.000 OA
ATOM     15  N   UNL     1       7.785   4.798  18.654  0.00  0.00    +0.000 N 
ATOM     16  H   UNL     1       7.866   3.787  18.602  0.00  0.00    +0.000 HD
BRANCH  15  17
ATOM     17  O   UNL     1       8.179   5.417  19.861  0.00  0.00    +0.000 OA
ATOM     18  H   UNL     1       8.447   6.313  19.558  0.00  0.00    +0.000 HD
ENDBRANCH  15  17
ENDBRANCH  12  13
ENDBRANCH  11  12
ENDBRANCH   9  11
ENDBRANCH   4   7
BRANCH   1  19
ATOM     19  O   UNL     1       0.857   9.589  20.333  0.00  0.00    +0.000 OA
BRANCH  19  20
ATOM     20  C   UNL     1       0.697  10.710  19.425  0.00  0.00    +0.000 C 
BRANCH  20  24
ATOM     21  C   UNL     1      -2.717  13.578  21.716  0.00  0.00    +0.000 C 
ATOM     22  C   UNL     1      -2.317  12.672  20.591  0.00  0.00    +0.000 A 
ATOM     23  C   UNL     1      -1.045  12.143  20.537  0.00  0.00    +0.000 A 
ATOM     24  C   UNL     1      -0.699  11.285  19.489  0.00  0.00    +0.000 A 
ATOM     25  C   UNL     1      -1.672  10.983  18.502  0.00  0.00    +0.000 A 
ATOM     26  C   UNL     1      -1.442  10.132  17.390  0.00  0.00    +0.000 A 
ATOM     27  C   UNL     1      -2.444   9.882  16.451  0.00  0.00    +0.000 A 
ATOM     28  C   UNL     1      -3.687  10.475  16.604  0.00  0.00    +0.000 A 
ATOM     29  C   UNL     1      -3.921  11.315  17.694  0.00  0.00    +0.000 A 
ATOM     30  C   UNL     1      -2.943  11.579  18.645  0.00  0.00    +0.000 A 
ATOM     31  N   UNL     1      -3.258  12.398  19.661  0.00  0.00    +0.000 NA
ENDBRANCH  20  24
ENDBRANCH  19  20
ENDBRANCH   1  19
TORSDOF 8
ENDMDL
MODEL 8
REMARK VINA RESULT:      -8.5      4.809      8.353
REMARK  Name = 
REMARK  9 active torsions:
REMARK  status: ('A' for Active; 'I' for Inactive)
REMARK    1  A    between atoms: C_1  and  C_2
REMARK    2  A    between atoms: C_4  and  C_5
REMARK    3  A    between atoms: C_5  and  O_6
REMARK    4  A    between atoms: O_6  and  C_7
REMARK    5  A    between atoms: C_10  and  C_11
REMARK    6  A    between atoms: N_13  and  C_14
REMARK    7  A    between atoms: C_14  and  C_15
REMARK    8  A    between atoms: C_15  and  C_16
REMARK    9  A    between atoms: N_18  and  O_19
REMARK                            x       y       z     vdW  Elec       q    Type
REMARK                         _______ _______ _______ _____ _____    ______ ____
ROOT
ATOM      1  C   UNL     1       1.209   8.875  19.714  0.00  0.00    +0.000 A 
ATOM      2  C   UNL     1       1.826   8.913  18.472  0.00  0.00    +0.000 A 
ATOM      3  C   UNL     1       2.629   7.879  18.032  0.00  0.00    +0.000 A 
ATOM      4  C   UNL     1       2.885   6.778  18.869  0.00  0.00    +0.000 A 
ATOM      5  C   UNL     1       2.259   6.724  20.112  0.00  0.00    +0.000 A 
ATOM      6  C   UNL     1       1.426   7.769  20.552  0.00  0.00    +0.000 A 
ENDROOT
BRANCH   4   7
ATOM      7  C   UNL     1       3.829   5.731  18.373  0.00  0.00    +0.000 C 
ATOM      8  O   UNL     1       3.562   5.100  17.342  0.00  0.00    +0.000 OA
ATOM      9  N   UNL     1       4.991   5.509  19.069  0.00  0.00    +0.000 N 
ATOM     10  H   UNL     1       5.260   6.108  19.849  0.00  0.00    +0.000 HD
BRANCH   9  11
ATOM     11  C   UNL     1       5.989   4.546  18.628  0.00  0.00    +0.000 C 
BRANCH  11  12
ATOM     12  C   UNL     1       7.119   5.184  17.826  0.00  0.00    +0.000 C 
BRANCH  12  13
ATOM     13  C   UNL     1       7.017   4.849  16.357  0.00  0.00    +0.000 C 
ATOM     14  O   UNL     1       7.578   5.491  15.458  0.00  0.00    +0.000 OA
ATOM     15  N   UNL     1       6.240   3.762  16.069  0.00  0.00    +0.000 N 
ATOM     16  H   UNL     1       5.730   3.199  16.743  0.00  0.00    +0.000 HD
BRANCH  15  17
ATOM     17  O   UNL     1       6.108   3.417  14.706  0.00  0.00    +0.000 OA
ATOM     18  H   UNL     1       6.373   4.248  14.253  0.00  0.00    +0.000 HD
ENDBRANCH  15  17
ENDBRANCH  12  13
ENDBRANCH  11  12
ENDBRANCH   9  11
ENDBRANCH   4   7
BRANCH   1  19
ATOM     19  O   UNL     1       0.397   9.904  20.129  0.00  0.00    +0.000 OA
BRANCH  19  20
ATOM     20  C   UNL     1       0.255  10.949  19.131  0.00  0.00    +0.000 C 
BRANCH  20  24
ATOM     21  C   UNL     1      -2.994   9.709  15.522  0.00  0.00    +0.000 C 
ATOM     22  C   UNL     1      -2.688  10.376  16.829  0.00  0.00    +0.000 A 
ATOM     23  C   UNL     1      -1.411  10.345  17.347  0.00  0.00    +0.000 A 
ATOM     24  C   UNL     1      -1.142  10.989  18.559  0.00  0.00    +0.000 A 
ATOM     25  C   UNL     1      -2.199  11.659  19.226  0.00  0.00    +0.000 A 
ATOM     26  C   UNL     1      -2.056  12.343  20.461  0.00  0.00    +0.000 A 
ATOM     27  C   UNL     1      -3.141  12.977  21.068  0.00  0.00    +0.000 A 
ATOM     28  C   UNL     1      -4.384  12.938  20.456  0.00  0.00    +0.000 A 
ATOM     29  C   UNL     1      -4.534  12.265  19.243  0.00  0.00    +0.000 A 
ATOM     30  C   UNL     1      -3.471  11.628  18.616  0.00  0.00    +0.000 A 
ATOM     31  N   UNL     1      -3.708  11.007  17.450  0.00  0.00    +0.000 NA
ENDBRANCH  20  24
ENDBRANCH  19  20
ENDBRANCH   1  19
TORSDOF 8
ENDMDL
MODEL 9
REMARK VINA RESULT:      -8.4      5.680      9.773
REMARK  Name = 
REMARK  9 active torsions:
REMARK  status: ('A' for Active; 'I' for Inactive)
REMARK    1  A    between atoms: C_1  and  C_2
REMARK    2  A    between atoms: C_4  and  C_5
REMARK    3  A    between atoms: C_5  and  O_6
REMARK    4  A    between atoms: O_6  and  C_7
REMARK    5  A    between atoms: C_10  and  C_11
REMARK    6  A    between atoms: N_13  and  C_14
REMARK    7  A    between atoms: C_14  and  C_15
REMARK    8  A    between atoms: C_15  and  C_16
REMARK    9  A    between atoms: N_18  and  O_19
REMARK                            x       y       z     vdW  Elec       q    Type
REMARK                         _______ _______ _______ _____ _____    ______ ____
ROOT
ATOM      1  C   UNL     1       0.870   9.452  19.935  0.00  0.00    +0.000 A 
ATOM      2  C   UNL     1       1.191   8.415  20.798  0.00  0.00    +0.000 A 
ATOM      3  C   UNL     1       1.977   7.354  20.393  0.00  0.00    +0.000 A 
ATOM      4  C   UNL     1       2.425   7.275  19.062  0.00  0.00    +0.000 A 
ATOM      5  C   UNL     1       2.120   8.318  18.192  0.00  0.00    +0.000 A 
ATOM      6  C   UNL     1       1.336   9.409  18.611  0.00  0.00    +0.000 A 
ENDROOT
BRANCH   4   7
ATOM      7  C   UNL     1       3.199   6.062  18.660  0.00  0.00    +0.000 C 
ATOM      8  O   UNL     1       3.590   5.939  17.492  0.00  0.00    +0.000 OA
ATOM      9  N   UNL     1       3.478   5.114  19.612  0.00  0.00    +0.000 N 
ATOM     10  H   UNL     1       3.255   5.273  20.595  0.00  0.00    +0.000 HD
BRANCH   9  11
ATOM     11  C   UNL     1       4.269   3.928  19.320  0.00  0.00    +0.000 C 
BRANCH  11  12
ATOM     12  C   UNL     1       3.626   2.641  19.827  0.00  0.00    +0.000 C 
BRANCH  12  13
ATOM     13  C   UNL     1       2.129   2.650  19.622  0.00  0.00    +0.000 C 
ATOM     14  O   UNL     1       1.338   3.302  20.318  0.00  0.00    +0.000 OA
ATOM     15  N   UNL     1       1.686   1.869  18.592  0.00  0.00    +0.000 N 
ATOM     16  H   UNL     1       2.266   1.290  17.991  0.00  0.00    +0.000 HD
BRANCH  15  17
ATOM     17  O   UNL     1       0.292   1.840  18.368  0.00  0.00    +0.000 OA
ATOM     18  H   UNL     1       0.237   1.876  17.388  0.00  0.00    +0.000 HD
ENDBRANCH  15  17
ENDBRANCH  12  13
ENDBRANCH  11  12
ENDBRANCH   9  11
ENDBRANCH   4   7
BRANCH   1  19
ATOM     19  O   UNL     1       0.104  10.511  20.361  0.00  0.00    +0.000 OA
BRANCH  19  20
ATOM     20  C   UNL     1      -0.205  11.449  19.297  0.00  0.00    +0.000 C 
BRANCH  20  24
ATOM     21  C   UNL     1      -4.466  13.263  21.216  0.00  0.00    +0.000 C 
ATOM     22  C   UNL     1      -3.720  12.579  20.111  0.00  0.00    +0.000 A 
ATOM     23  C   UNL     1      -2.365  12.350  20.218  0.00  0.00    +0.000 A 
ATOM     24  C   UNL     1      -1.691  11.694  19.183  0.00  0.00    +0.000 A 
ATOM     25  C   UNL     1      -2.427  11.281  18.042  0.00  0.00    +0.000 A 
ATOM     26  C   UNL     1      -1.859  10.613  16.926  0.00  0.00    +0.000 A 
ATOM     27  C   UNL     1      -2.640  10.240  15.832  0.00  0.00    +0.000 A 
ATOM     28  C   UNL     1      -3.996  10.528  15.831  0.00  0.00    +0.000 A 
ATOM     29  C   UNL     1      -4.562  11.187  16.923  0.00  0.00    +0.000 A 
ATOM     30  C   UNL     1      -3.808  11.567  18.027  0.00  0.00    +0.000 A 
ATOM     31  N   UNL     1      -4.438  12.195  19.032  0.00  0.00    +0.000 NA
ENDBRANCH  20  24
ENDBRANCH  19  20
ENDBRANCH   1  19
TORSDOF 8
ENDMDL
