MODEL 1
REMARK VINA RESULT:      -6.7      0.000      0.000
REMARK  Name = 
REMARK  15 active torsions:
REMARK  status: ('A' for Active; 'I' for Inactive)
REMARK    1  A    between atoms: C_1  and  C_2
REMARK    2  A    between atoms: C_2  and  C_3
REMARK    3  A    between atoms: C_3  and  C_4
REMARK    4  A    between atoms: C_4  and  C_5
REMARK    5  A    between atoms: C_5  and  C_6
REMARK    6  A    between atoms: C_6  and  C_7
REMARK    7  A    between atoms: C_7  and  C_8
REMARK    8  A    between atoms: C_9  and  C_10
REMARK    9  A    between atoms: C_10  and  C_17
REMARK   10  A    between atoms: C_11  and  C_12
REMARK   11  A    between atoms: C_13  and  C_14
REMARK   12  A    between atoms: C_14  and  O_16
REMARK   13  A    between atoms: C_17  and  O_18
REMARK   14  A    between atoms: O_18  and  C_19
REMARK   15  A    between atoms: C_19  and  C_20
REMARK                            x       y       z     vdW  Elec       q    Type
REMARK                         _______ _______ _______ _____ _____    ______ ____
ROOT
ATOM      1  C   UNL     1       6.191   5.260  15.737  0.00  0.00    +0.000 C 
ATOM      2  C   UNL     1       6.615   4.763  14.552  0.00  0.00    +0.000 C 
ENDROOT
BRANCH   1   4
ATOM      3  C   UNL     1       4.388   5.738  17.338  0.00  0.00    +0.000 C 
ATOM      4  C   UNL     1       4.875   5.019  16.318  0.00  0.00    +0.000 C 
BRANCH   3   5
ATOM      5  C   UNL     1       3.045   5.545  17.979  0.00  0.00    +0.000 C 
BRANCH   5   6
ATOM      6  C   UNL     1       3.131   5.892  19.466  0.00  0.00    +0.000 C 
BRANCH   6   7
ATOM      7  C   UNL     1       1.894   5.444  20.238  0.00  0.00    +0.000 C 
BRANCH   7   8
ATOM      8  C   UNL     1       1.962   3.949  20.565  0.00  0.00    +0.000 C 
BRANCH   8   9
ATOM      9  C   UNL     1       0.891   3.182  19.793  0.00  0.00    +0.000 C 
BRANCH   9  11
ATOM     10  C   UNL     1       3.002   2.068  19.026  0.00  0.00    +0.000 C 
ATOM     11  C   UNL     1       1.482   2.033  18.979  0.00  0.00    +0.000 C 
ENDBRANCH   9  11
ENDBRANCH   8   9
ENDBRANCH   7   8
ENDBRANCH   6   7
ENDBRANCH   5   6
ENDBRANCH   3   5
ENDBRANCH   1   4
BRANCH   2  12
ATOM     12  C   UNL     1       5.853   3.899  13.670  0.00  0.00    +0.000 C 
ATOM     13  C   UNL     1       6.273   3.450  12.475  0.00  0.00    +0.000 C 
BRANCH  13  14
ATOM     14  C   UNL     1       5.365   2.570  11.708  0.00  0.00    +0.000 C 
ATOM     15  O   UNL     1       4.261   2.896  11.306  0.00  0.00    +0.000 OA
BRANCH  14  16
ATOM     16  O   UNL     1       5.895   1.351  11.486  0.00  0.00    +0.000 OA
ATOM     17  H   UNL     1       6.771   1.344  11.064  0.00  0.00    +0.000 HD
ENDBRANCH  14  16
ENDBRANCH  13  14
ENDBRANCH   2  12
BRANCH   1  18
ATOM     18  C   UNL     1       7.100   6.118  16.599  0.00  0.00    +0.000 C 
BRANCH  18  19
ATOM     19  O   UNL     1       7.685   5.344  17.663  0.00  0.00    +0.000 OA
BRANCH  19  20
ATOM     20  C   UNL     1       7.732   5.958  18.871  0.00  0.00    +0.000 C 
ATOM     21  C   UNL     1       8.314   7.337  18.755  0.00  0.00    +0.000 C 
ATOM     22  O   UNL     1       7.344   5.482  19.929  0.00  0.00    +0.000 OA
ENDBRANCH  19  20
ENDBRANCH  18  19
ENDBRANCH   1  18
TORSDOF 13
ENDMDL
MODEL 2
REMARK VINA RESULT:      -6.7      1.076      2.189
REMARK  Name = 
REMARK  15 active torsions:
REMARK  status: ('A' for Active; 'I' for Inactive)
REMARK    1  A    between atoms: C_1  and  C_2
REMARK    2  A    between atoms: C_2  and  C_3
REMARK    3  A    between atoms: C_3  and  C_4
REMARK    4  A    between atoms: C_4  and  C_5
REMARK    5  A    between atoms: C_5  and  C_6
REMARK    6  A    between atoms: C_6  and  C_7
REMARK    7  A    between atoms: C_7  and  C_8
REMARK    8  A    between atoms: C_9  and  C_10
REMARK    9  A    between atoms: C_10  and  C_17
REMARK   10  A    between atoms: C_11  and  C_12
REMARK   11  A    between atoms: C_13  and  C_14
REMARK   12  A    between atoms: C_14  and  O_16
REMARK   13  A    between atoms: C_17  and  O_18
REMARK   14  A    between atoms: O_18  and  C_19
REMARK   15  A    between atoms: C_19  and  C_20
REMARK                            x       y       z     vdW  Elec       q    Type
REMARK                         _______ _______ _______ _____ _____    ______ ____
ROOT
ATOM      1  C   UNL     1       5.341   4.650  16.458  0.00  0.00    +0.000 C 
ATOM      2  C   UNL     1       5.647   4.923  15.169  0.00  0.00    +0.000 C 
ENDROOT
BRANCH   1   4
ATOM      3  C   UNL     1       3.244   3.559  17.132  0.00  0.00    +0.000 C 
ATOM      4  C   UNL     1       4.563   3.500  16.903  0.00  0.00    +0.000 C 
BRANCH   3   5
ATOM      5  C   UNL     1       2.385   2.415  17.588  0.00  0.00    +0.000 C 
BRANCH   5   6
ATOM      6  C   UNL     1       2.764   2.026  19.016  0.00  0.00    +0.000 C 
BRANCH   6   7
ATOM      7  C   UNL     1       1.676   2.388  20.024  0.00  0.00    +0.000 C 
BRANCH   7   8
ATOM      8  C   UNL     1       2.286   2.783  21.372  0.00  0.00    +0.000 C 
BRANCH   8   9
ATOM      9  C   UNL     1       2.254   4.299  21.553  0.00  0.00    +0.000 C 
BRANCH   9  11
ATOM     10  C   UNL     1       2.464   5.980  19.705  0.00  0.00    +0.000 C 
ATOM     11  C   UNL     1       1.533   5.000  20.403  0.00  0.00    +0.000 C 
ENDBRANCH   9  11
ENDBRANCH   8   9
ENDBRANCH   7   8
ENDBRANCH   6   7
ENDBRANCH   5   6
ENDBRANCH   3   5
ENDBRANCH   1   4
BRANCH   2  12
ATOM     12  C   UNL     1       5.278   4.120  14.018  0.00  0.00    +0.000 C 
ATOM     13  C   UNL     1       6.127   3.698  13.065  0.00  0.00    +0.000 C 
BRANCH  13  14
ATOM     14  C   UNL     1       5.577   2.881  11.961  0.00  0.00    +0.000 C 
ATOM     15  O   UNL     1       6.125   1.902  11.486  0.00  0.00    +0.000 OA
BRANCH  14  16
ATOM     16  O   UNL     1       4.382   3.332  11.534  0.00  0.00    +0.000 OA
ATOM     17  H   UNL     1       4.411   3.969  10.799  0.00  0.00    +0.000 HD
ENDBRANCH  14  16
ENDBRANCH  13  14
ENDBRANCH   2  12
BRANCH   1  18
ATOM     18  C   UNL     1       5.827   5.543  17.586  0.00  0.00    +0.000 C 
BRANCH  18  19
ATOM     19  O   UNL     1       6.596   4.794  18.544  0.00  0.00    +0.000 OA
BRANCH  19  20
ATOM     20  C   UNL     1       7.459   5.522  19.296  0.00  0.00    +0.000 C 
ATOM     21  C   UNL     1       7.961   6.717  18.539  0.00  0.00    +0.000 C 
ATOM     22  O   UNL     1       7.789   5.271  20.447  0.00  0.00    +0.000 OA
ENDBRANCH  19  20
ENDBRANCH  18  19
ENDBRANCH   1  18
TORSDOF 13
ENDMDL
MODEL 3
REMARK VINA RESULT:      -6.6      1.223      2.228
REMARK  Name = 
REMARK  15 active torsions:
REMARK  status: ('A' for Active; 'I' for Inactive)
REMARK    1  A    between atoms: C_1  and  C_2
REMARK    2  A    between atoms: C_2  and  C_3
REMARK    3  A    between atoms: C_3  and  C_4
REMARK    4  A    between atoms: C_4  and  C_5
REMARK    5  A    between atoms: C_5  and  C_6
REMARK    6  A    between atoms: C_6  and  C_7
REMARK    7  A    between atoms: C_7  and  C_8
REMARK    8  A    between atoms: C_9  and  C_10
REMARK    9  A    between atoms: C_10  and  C_17
REMARK   10  A    between atoms: C_11  and  C_12
REMARK   11  A    between atoms: C_13  and  C_14
REMARK   12  A    between atoms: C_14  and  O_16
REMARK   13  A    between atoms: C_17  and  O_18
REMARK   14  A    between atoms: O_18  and  C_19
REMARK   15  A    between atoms: C_19  and  C_20
REMARK                            x       y       z     vdW  Elec       q    Type
REMARK                         _______ _______ _______ _____ _____    ______ ____
ROOT
ATOM      1  C   UNL     1       5.482   5.201  15.792  0.00  0.00    +0.000 C 
ATOM      2  C   UNL     1       6.074   4.853  14.626  0.00  0.00    +0.000 C 
ENDROOT
BRANCH   1   4
ATOM      3  C   UNL     1       4.288   3.533  17.146  0.00  0.00    +0.000 C 
ATOM      4  C   UNL     1       4.269   4.592  16.324  0.00  0.00    +0.000 C 
BRANCH   3   5
ATOM      5  C   UNL     1       3.081   2.860  17.730  0.00  0.00    +0.000 C 
BRANCH   5   6
ATOM      6  C   UNL     1       3.519   1.858  18.799  0.00  0.00    +0.000 C 
BRANCH   6   7
ATOM      7  C   UNL     1       3.686   2.509  20.170  0.00  0.00    +0.000 C 
BRANCH   7   8
ATOM      8  C   UNL     1       2.325   2.823  20.798  0.00  0.00    +0.000 C 
BRANCH   8   9
ATOM      9  C   UNL     1       2.295   4.254  21.327  0.00  0.00    +0.000 C 
BRANCH   9  11
ATOM     10  C   UNL     1       2.824   6.050  19.660  0.00  0.00    +0.000 C 
ATOM     11  C   UNL     1       1.716   5.233  20.307  0.00  0.00    +0.000 C 
ENDBRANCH   9  11
ENDBRANCH   8   9
ENDBRANCH   7   8
ENDBRANCH   6   7
ENDBRANCH   5   6
ENDBRANCH   3   5
ENDBRANCH   1   4
BRANCH   2  12
ATOM     12  C   UNL     1       5.625   3.812  13.721  0.00  0.00    +0.000 C 
ATOM     13  C   UNL     1       5.890   3.764  12.404  0.00  0.00    +0.000 C 
BRANCH  13  14
ATOM     14  C   UNL     1       5.354   2.622  11.631  0.00  0.00    +0.000 C 
ATOM     15  O   UNL     1       5.947   1.575  11.442  0.00  0.00    +0.000 OA
BRANCH  14  16
ATOM     16  O   UNL     1       4.115   2.859  11.157  0.00  0.00    +0.000 OA
ATOM     17  H   UNL     1       3.720   3.709  11.418  0.00  0.00    +0.000 HD
ENDBRANCH  14  16
ENDBRANCH  13  14
ENDBRANCH   2  12
BRANCH   1  18
ATOM     18  C   UNL     1       6.076   6.279  16.682  0.00  0.00    +0.000 C 
BRANCH  18  19
ATOM     19  O   UNL     1       7.467   6.021  16.946  0.00  0.00    +0.000 OA
BRANCH  19  20
ATOM     20  C   UNL     1       7.716   5.113  17.922  0.00  0.00    +0.000 C 
ATOM     21  C   UNL     1       7.101   5.535  19.224  0.00  0.00    +0.000 C 
ATOM     22  O   UNL     1       8.343   4.071  17.784  0.00  0.00    +0.000 OA
ENDBRANCH  19  20
ENDBRANCH  18  19
ENDBRANCH   1  18
TORSDOF 13
ENDMDL
MODEL 4
REMARK VINA RESULT:      -6.6      0.773      1.183
REMARK  Name = 
REMARK  15 active torsions:
REMARK  status: ('A' for Active; 'I' for Inactive)
REMARK    1  A    between atoms: C_1  and  C_2
REMARK    2  A    between atoms: C_2  and  C_3
REMARK    3  A    between atoms: C_3  and  C_4
REMARK    4  A    between atoms: C_4  and  C_5
REMARK    5  A    between atoms: C_5  and  C_6
REMARK    6  A    between atoms: C_6  and  C_7
REMARK    7  A    between atoms: C_7  and  C_8
REMARK    8  A    between atoms: C_9  and  C_10
REMARK    9  A    between atoms: C_10  and  C_17
REMARK   10  A    between atoms: C_11  and  C_12
REMARK   11  A    between atoms: C_13  and  C_14
REMARK   12  A    between atoms: C_14  and  O_16
REMARK   13  A    between atoms: C_17  and  O_18
REMARK   14  A    between atoms: O_18  and  C_19
REMARK   15  A    between atoms: C_19  and  C_20
REMARK                            x       y       z     vdW  Elec       q    Type
REMARK                         _______ _______ _______ _____ _____    ______ ____
ROOT
ATOM      1  C   UNL     1       6.365   5.122  15.844  0.00  0.00    +0.000 C 
ATOM      2  C   UNL     1       6.763   4.569  14.675  0.00  0.00    +0.000 C 
ENDROOT
BRANCH   1   4
ATOM      3  C   UNL     1       4.449   4.094  16.992  0.00  0.00    +0.000 C 
ATOM      4  C   UNL     1       4.992   5.130  16.336  0.00  0.00    +0.000 C 
BRANCH   3   5
ATOM      5  C   UNL     1       3.048   4.038  17.525  0.00  0.00    +0.000 C 
BRANCH   5   6
ATOM      6  C   UNL     1       2.537   5.456  17.778  0.00  0.00    +0.000 C 
BRANCH   6   7
ATOM      7  C   UNL     1       2.864   5.949  19.185  0.00  0.00    +0.000 C 
BRANCH   7   8
ATOM      8  C   UNL     1       3.179   4.775  20.117  0.00  0.00    +0.000 C 
BRANCH   8   9
ATOM      9  C   UNL     1       2.094   4.630  21.182  0.00  0.00    +0.000 C 
BRANCH   9  11
ATOM     10  C   UNL     1       1.735   2.288  20.365  0.00  0.00    +0.000 C 
ATOM     11  C   UNL     1       1.056   3.576  20.807  0.00  0.00    +0.000 C 
ENDBRANCH   9  11
ENDBRANCH   8   9
ENDBRANCH   7   8
ENDBRANCH   6   7
ENDBRANCH   5   6
ENDBRANCH   3   5
ENDBRANCH   1   4
BRANCH   2  12
ATOM     12  C   UNL     1       5.911   3.880  13.725  0.00  0.00    +0.000 C 
ATOM     13  C   UNL     1       6.321   3.351  12.560  0.00  0.00    +0.000 C 
BRANCH  13  14
ATOM     14  C   UNL     1       5.312   2.677  11.713  0.00  0.00    +0.000 C 
ATOM     15  O   UNL     1       4.264   3.182  11.350  0.00  0.00    +0.000 OA
BRANCH  14  16
ATOM     16  O   UNL     1       5.681   1.427  11.370  0.00  0.00    +0.000 OA
ATOM     17  H   UNL     1       6.170   1.347  10.533  0.00  0.00    +0.000 HD
ENDBRANCH  14  16
ENDBRANCH  13  14
ENDBRANCH   2  12
BRANCH   1  18
ATOM     18  C   UNL     1       7.363   5.777  16.783  0.00  0.00    +0.000 C 
BRANCH  18  19
ATOM     19  O   UNL     1       7.488   5.030  18.007  0.00  0.00    +0.000 OA
BRANCH  19  20
ATOM     20  C   UNL     1       7.752   5.767  19.114  0.00  0.00    +0.000 C 
ATOM     21  C   UNL     1       8.174   7.160  18.749  0.00  0.00    +0.000 C 
ATOM     22  O   UNL     1       7.654   5.379  20.270  0.00  0.00    +0.000 OA
ENDBRANCH  19  20
ENDBRANCH  18  19
ENDBRANCH   1  18
TORSDOF 13
ENDMDL
MODEL 5
REMARK VINA RESULT:      -6.5      1.127      2.359
REMARK  Name = 
REMARK  15 active torsions:
REMARK  status: ('A' for Active; 'I' for Inactive)
REMARK    1  A    between atoms: C_1  and  C_2
REMARK    2  A    between atoms: C_2  and  C_3
REMARK    3  A    between atoms: C_3  and  C_4
REMARK    4  A    between atoms: C_4  and  C_5
REMARK    5  A    between atoms: C_5  and  C_6
REMARK    6  A    between atoms: C_6  and  C_7
REMARK    7  A    between atoms: C_7  and  C_8
REMARK    8  A    between atoms: C_9  and  C_10
REMARK    9  A    between atoms: C_10  and  C_17
REMARK   10  A    between atoms: C_11  and  C_12
REMARK   11  A    between atoms: C_13  and  C_14
REMARK   12  A    between atoms: C_14  and  O_16
REMARK   13  A    between atoms: C_17  and  O_18
REMARK   14  A    between atoms: O_18  and  C_19
REMARK   15  A    between atoms: C_19  and  C_20
REMARK                            x       y       z     vdW  Elec       q    Type
REMARK                         _______ _______ _______ _____ _____    ______ ____
ROOT
ATOM      1  C   UNL     1       5.110   4.971  16.695  0.00  0.00    +0.000 C 
ATOM      2  C   UNL     1       5.397   5.397  15.444  0.00  0.00    +0.000 C 
ENDROOT
BRANCH   1   4
ATOM      3  C   UNL     1       3.437   3.475  17.700  0.00  0.00    +0.000 C 
ATOM      4  C   UNL     1       4.581   3.652  17.024  0.00  0.00    +0.000 C 
BRANCH   3   5
ATOM      5  C   UNL     1       2.836   2.150  18.067  0.00  0.00    +0.000 C 
BRANCH   5   6
ATOM      6  C   UNL     1       1.351   2.329  18.380  0.00  0.00    +0.000 C 
BRANCH   6   7
ATOM      7  C   UNL     1       1.071   3.614  19.154  0.00  0.00    +0.000 C 
BRANCH   7   8
ATOM      8  C   UNL     1       1.371   3.432  20.645  0.00  0.00    +0.000 C 
BRANCH   8   9
ATOM      9  C   UNL     1       2.143   4.632  21.188  0.00  0.00    +0.000 C 
BRANCH   9  11
ATOM     10  C   UNL     1       1.720   7.054  20.697  0.00  0.00    +0.000 C 
ATOM     11  C   UNL     1       2.275   5.747  20.152  0.00  0.00    +0.000 C 
ENDBRANCH   9  11
ENDBRANCH   8   9
ENDBRANCH   7   8
ENDBRANCH   6   7
ENDBRANCH   5   6
ENDBRANCH   3   5
ENDBRANCH   1   4
BRANCH   2  12
ATOM     12  C   UNL     1       5.252   4.622  14.226  0.00  0.00    +0.000 C 
ATOM     13  C   UNL     1       6.240   3.947  13.616  0.00  0.00    +0.000 C 
BRANCH  13  14
ATOM     14  C   UNL     1       5.911   3.204  12.380  0.00  0.00    +0.000 C 
ATOM     15  O   UNL     1       4.819   3.211  11.838  0.00  0.00    +0.000 OA
BRANCH  14  16
ATOM     16  O   UNL     1       6.963   2.513  11.899  0.00  0.00    +0.000 OA
ATOM     17  H   UNL     1       6.805   2.027  11.072  0.00  0.00    +0.000 HD
ENDBRANCH  14  16
ENDBRANCH  13  14
ENDBRANCH   2  12
BRANCH   1  18
ATOM     18  C   UNL     1       5.351   5.860  17.902  0.00  0.00    +0.000 C 
BRANCH  18  19
ATOM     19  O   UNL     1       6.206   5.210  18.860  0.00  0.00    +0.000 OA
BRANCH  19  20
ATOM     20  C   UNL     1       7.477   5.680  18.920  0.00  0.00    +0.000 C 
ATOM     21  C   UNL     1       7.638   6.913  18.080  0.00  0.00    +0.000 C 
ATOM     22  O   UNL     1       8.388   5.193  19.576  0.00  0.00    +0.000 OA
ENDBRANCH  19  20
ENDBRANCH  18  19
ENDBRANCH   1  18
TORSDOF 13
ENDMDL
MODEL 6
REMARK VINA RESULT:      -6.5      1.086      1.142
REMARK  Name = 
REMARK  15 active torsions:
REMARK  status: ('A' for Active; 'I' for Inactive)
REMARK    1  A    between atoms: C_1  and  C_2
REMARK    2  A    between atoms: C_2  and  C_3
REMARK    3  A    between atoms: C_3  and  C_4
REMARK    4  A    between atoms: C_4  and  C_5
REMARK    5  A    between atoms: C_5  and  C_6
REMARK    6  A    between atoms: C_6  and  C_7
REMARK    7  A    between atoms: C_7  and  C_8
REMARK    8  A    between atoms: C_9  and  C_10
REMARK    9  A    between atoms: C_10  and  C_17
REMARK   10  A    between atoms: C_11  and  C_12
REMARK   11  A    between atoms: C_13  and  C_14
REMARK   12  A    between atoms: C_14  and  O_16
REMARK   13  A    between atoms: C_17  and  O_18
REMARK   14  A    between atoms: O_18  and  C_19
REMARK   15  A    between atoms: C_19  and  C_20
REMARK                            x       y       z     vdW  Elec       q    Type
REMARK                         _______ _______ _______ _____ _____    ______ ____
ROOT
ATOM      1  C   UNL     1       5.691   5.854  16.150  0.00  0.00    +0.000 C 
ATOM      2  C   UNL     1       6.259   5.371  15.021  0.00  0.00    +0.000 C 
ENDROOT
BRANCH   1   4
ATOM      3  C   UNL     1       3.917   5.815  17.851  0.00  0.00    +0.000 C 
ATOM      4  C   UNL     1       4.354   5.513  16.620  0.00  0.00    +0.000 C 
BRANCH   3   5
ATOM      5  C   UNL     1       2.556   5.497  18.397  0.00  0.00    +0.000 C 
BRANCH   5   6
ATOM      6  C   UNL     1       2.665   5.158  19.883  0.00  0.00    +0.000 C 
BRANCH   6   7
ATOM      7  C   UNL     1       1.306   4.865  20.512  0.00  0.00    +0.000 C 
BRANCH   7   8
ATOM      8  C   UNL     1       0.988   3.368  20.461  0.00  0.00    +0.000 C 
BRANCH   8   9
ATOM      9  C   UNL     1       2.247   2.562  20.153  0.00  0.00    +0.000 C 
BRANCH   9  11
ATOM     10  C   UNL     1       3.366   1.877  18.017  0.00  0.00    +0.000 C 
ATOM     11  C   UNL     1       2.111   1.750  18.867  0.00  0.00    +0.000 C 
ENDBRANCH   9  11
ENDBRANCH   8   9
ENDBRANCH   7   8
ENDBRANCH   6   7
ENDBRANCH   5   6
ENDBRANCH   3   5
ENDBRANCH   1   4
BRANCH   2  12
ATOM     12  C   UNL     1       5.655   4.426  14.100  0.00  0.00    +0.000 C 
ATOM     13  C   UNL     1       6.229   3.967  12.976  0.00  0.00    +0.000 C 
BRANCH  13  14
ATOM     14  C   UNL     1       5.466   3.001  12.155  0.00  0.00    +0.000 C 
ATOM     15  O   UNL     1       4.346   3.197  11.716  0.00  0.00    +0.000 OA
BRANCH  14  16
ATOM     16  O   UNL     1       6.153   1.863  11.929  0.00  0.00    +0.000 OA
ATOM     17  H   UNL     1       6.976   1.761  12.437  0.00  0.00    +0.000 HD
ENDBRANCH  14  16
ENDBRANCH  13  14
ENDBRANCH   2  12
BRANCH   1  18
ATOM     18  C   UNL     1       6.446   6.804  17.063  0.00  0.00    +0.000 C 
BRANCH  18  19
ATOM     19  O   UNL     1       7.771   6.314  17.338  0.00  0.00    +0.000 OA
BRANCH  19  20
ATOM     20  C   UNL     1       7.834   5.231  18.152  0.00  0.00    +0.000 C 
ATOM     21  C   UNL     1       7.251   5.535  19.501  0.00  0.00    +0.000 C 
ATOM     22  O   UNL     1       8.287   4.136  17.849  0.00  0.00    +0.000 OA
ENDBRANCH  19  20
ENDBRANCH  18  19
ENDBRANCH   1  18
TORSDOF 13
ENDMDL
MODEL 7
REMARK VINA RESULT:      -6.5      0.870      1.374
REMARK  Name = 
REMARK  15 active torsions:
REMARK  status: ('A' for Active; 'I' for Inactive)
REMARK    1  A    between atoms: C_1  and  C_2
REMARK    2  A    between atoms: C_2  and  C_3
REMARK    3  A    between atoms: C_3  and  C_4
REMARK    4  A    between atoms: C_4  and  C_5
REMARK    5  A    between atoms: C_5  and  C_6
REMARK    6  A    between atoms: C_6  and  C_7
REMARK    7  A    between atoms: C_7  and  C_8
REMARK    8  A    between atoms: C_9  and  C_10
REMARK    9  A    between atoms: C_10  and  C_17
REMARK   10  A    between atoms: C_11  and  C_12
REMARK   11  A    between atoms: C_13  and  C_14
REMARK   12  A    between atoms: C_14  and  O_16
REMARK   13  A    between atoms: C_17  and  O_18
REMARK   14  A    between atoms: O_18  and  C_19
REMARK   15  A    between atoms: C_19  and  C_20
REMARK                            x       y       z     vdW  Elec       q    Type
REMARK                         _______ _______ _______ _____ _____    ______ ____
ROOT
ATOM      1  C   UNL     1       6.308   5.028  15.909  0.00  0.00    +0.000 C 
ATOM      2  C   UNL     1       6.699   4.691  14.658  0.00  0.00    +0.000 C 
ENDROOT
BRANCH   1   4
ATOM      3  C   UNL     1       4.295   5.626  17.187  0.00  0.00    +0.000 C 
ATOM      4  C   UNL     1       5.000   4.730  16.481  0.00  0.00    +0.000 C 
BRANCH   3   5
ATOM      5  C   UNL     1       2.946   5.387  17.799  0.00  0.00    +0.000 C 
BRANCH   5   6
ATOM      6  C   UNL     1       2.647   3.888  17.814  0.00  0.00    +0.000 C 
BRANCH   6   7
ATOM      7  C   UNL     1       1.241   3.582  18.321  0.00  0.00    +0.000 C 
BRANCH   7   8
ATOM      8  C   UNL     1       1.130   3.845  19.825  0.00  0.00    +0.000 C 
BRANCH   8   9
ATOM      9  C   UNL     1       1.479   2.587  20.617  0.00  0.00    +0.000 C 
BRANCH   9  11
ATOM     10  C   UNL     1       3.958   2.253  20.457  0.00  0.00    +0.000 C 
ATOM     11  C   UNL     1       2.814   2.718  21.346  0.00  0.00    +0.000 C 
ENDBRANCH   9  11
ENDBRANCH   8   9
ENDBRANCH   7   8
ENDBRANCH   6   7
ENDBRANCH   5   6
ENDBRANCH   3   5
ENDBRANCH   1   4
BRANCH   2  12
ATOM     12  C   UNL     1       5.903   3.966  13.684  0.00  0.00    +0.000 C 
ATOM     13  C   UNL     1       6.397   3.265  12.650  0.00  0.00    +0.000 C 
BRANCH  13  14
ATOM     14  C   UNL     1       5.437   2.582  11.755  0.00  0.00    +0.000 C 
ATOM     15  O   UNL     1       5.630   1.500  11.230  0.00  0.00    +0.000 OA
BRANCH  14  16
ATOM     16  O   UNL     1       4.302   3.288  11.584  0.00  0.00    +0.000 OA
ATOM     17  H   UNL     1       3.625   2.869  11.026  0.00  0.00    +0.000 HD
ENDBRANCH  14  16
ENDBRANCH  13  14
ENDBRANCH   2  12
BRANCH   1  18
ATOM     18  C   UNL     1       7.251   5.746  16.858  0.00  0.00    +0.000 C 
BRANCH  18  19
ATOM     19  O   UNL     1       7.389   5.022  18.095  0.00  0.00    +0.000 OA
BRANCH  19  20
ATOM     20  C   UNL     1       7.734   5.771  19.172  0.00  0.00    +0.000 C 
ATOM     21  C   UNL     1       8.237   7.122  18.753  0.00  0.00    +0.000 C 
ATOM     22  O   UNL     1       7.643   5.423  20.341  0.00  0.00    +0.000 OA
ENDBRANCH  19  20
ENDBRANCH  18  19
ENDBRANCH   1  18
TORSDOF 13
ENDMDL
MODEL 8
REMARK VINA RESULT:      -6.4      1.015      1.794
REMARK  Name = 
REMARK  15 active torsions:
REMARK  status: ('A' for Active; 'I' for Inactive)
REMARK    1  A    between atoms: C_1  and  C_2
REMARK    2  A    between atoms: C_2  and  C_3
REMARK    3  A    between atoms: C_3  and  C_4
REMARK    4  A    between atoms: C_4  and  C_5
REMARK    5  A    between atoms: C_5  and  C_6
REMARK    6  A    between atoms: C_6  and  C_7
REMARK    7  A    between atoms: C_7  and  C_8
REMARK    8  A    between atoms: C_9  and  C_10
REMARK    9  A    between atoms: C_10  and  C_17
REMARK   10  A    between atoms: C_11  and  C_12
REMARK   11  A    between atoms: C_13  and  C_14
REMARK   12  A    between atoms: C_14  and  O_16
REMARK   13  A    between atoms: C_17  and  O_18
REMARK   14  A    between atoms: O_18  and  C_19
REMARK   15  A    between atoms: C_19  and  C_20
REMARK                            x       y       z     vdW  Elec       q    Type
REMARK                         _______ _______ _______ _____ _____    ______ ____
ROOT
ATOM      1  C   UNL     1       6.324   4.667  15.979  0.00  0.00    +0.000 C 
ATOM      2  C   UNL     1       6.678   4.403  14.700  0.00  0.00    +0.000 C 
ENDROOT
BRANCH   1   4
ATOM      3  C   UNL     1       4.102   5.082  16.945  0.00  0.00    +0.000 C 
ATOM      4  C   UNL     1       5.082   4.232  16.606  0.00  0.00    +0.000 C 
BRANCH   3   5
ATOM      5  C   UNL     1       2.801   4.702  17.588  0.00  0.00    +0.000 C 
BRANCH   5   6
ATOM      6  C   UNL     1       2.413   3.286  17.163  0.00  0.00    +0.000 C 
BRANCH   6   7
ATOM      7  C   UNL     1       2.396   2.312  18.338  0.00  0.00    +0.000 C 
BRANCH   7   8
ATOM      8  C   UNL     1       1.004   2.241  18.972  0.00  0.00    +0.000 C 
BRANCH   8   9
ATOM      9  C   UNL     1       1.054   2.700  20.428  0.00  0.00    +0.000 C 
BRANCH   9  11
ATOM     10  C   UNL     1       2.312   4.742  21.156  0.00  0.00    +0.000 C 
ATOM     11  C   UNL     1       1.016   4.221  20.553  0.00  0.00    +0.000 C 
ENDBRANCH   9  11
ENDBRANCH   8   9
ENDBRANCH   7   8
ENDBRANCH   6   7
ENDBRANCH   5   6
ENDBRANCH   3   5
ENDBRANCH   1   4
BRANCH   2  12
ATOM     12  C   UNL     1       5.904   3.634  13.744  0.00  0.00    +0.000 C 
ATOM     13  C   UNL     1       6.220   3.466  12.449  0.00  0.00    +0.000 C 
BRANCH  13  14
ATOM     14  C   UNL     1       5.315   2.643  11.616  0.00  0.00    +0.000 C 
ATOM     15  O   UNL     1       4.226   3.009  11.209  0.00  0.00    +0.000 OA
BRANCH  14  16
ATOM     16  O   UNL     1       5.831   1.430  11.341  0.00  0.00    +0.000 OA
ATOM     17  H   UNL     1       5.314   0.670  11.660  0.00  0.00    +0.000 HD
ENDBRANCH  14  16
ENDBRANCH  13  14
ENDBRANCH   2  12
BRANCH   1  18
ATOM     18  C   UNL     1       7.245   5.445  16.903  0.00  0.00    +0.000 C 
BRANCH  18  19
ATOM     19  O   UNL     1       7.774   4.596  17.939  0.00  0.00    +0.000 OA
BRANCH  19  20
ATOM     20  C   UNL     1       7.696   5.096  19.197  0.00  0.00    +0.000 C 
ATOM     21  C   UNL     1       6.306   5.568  19.507  0.00  0.00    +0.000 C 
ATOM     22  O   UNL     1       8.617   5.153  20.000  0.00  0.00    +0.000 OA
ENDBRANCH  19  20
ENDBRANCH  18  19
ENDBRANCH   1  18
TORSDOF 13
ENDMDL
MODEL 9
REMARK VINA RESULT:      -6.4      1.306      2.579
REMARK  Name = 
REMARK  15 active torsions:
REMARK  status: ('A' for Active; 'I' for Inactive)
REMARK    1  A    between atoms: C_1  and  C_2
REMARK    2  A    between atoms: C_2  and  C_3
REMARK    3  A    between atoms: C_3  and  C_4
REMARK    4  A    between atoms: C_4  and  C_5
REMARK    5  A    between atoms: C_5  and  C_6
REMARK    6  A    between atoms: C_6  and  C_7
REMARK    7  A    between atoms: C_7  and  C_8
REMARK    8  A    between atoms: C_9  and  C_10
REMARK    9  A    between atoms: C_10  and  C_17
REMARK   10  A    between atoms: C_11  and  C_12
REMARK   11  A    between atoms: C_13  and  C_14
REMARK   12  A    between atoms: C_14  and  O_16
REMARK   13  A    between atoms: C_17  and  O_18
REMARK   14  A    between atoms: O_18  and  C_19
REMARK   15  A    between atoms: C_19  and  C_20
REMARK                            x       y       z     vdW  Elec       q    Type
REMARK                         _______ _______ _______ _____ _____    ______ ____
ROOT
ATOM      1  C   UNL     1       5.452   4.771  16.079  0.00  0.00    +0.000 C 
ATOM      2  C   UNL     1       5.858   4.767  14.788  0.00  0.00    +0.000 C 
ENDROOT
BRANCH   1   4
ATOM      3  C   UNL     1       3.477   4.331  17.474  0.00  0.00    +0.000 C 
ATOM      4  C   UNL     1       4.423   3.897  16.630  0.00  0.00    +0.000 C 
BRANCH   3   5
ATOM      5  C   UNL     1       2.390   3.489  18.075  0.00  0.00    +0.000 C 
BRANCH   5   6
ATOM      6  C   UNL     1       2.116   3.949  19.507  0.00  0.00    +0.000 C 
BRANCH   6   7
ATOM      7  C   UNL     1       2.769   5.293  19.819  0.00  0.00    +0.000 C 
BRANCH   7   8
ATOM      8  C   UNL     1       1.767   6.252  20.469  0.00  0.00    +0.000 C 
BRANCH   8   9
ATOM      9  C   UNL     1       2.012   7.684  20.000  0.00  0.00    +0.000 C 
BRANCH   9  11
ATOM     10  C   UNL     1       1.715   8.863  17.808  0.00  0.00    +0.000 C 
ATOM     11  C   UNL     1       2.444   7.744  18.536  0.00  0.00    +0.000 C 
ENDBRANCH   9  11
ENDBRANCH   8   9
ENDBRANCH   7   8
ENDBRANCH   6   7
ENDBRANCH   5   6
ENDBRANCH   3   5
ENDBRANCH   1   4
BRANCH   2  12
ATOM     12  C   UNL     1       5.362   3.891  13.742  0.00  0.00    +0.000 C 
ATOM     13  C   UNL     1       6.044   3.542  12.639  0.00  0.00    +0.000 C 
BRANCH  13  14
ATOM     14  C   UNL     1       5.383   2.633  11.676  0.00  0.00    +0.000 C 
ATOM     15  O   UNL     1       5.828   1.553  11.326  0.00  0.00    +0.000 OA
BRANCH  14  16
ATOM     16  O   UNL     1       4.213   3.125  11.224  0.00  0.00    +0.000 OA
ATOM     17  H   UNL     1       3.713   3.668  11.857  0.00  0.00    +0.000 HD
ENDBRANCH  14  16
ENDBRANCH  13  14
ENDBRANCH   2  12
BRANCH   1  18
ATOM     18  C   UNL     1       6.083   5.705  17.096  0.00  0.00    +0.000 C 
BRANCH  18  19
ATOM     19  O   UNL     1       6.966   4.987  17.978  0.00  0.00    +0.000 OA
BRANCH  19  20
ATOM     20  C   UNL     1       7.509   5.720  18.982  0.00  0.00    +0.000 C 
ATOM     21  C   UNL     1       7.995   7.048  18.480  0.00  0.00    +0.000 C 
ATOM     22  O   UNL     1       7.590   5.376  20.153  0.00  0.00    +0.000 OA
ENDBRANCH  19  20
ENDBRANCH  18  19
ENDBRANCH   1  18
TORSDOF 13
ENDMDL
