MODEL 1
REMARK VINA RESULT:      -6.5      0.000      0.000
REMARK  Name = 
REMARK  11 active torsions:
REMARK  status: ('A' for Active; 'I' for Inactive)
REMARK    1  A    between atoms: C_1  and  C_2
REMARK    2  A    between atoms: C_5  and  C_6
REMARK    3  A    between atoms: C_6  and  N_7
REMARK    4  A    between atoms: N_12  and  C_13
REMARK    5  A    between atoms: C_15  and  C_16
REMARK    6  A    between atoms: C_16  and  O_17
REMARK    7  A    between atoms: O_17  and  C_18
REMARK    8  A    between atoms: C_18  and  C_19
REMARK    9  A    between atoms: C_19  and  N_20
REMARK   10  A    between atoms: N_20  and  C_21
REMARK   11  A    between atoms: N_20  and  C_22
REMARK                            x       y       z     vdW  Elec       q    Type
REMARK                         _______ _______ _______ _____ _____    ______ ____
ROOT
ATOM      1  N   UNL     1       3.513   5.135  17.438  0.00  0.00    +0.000 NA
ATOM      2  C   UNL     1       2.438   4.189  17.010  0.00  0.00    +0.000 C 
ATOM      3  C   UNL     1       1.955   3.428  18.189  0.00  0.00    +0.000 A 
ATOM      4  N   UNL     1       1.494   2.149  18.181  0.00  0.00    +0.000 NA
ATOM      5  N   UNL     1       1.283   1.792  19.445  0.00  0.00    +0.000 NA
ATOM      6  N   UNL     1       1.621   2.834  20.234  0.00  0.00    +0.000 N 
ATOM      7  C   UNL     1       1.562   2.701  21.664  0.00  0.00    +0.000 C 
ATOM      8  C   UNL     1       2.042   3.889  19.486  0.00  0.00    +0.000 A 
ATOM      9  C   UNL     1       2.666   5.188  19.894  0.00  0.00    +0.000 C 
ATOM     10  C   UNL     1       3.025   5.963  18.577  0.00  0.00    +0.000 C 
ENDROOT
BRANCH   1  11
ATOM     11  C   UNL     1       4.768   4.427  17.780  0.00  0.00    +0.000 C 
BRANCH  11  16
ATOM     12  C   UNL     1       8.202   8.499  17.568  0.00  0.00    +0.000 C 
ATOM     13  C   UNL     1       7.490   7.256  17.970  0.00  0.00    +0.000 A 
ATOM     14  C   UNL     1       7.861   6.308  18.899  0.00  0.00    +0.000 A 
ATOM     15  C   UNL     1       6.921   5.240  18.980  0.00  0.00    +0.000 A 
ATOM     16  C   UNL     1       5.886   5.387  18.077  0.00  0.00    +0.000 A 
ATOM     17  S   UNL     1       6.004   6.862  17.219  0.00  0.00    +0.000 S 
ENDBRANCH  11  16
ENDBRANCH   1  11
BRANCH   9  18
ATOM     18  C   UNL     1       1.755   6.050  20.777  0.00  0.00    +0.000 C 
BRANCH  18  19
ATOM     19  O   UNL     1       1.833   7.426  20.372  0.00  0.00    +0.000 OA
BRANCH  19  20
ATOM     20  C   UNL     1       1.146   8.276  21.298  0.00  0.00    +0.000 C 
BRANCH  20  21
ATOM     21  C   UNL     1       0.382   9.388  20.552  0.00  0.00    +0.000 C 
BRANCH  21  22
ATOM     22  N   UNL     1      -0.364  10.292  21.452  0.00  0.00    +0.000 NA
ATOM     23  C   UNL     1      -0.327   9.840  22.845  0.00  0.00    +0.000 C 
ATOM     24  C   UNL     1       0.168  11.655  21.368  0.00  0.00    +0.000 C 
ENDBRANCH  21  22
ENDBRANCH  20  21
ENDBRANCH  19  20
ENDBRANCH  18  19
ENDBRANCH   9  18
TORSDOF 7
ENDMDL
MODEL 2
REMARK VINA RESULT:      -6.4      2.534      5.967
REMARK  Name = 
REMARK  11 active torsions:
REMARK  status: ('A' for Active; 'I' for Inactive)
REMARK    1  A    between atoms: C_1  and  C_2
REMARK    2  A    between atoms: C_5  and  C_6
REMARK    3  A    between atoms: C_6  and  N_7
REMARK    4  A    between atoms: N_12  and  C_13
REMARK    5  A    between atoms: C_15  and  C_16
REMARK    6  A    between atoms: C_16  and  O_17
REMARK    7  A    between atoms: O_17  and  C_18
REMARK    8  A    between atoms: C_18  and  C_19
REMARK    9  A    between atoms: C_19  and  N_20
REMARK   10  A    between atoms: N_20  and  C_21
REMARK   11  A    between atoms: N_20  and  C_22
REMARK                            x       y       z     vdW  Elec       q    Type
REMARK                         _______ _______ _______ _____ _____    ______ ____
ROOT
ATOM      1  N   UNL     1       2.743   6.581  19.903  0.00  0.00    +0.000 NA
ATOM      2  C   UNL     1       1.927   5.614  20.699  0.00  0.00    +0.000 C 
ATOM      3  C   UNL     1       1.796   4.343  19.943  0.00  0.00    +0.000 A 
ATOM      4  N   UNL     1       0.728   3.502  19.974  0.00  0.00    +0.000 NA
ATOM      5  N   UNL     1       0.942   2.551  19.068  0.00  0.00    +0.000 NA
ATOM      6  N   UNL     1       2.125   2.805  18.469  0.00  0.00    +0.000 N 
ATOM      7  C   UNL     1       2.577   1.973  17.388  0.00  0.00    +0.000 C 
ATOM      8  C   UNL     1       2.702   3.919  18.994  0.00  0.00    +0.000 A 
ATOM      9  C   UNL     1       3.913   4.687  18.561  0.00  0.00    +0.000 C 
ATOM     10  C   UNL     1       4.027   5.939  19.502  0.00  0.00    +0.000 C 
ENDROOT
BRANCH   1  11
ATOM     11  C   UNL     1       2.001   7.092  18.728  0.00  0.00    +0.000 C 
BRANCH  11  16
ATOM     12  C   UNL     1       0.245  11.863  20.330  0.00  0.00    +0.000 C 
ATOM     13  C   UNL     1       0.903  10.773  19.563  0.00  0.00    +0.000 A 
ATOM     14  C   UNL     1       1.487  10.823  18.314  0.00  0.00    +0.000 A 
ATOM     15  C   UNL     1       1.989   9.554  17.905  0.00  0.00    +0.000 A 
ATOM     16  C   UNL     1       1.732   8.567  18.838  0.00  0.00    +0.000 A 
ATOM     17  S   UNL     1       0.984   9.203  20.238  0.00  0.00    +0.000 S 
ENDBRANCH  11  16
ENDBRANCH   1  11
BRANCH   9  18
ATOM     18  C   UNL     1       5.208   3.867  18.622  0.00  0.00    +0.000 C 
BRANCH  18  19
ATOM     19  O   UNL     1       6.277   4.671  19.146  0.00  0.00    +0.000 OA
BRANCH  19  20
ATOM     20  C   UNL     1       7.386   4.709  18.238  0.00  0.00    +0.000 C 
BRANCH  20  21
ATOM     21  C   UNL     1       6.893   4.815  16.782  0.00  0.00    +0.000 C 
BRANCH  21  22
ATOM     22  N   UNL     1       6.767   6.207  16.305  0.00  0.00    +0.000 NA
ATOM     23  C   UNL     1       5.380   6.560  15.988  0.00  0.00    +0.000 C 
ATOM     24  C   UNL     1       7.291   7.143  17.304  0.00  0.00    +0.000 C 
ENDBRANCH  21  22
ENDBRANCH  20  21
ENDBRANCH  19  20
ENDBRANCH  18  19
ENDBRANCH   9  18
TORSDOF 7
ENDMDL
MODEL 3
REMARK VINA RESULT:      -6.4      0.860      1.215
REMARK  Name = 
REMARK  11 active torsions:
REMARK  status: ('A' for Active; 'I' for Inactive)
REMARK    1  A    between atoms: C_1  and  C_2
REMARK    2  A    between atoms: C_5  and  C_6
REMARK    3  A    between atoms: C_6  and  N_7
REMARK    4  A    between atoms: N_12  and  C_13
REMARK    5  A    between atoms: C_15  and  C_16
REMARK    6  A    between atoms: C_16  and  O_17
REMARK    7  A    between atoms: O_17  and  C_18
REMARK    8  A    between atoms: C_18  and  C_19
REMARK    9  A    between atoms: C_19  and  N_20
REMARK   10  A    between atoms: N_20  and  C_21
REMARK   11  A    between atoms: N_20  and  C_22
REMARK                            x       y       z     vdW  Elec       q    Type
REMARK                         _______ _______ _______ _____ _____    ______ ____
ROOT
ATOM      1  N   UNL     1       3.665   5.023  17.501  0.00  0.00    +0.000 NA
ATOM      2  C   UNL     1       2.627   4.019  17.116  0.00  0.00    +0.000 C 
ATOM      3  C   UNL     1       2.167   3.299  18.330  0.00  0.00    +0.000 A 
ATOM      4  N   UNL     1       1.754   2.005  18.383  0.00  0.00    +0.000 NA
ATOM      5  N   UNL     1       1.551   1.702  19.663  0.00  0.00    +0.000 NA
ATOM      6  N   UNL     1       1.846   2.793  20.401  0.00  0.00    +0.000 N 
ATOM      7  C   UNL     1       1.787   2.728  21.835  0.00  0.00    +0.000 C 
ATOM      8  C   UNL     1       2.231   3.825  19.603  0.00  0.00    +0.000 A 
ATOM      9  C   UNL     1       2.806   5.164  19.949  0.00  0.00    +0.000 C 
ATOM     10  C   UNL     1       3.141   5.888  18.597  0.00  0.00    +0.000 C 
ENDROOT
BRANCH   1  11
ATOM     11  C   UNL     1       4.943   4.380  17.880  0.00  0.00    +0.000 C 
BRANCH  11  16
ATOM     12  C   UNL     1       8.226   8.567  17.554  0.00  0.00    +0.000 C 
ATOM     13  C   UNL     1       7.552   7.318  17.997  0.00  0.00    +0.000 A 
ATOM     14  C   UNL     1       7.936   6.427  18.978  0.00  0.00    +0.000 A 
ATOM     15  C   UNL     1       7.036   5.329  19.088  0.00  0.00    +0.000 A 
ATOM     16  C   UNL     1       6.017   5.395  18.157  0.00  0.00    +0.000 A 
ATOM     17  S   UNL     1       6.101   6.832  17.233  0.00  0.00    +0.000 S 
ENDBRANCH  11  16
ENDBRANCH   1  11
BRANCH   9  18
ATOM     18  C   UNL     1       1.860   6.035  20.787  0.00  0.00    +0.000 C 
BRANCH  18  19
ATOM     19  O   UNL     1       1.746   7.343  20.204  0.00  0.00    +0.000 OA
BRANCH  19  20
ATOM     20  C   UNL     1       1.285   8.298  21.168  0.00  0.00    +0.000 C 
BRANCH  20  21
ATOM     21  C   UNL     1       0.451   9.399  20.485  0.00  0.00    +0.000 C 
BRANCH  21  22
ATOM     22  N   UNL     1       1.194  10.137  19.443  0.00  0.00    +0.000 NA
ATOM     23  C   UNL     1       0.877   9.659  18.094  0.00  0.00    +0.000 C 
ATOM     24  C   UNL     1       0.912  11.572  19.529  0.00  0.00    +0.000 C 
ENDBRANCH  21  22
ENDBRANCH  20  21
ENDBRANCH  19  20
ENDBRANCH  18  19
ENDBRANCH   9  18
TORSDOF 7
ENDMDL
MODEL 4
REMARK VINA RESULT:      -6.4      2.608      6.358
REMARK  Name = 
REMARK  11 active torsions:
REMARK  status: ('A' for Active; 'I' for Inactive)
REMARK    1  A    between atoms: C_1  and  C_2
REMARK    2  A    between atoms: C_5  and  C_6
REMARK    3  A    between atoms: C_6  and  N_7
REMARK    4  A    between atoms: N_12  and  C_13
REMARK    5  A    between atoms: C_15  and  C_16
REMARK    6  A    between atoms: C_16  and  O_17
REMARK    7  A    between atoms: O_17  and  C_18
REMARK    8  A    between atoms: C_18  and  C_19
REMARK    9  A    between atoms: C_19  and  N_20
REMARK   10  A    between atoms: N_20  and  C_21
REMARK   11  A    between atoms: N_20  and  C_22
REMARK                            x       y       z     vdW  Elec       q    Type
REMARK                         _______ _______ _______ _____ _____    ______ ____
ROOT
ATOM      1  N   UNL     1       2.667   6.722  17.949  0.00  0.00    +0.000 NA
ATOM      2  C   UNL     1       3.530   7.415  16.945  0.00  0.00    +0.000 C 
ATOM      3  C   UNL     1       4.914   6.888  17.040  0.00  0.00    +0.000 A 
ATOM      4  N   UNL     1       6.055   7.589  16.802  0.00  0.00    +0.000 NA
ATOM      5  N   UNL     1       7.081   6.803  17.120  0.00  0.00    +0.000 NA
ATOM      6  N   UNL     1       6.585   5.628  17.562  0.00  0.00    +0.000 N 
ATOM      7  C   UNL     1       7.474   4.609  18.047  0.00  0.00    +0.000 C 
ATOM      8  C   UNL     1       5.225   5.634  17.522  0.00  0.00    +0.000 A 
ATOM      9  C   UNL     1       4.229   4.648  18.053  0.00  0.00    +0.000 C 
ATOM     10  C   UNL     1       2.801   5.246  17.790  0.00  0.00    +0.000 C 
ENDROOT
BRANCH   1  11
ATOM     11  C   UNL     1       2.977   7.150  19.333  0.00  0.00    +0.000 C 
BRANCH  11  16
ATOM     12  C   UNL     1      -0.635  10.929  20.377  0.00  0.00    +0.000 C 
ATOM     13  C   UNL     1       0.192   9.694  20.438  0.00  0.00    +0.000 A 
ATOM     14  C   UNL     1       0.258   8.744  21.435  0.00  0.00    +0.000 A 
ATOM     15  C   UNL     1       1.197   7.716  21.135  0.00  0.00    +0.000 A 
ATOM     16  C   UNL     1       1.849   7.939  19.938  0.00  0.00    +0.000 A 
ATOM     17  S   UNL     1       1.246   9.327  19.142  0.00  0.00    +0.000 S 
ENDBRANCH  11  16
ENDBRANCH   1  11
BRANCH   9  18
ATOM     18  C   UNL     1       4.342   3.261  17.407  0.00  0.00    +0.000 C 
BRANCH  18  19
ATOM     19  O   UNL     1       3.061   2.612  17.405  0.00  0.00    +0.000 OA
BRANCH  19  20
ATOM     20  C   UNL     1       2.903   1.780  18.562  0.00  0.00    +0.000 C 
BRANCH  20  21
ATOM     21  C   UNL     1       1.522   2.005  19.208  0.00  0.00    +0.000 C 
BRANCH  21  22
ATOM     22  N   UNL     1       1.595   2.632  20.544  0.00  0.00    +0.000 NA
ATOM     23  C   UNL     1       2.970   2.713  21.043  0.00  0.00    +0.000 C 
ATOM     24  C   UNL     1       1.008   3.974  20.515  0.00  0.00    +0.000 C 
ENDBRANCH  21  22
ENDBRANCH  20  21
ENDBRANCH  19  20
ENDBRANCH  18  19
ENDBRANCH   9  18
TORSDOF 7
ENDMDL
MODEL 5
REMARK VINA RESULT:      -6.2      2.746      6.406
REMARK  Name = 
REMARK  11 active torsions:
REMARK  status: ('A' for Active; 'I' for Inactive)
REMARK    1  A    between atoms: C_1  and  C_2
REMARK    2  A    between atoms: C_5  and  C_6
REMARK    3  A    between atoms: C_6  and  N_7
REMARK    4  A    between atoms: N_12  and  C_13
REMARK    5  A    between atoms: C_15  and  C_16
REMARK    6  A    between atoms: C_16  and  O_17
REMARK    7  A    between atoms: O_17  and  C_18
REMARK    8  A    between atoms: C_18  and  C_19
REMARK    9  A    between atoms: C_19  and  N_20
REMARK   10  A    between atoms: N_20  and  C_21
REMARK   11  A    between atoms: N_20  and  C_22
REMARK                            x       y       z     vdW  Elec       q    Type
REMARK                         _______ _______ _______ _____ _____    ______ ____
ROOT
ATOM      1  N   UNL     1       3.114   6.625  17.720  0.00  0.00    +0.000 NA
ATOM      2  C   UNL     1       4.137   7.117  16.747  0.00  0.00    +0.000 C 
ATOM      3  C   UNL     1       5.494   6.854  17.287  0.00  0.00    +0.000 A 
ATOM      4  N   UNL     1       6.599   7.619  17.079  0.00  0.00    +0.000 NA
ATOM      5  N   UNL     1       7.577   7.121  17.832  0.00  0.00    +0.000 NA
ATOM      6  N   UNL     1       7.083   6.064  18.512  0.00  0.00    +0.000 N 
ATOM      7  C   UNL     1       7.908   5.375  19.465  0.00  0.00    +0.000 C 
ATOM      8  C   UNL     1       5.778   5.854  18.194  0.00  0.00    +0.000 A 
ATOM      9  C   UNL     1       4.764   4.927  18.792  0.00  0.00    +0.000 C 
ATOM     10  C   UNL     1       3.399   5.203  18.067  0.00  0.00    +0.000 C 
ENDROOT
BRANCH   1  11
ATOM     11  C   UNL     1       3.046   7.476  18.930  0.00  0.00    +0.000 C 
BRANCH  11  16
ATOM     12  C   UNL     1      -0.977  10.791  20.044  0.00  0.00    +0.000 C 
ATOM     13  C   UNL     1       0.079  10.023  19.333  0.00  0.00    +0.000 A 
ATOM     14  C   UNL     1       0.307   9.913  17.977  0.00  0.00    +0.000 A 
ATOM     15  C   UNL     1       1.406   9.056  17.684  0.00  0.00    +0.000 A 
ATOM     16  C   UNL     1       1.955   8.505  18.826  0.00  0.00    +0.000 A 
ATOM     17  S   UNL     1       1.205   9.109  20.240  0.00  0.00    +0.000 S 
ENDBRANCH  11  16
ENDBRANCH   1  11
BRANCH   9  18
ATOM     18  C   UNL     1       5.139   3.446  18.656  0.00  0.00    +0.000 C 
BRANCH  18  19
ATOM     19  O   UNL     1       4.969   2.776  19.915  0.00  0.00    +0.000 OA
BRANCH  19  20
ATOM     20  C   UNL     1       3.731   2.055  19.953  0.00  0.00    +0.000 C 
BRANCH  20  21
ATOM     21  C   UNL     1       2.789   2.648  21.018  0.00  0.00    +0.000 C 
BRANCH  21  22
ATOM     22  N   UNL     1       1.418   2.886  20.521  0.00  0.00    +0.000 NA
ATOM     23  C   UNL     1       1.064   4.308  20.534  0.00  0.00    +0.000 C 
ATOM     24  C   UNL     1       1.265   2.359  19.163  0.00  0.00    +0.000 C 
ENDBRANCH  21  22
ENDBRANCH  20  21
ENDBRANCH  19  20
ENDBRANCH  18  19
ENDBRANCH   9  18
TORSDOF 7
ENDMDL
MODEL 6
REMARK VINA RESULT:      -6.2      2.589      6.029
REMARK  Name = 
REMARK  11 active torsions:
REMARK  status: ('A' for Active; 'I' for Inactive)
REMARK    1  A    between atoms: C_1  and  C_2
REMARK    2  A    between atoms: C_5  and  C_6
REMARK    3  A    between atoms: C_6  and  N_7
REMARK    4  A    between atoms: N_12  and  C_13
REMARK    5  A    between atoms: C_15  and  C_16
REMARK    6  A    between atoms: C_16  and  O_17
REMARK    7  A    between atoms: O_17  and  C_18
REMARK    8  A    between atoms: C_18  and  C_19
REMARK    9  A    between atoms: C_19  and  N_20
REMARK   10  A    between atoms: N_20  and  C_21
REMARK   11  A    between atoms: N_20  and  C_22
REMARK                            x       y       z     vdW  Elec       q    Type
REMARK                         _______ _______ _______ _____ _____    ______ ____
ROOT
ATOM      1  N   UNL     1       2.864   6.818  19.762  0.00  0.00    +0.000 NA
ATOM      2  C   UNL     1       2.115   5.901  20.675  0.00  0.00    +0.000 C 
ATOM      3  C   UNL     1       1.878   4.608  19.986  0.00  0.00    +0.000 A 
ATOM      4  N   UNL     1       0.802   3.795  20.159  0.00  0.00    +0.000 NA
ATOM      5  N   UNL     1       0.900   2.808  19.272  0.00  0.00    +0.000 NA
ATOM      6  N   UNL     1       2.020   3.009  18.546  0.00  0.00    +0.000 N 
ATOM      7  C   UNL     1       2.339   2.127  17.457  0.00  0.00    +0.000 C 
ATOM      8  C   UNL     1       2.672   4.127  18.966  0.00  0.00    +0.000 A 
ATOM      9  C   UNL     1       3.848   4.848  18.382  0.00  0.00    +0.000 C 
ATOM     10  C   UNL     1       4.086   6.129  19.257  0.00  0.00    +0.000 C 
ENDROOT
BRANCH   1  11
ATOM     11  C   UNL     1       2.016   7.305  18.650  0.00  0.00    +0.000 C 
BRANCH  11  16
ATOM     12  C   UNL     1       0.123  12.001  20.319  0.00  0.00    +0.000 C 
ATOM     13  C   UNL     1       0.818  10.942  19.540  0.00  0.00    +0.000 A 
ATOM     14  C   UNL     1       1.418  11.030  18.301  0.00  0.00    +0.000 A 
ATOM     15  C   UNL     1       1.956   9.781  17.875  0.00  0.00    +0.000 A 
ATOM     16  C   UNL     1       1.710   8.771  18.784  0.00  0.00    +0.000 A 
ATOM     17  S   UNL     1       0.928   9.362  20.186  0.00  0.00    +0.000 S 
ENDBRANCH  11  16
ENDBRANCH   1  11
BRANCH   9  18
ATOM     18  C   UNL     1       5.125   3.998  18.342  0.00  0.00    +0.000 C 
BRANCH  18  19
ATOM     19  O   UNL     1       5.713   4.052  17.033  0.00  0.00    +0.000 OA
BRANCH  19  20
ATOM     20  C   UNL     1       7.074   4.495  17.097  0.00  0.00    +0.000 C 
BRANCH  20  21
ATOM     21  C   UNL     1       7.175   5.995  16.760  0.00  0.00    +0.000 C 
BRANCH  21  22
ATOM     22  N   UNL     1       7.261   6.861  17.954  0.00  0.00    +0.000 NA
ATOM     23  C   UNL     1       8.046   6.246  19.028  0.00  0.00    +0.000 C 
ATOM     24  C   UNL     1       7.844   8.159  17.607  0.00  0.00    +0.000 C 
ENDBRANCH  21  22
ENDBRANCH  20  21
ENDBRANCH  19  20
ENDBRANCH  18  19
ENDBRANCH   9  18
TORSDOF 7
ENDMDL
MODEL 7
REMARK VINA RESULT:      -6.0      1.684      2.095
REMARK  Name = 
REMARK  11 active torsions:
REMARK  status: ('A' for Active; 'I' for Inactive)
REMARK    1  A    between atoms: C_1  and  C_2
REMARK    2  A    between atoms: C_5  and  C_6
REMARK    3  A    between atoms: C_6  and  N_7
REMARK    4  A    between atoms: N_12  and  C_13
REMARK    5  A    between atoms: C_15  and  C_16
REMARK    6  A    between atoms: C_16  and  O_17
REMARK    7  A    between atoms: O_17  and  C_18
REMARK    8  A    between atoms: C_18  and  C_19
REMARK    9  A    between atoms: C_19  and  N_20
REMARK   10  A    between atoms: N_20  and  C_21
REMARK   11  A    between atoms: N_20  and  C_22
REMARK                            x       y       z     vdW  Elec       q    Type
REMARK                         _______ _______ _______ _____ _____    ______ ____
ROOT
ATOM      1  N   UNL     1       3.242   5.289  17.682  0.00  0.00    +0.000 NA
ATOM      2  C   UNL     1       2.205   4.288  17.286  0.00  0.00    +0.000 C 
ATOM      3  C   UNL     1       1.783   3.519  18.484  0.00  0.00    +0.000 A 
ATOM      4  N   UNL     1       1.383   2.219  18.499  0.00  0.00    +0.000 NA
ATOM      5  N   UNL     1       1.215   1.868  19.771  0.00  0.00    +0.000 NA
ATOM      6  N   UNL     1       1.518   2.934  20.542  0.00  0.00    +0.000 N 
ATOM      7  C   UNL     1       1.496   2.815  21.974  0.00  0.00    +0.000 C 
ATOM      8  C   UNL     1       1.873   3.999  19.773  0.00  0.00    +0.000 A 
ATOM      9  C   UNL     1       2.443   5.330  20.155  0.00  0.00    +0.000 C 
ATOM     10  C   UNL     1       2.737   6.107  18.822  0.00  0.00    +0.000 C 
ENDROOT
BRANCH   1  11
ATOM     11  C   UNL     1       4.536   4.646  18.006  0.00  0.00    +0.000 C 
BRANCH  11  16
ATOM     12  C   UNL     1       6.894   4.144  13.252  0.00  0.00    +0.000 C 
ATOM     13  C   UNL     1       6.609   4.488  14.670  0.00  0.00    +0.000 A 
ATOM     14  C   UNL     1       7.461   5.003  15.625  0.00  0.00    +0.000 A 
ATOM     15  C   UNL     1       6.817   5.171  16.885  0.00  0.00    +0.000 A 
ATOM     16  C   UNL     1       5.505   4.737  16.861  0.00  0.00    +0.000 A 
ATOM     17  S   UNL     1       5.037   4.232  15.295  0.00  0.00    +0.000 S 
ENDBRANCH  11  16
ENDBRANCH   1  11
BRANCH   9  18
ATOM     18  C   UNL     1       1.510   6.159  21.047  0.00  0.00    +0.000 C 
BRANCH  18  19
ATOM     19  O   UNL     1       1.716   7.560  20.811  0.00  0.00    +0.000 OA
BRANCH  19  20
ATOM     20  C   UNL     1       0.550   8.319  21.154  0.00  0.00    +0.000 C 
BRANCH  20  21
ATOM     21  C   UNL     1       0.860   9.828  21.147  0.00  0.00    +0.000 C 
BRANCH  21  22
ATOM     22  N   UNL     1       0.347  10.538  22.336  0.00  0.00    +0.000 NA
ATOM     23  C   UNL     1      -0.746  11.456  22.004  0.00  0.00    +0.000 C 
ATOM     24  C   UNL     1      -0.111   9.582  23.348  0.00  0.00    +0.000 C 
ENDBRANCH  21  22
ENDBRANCH  20  21
ENDBRANCH  19  20
ENDBRANCH  18  19
ENDBRANCH   9  18
TORSDOF 7
ENDMDL
MODEL 8
REMARK VINA RESULT:      -6.0      2.365      5.784
REMARK  Name = 
REMARK  11 active torsions:
REMARK  status: ('A' for Active; 'I' for Inactive)
REMARK    1  A    between atoms: C_1  and  C_2
REMARK    2  A    between atoms: C_5  and  C_6
REMARK    3  A    between atoms: C_6  and  N_7
REMARK    4  A    between atoms: N_12  and  C_13
REMARK    5  A    between atoms: C_15  and  C_16
REMARK    6  A    between atoms: C_16  and  O_17
REMARK    7  A    between atoms: O_17  and  C_18
REMARK    8  A    between atoms: C_18  and  C_19
REMARK    9  A    between atoms: C_19  and  N_20
REMARK   10  A    between atoms: N_20  and  C_21
REMARK   11  A    between atoms: N_20  and  C_22
REMARK                            x       y       z     vdW  Elec       q    Type
REMARK                         _______ _______ _______ _____ _____    ______ ____
ROOT
ATOM      1  N   UNL     1       2.755   6.475  20.059  0.00  0.00    +0.000 NA
ATOM      2  C   UNL     1       1.888   5.477  20.756  0.00  0.00    +0.000 C 
ATOM      3  C   UNL     1       1.767   4.260  19.915  0.00  0.00    +0.000 A 
ATOM      4  N   UNL     1       0.685   3.440  19.846  0.00  0.00    +0.000 NA
ATOM      5  N   UNL     1       0.921   2.545  18.890  0.00  0.00    +0.000 NA
ATOM      6  N   UNL     1       2.134   2.811  18.360  0.00  0.00    +0.000 N 
ATOM      7  C   UNL     1       2.617   2.040  17.249  0.00  0.00    +0.000 C 
ATOM      8  C   UNL     1       2.707   3.878  18.980  0.00  0.00    +0.000 A 
ATOM      9  C   UNL     1       3.949   4.646  18.650  0.00  0.00    +0.000 C 
ATOM     10  C   UNL     1       4.045   5.834  19.673  0.00  0.00    +0.000 C 
ENDROOT
BRANCH   1  11
ATOM     11  C   UNL     1       2.076   7.075  18.888  0.00  0.00    +0.000 C 
BRANCH  11  16
ATOM     12  C   UNL     1       1.168  12.322  18.633  0.00  0.00    +0.000 C 
ATOM     13  C   UNL     1       1.196  10.902  19.074  0.00  0.00    +0.000 A 
ATOM     14  C   UNL     1       0.802  10.361  20.279  0.00  0.00    +0.000 A 
ATOM     15  C   UNL     1       1.011   8.952  20.330  0.00  0.00    +0.000 A 
ATOM     16  C   UNL     1       1.599   8.471  19.176  0.00  0.00    +0.000 A 
ATOM     17  S   UNL     1       1.794   9.705  18.007  0.00  0.00    +0.000 S 
ENDBRANCH  11  16
ENDBRANCH   1  11
BRANCH   9  18
ATOM     18  C   UNL     1       5.226   3.797  18.714  0.00  0.00    +0.000 C 
BRANCH  18  19
ATOM     19  O   UNL     1       6.350   4.622  19.058  0.00  0.00    +0.000 OA
BRANCH  19  20
ATOM     20  C   UNL     1       7.369   4.550  18.053  0.00  0.00    +0.000 C 
BRANCH  20  21
ATOM     21  C   UNL     1       7.120   5.597  16.950  0.00  0.00    +0.000 C 
BRANCH  21  22
ATOM     22  N   UNL     1       6.598   6.879  17.466  0.00  0.00    +0.000 NA
ATOM     23  C   UNL     1       7.610   7.938  17.444  0.00  0.00    +0.000 C 
ATOM     24  C   UNL     1       5.429   7.306  16.692  0.00  0.00    +0.000 C 
ENDBRANCH  21  22
ENDBRANCH  20  21
ENDBRANCH  19  20
ENDBRANCH  18  19
ENDBRANCH   9  18
TORSDOF 7
ENDMDL
MODEL 9
REMARK VINA RESULT:      -5.9      1.915      2.305
REMARK  Name = 
REMARK  11 active torsions:
REMARK  status: ('A' for Active; 'I' for Inactive)
REMARK    1  A    between atoms: C_1  and  C_2
REMARK    2  A    between atoms: C_5  and  C_6
REMARK    3  A    between atoms: C_6  and  N_7
REMARK    4  A    between atoms: N_12  and  C_13
REMARK    5  A    between atoms: C_15  and  C_16
REMARK    6  A    between atoms: C_16  and  O_17
REMARK    7  A    between atoms: O_17  and  C_18
REMARK    8  A    between atoms: C_18  and  C_19
REMARK    9  A    between atoms: C_19  and  N_20
REMARK   10  A    between atoms: N_20  and  C_21
REMARK   11  A    between atoms: N_20  and  C_22
REMARK                            x       y       z     vdW  Elec       q    Type
REMARK                         _______ _______ _______ _____ _____    ______ ____
ROOT
ATOM      1  N   UNL     1       3.333   5.233  17.449  0.00  0.00    +0.000 NA
ATOM      2  C   UNL     1       2.346   4.147  17.165  0.00  0.00    +0.000 C 
ATOM      3  C   UNL     1       1.996   3.458  18.432  0.00  0.00    +0.000 A 
ATOM      4  N   UNL     1       1.672   2.144  18.564  0.00  0.00    +0.000 NA
ATOM      5  N   UNL     1       1.553   1.890  19.865  0.00  0.00    +0.000 NA
ATOM      6  N   UNL     1       1.813   3.031  20.538  0.00  0.00    +0.000 N 
ATOM      7  C   UNL     1       1.829   3.031  21.974  0.00  0.00    +0.000 C 
ATOM      8  C   UNL     1       2.089   4.047  19.675  0.00  0.00    +0.000 A 
ATOM      9  C   UNL     1       2.590   5.435  19.931  0.00  0.00    +0.000 C 
ATOM     10  C   UNL     1       2.809   6.113  18.532  0.00  0.00    +0.000 C 
ENDROOT
BRANCH   1  11
ATOM     11  C   UNL     1       4.669   4.690  17.789  0.00  0.00    +0.000 C 
BRANCH  11  16
ATOM     12  C   UNL     1       6.883   4.207  12.964  0.00  0.00    +0.000 C 
ATOM     13  C   UNL     1       6.650   4.524  14.398  0.00  0.00    +0.000 A 
ATOM     14  C   UNL     1       7.550   4.968  15.344  0.00  0.00    +0.000 A 
ATOM     15  C   UNL     1       6.946   5.133  16.624  0.00  0.00    +0.000 A 
ATOM     16  C   UNL     1       5.614   4.766  16.622  0.00  0.00    +0.000 A 
ATOM     17  S   UNL     1       5.083   4.330  15.056  0.00  0.00    +0.000 S 
ENDBRANCH  11  16
ENDBRANCH   1  11
BRANCH   9  18
ATOM     18  C   UNL     1       1.632   6.282  20.778  0.00  0.00    +0.000 C 
BRANCH  18  19
ATOM     19  O   UNL     1       1.753   7.669  20.424  0.00  0.00    +0.000 OA
BRANCH  19  20
ATOM     20  C   UNL     1       1.197   8.511  21.441  0.00  0.00    +0.000 C 
BRANCH  20  21
ATOM     21  C   UNL     1       0.825   9.890  20.862  0.00  0.00    +0.000 C 
BRANCH  21  22
ATOM     22  N   UNL     1       0.452   9.844  19.433  0.00  0.00    +0.000 NA
ATOM     23  C   UNL     1      -0.929  10.279  19.207  0.00  0.00    +0.000 C 
ATOM     24  C   UNL     1       1.360  10.675  18.638  0.00  0.00    +0.000 C 
ENDBRANCH  21  22
ENDBRANCH  20  21
ENDBRANCH  19  20
ENDBRANCH  18  19
ENDBRANCH   9  18
TORSDOF 7
ENDMDL
