MODEL 1
REMARK VINA RESULT:      -9.0      0.000      0.000
REMARK  Name = 
REMARK  5 active torsions:
REMARK  status: ('A' for Active; 'I' for Inactive)
REMARK    1  A    between atoms: C_1  and  C_2
REMARK    2  A    between atoms: C_5  and  N_6
REMARK    3  A    between atoms: C_9  and  C_10
REMARK    4  A    between atoms: C_13  and  S_14
REMARK    5  A    between atoms: S_14  and  N_17
REMARK                            x       y       z     vdW  Elec       q    Type
REMARK                         _______ _______ _______ _____ _____    ______ ____
ROOT
ATOM      1  C   UNL     1       1.842   7.731  19.908  0.00  0.00    +0.000 A 
ATOM      2  C   UNL     1       2.390   7.858  18.621  0.00  0.00    +0.000 A 
ATOM      3  C   UNL     1       3.080   6.780  18.040  0.00  0.00    +0.000 A 
ATOM      4  C   UNL     1       3.253   5.574  18.747  0.00  0.00    +0.000 A 
ATOM      5  C   UNL     1       2.729   5.468  20.039  0.00  0.00    +0.000 A 
ATOM      6  C   UNL     1       2.026   6.526  20.608  0.00  0.00    +0.000 A 
ENDROOT
BRANCH   1  10
ATOM      7  N   UNL     1      -1.390  11.381  19.768  0.00  0.00    +0.000 N 
ATOM      8  C   UNL     1      -0.439  10.518  20.379  0.00  0.00    +0.000 A 
ATOM      9  N   UNL     1       0.187   9.525  19.740  0.00  0.00    +0.000 NA
ATOM     10  C   UNL     1       1.011   8.796  20.532  0.00  0.00    +0.000 A 
ATOM     11  C   UNL     1       1.014   9.197  21.866  0.00  0.00    +0.000 A 
ATOM     12  S   UNL     1      -0.021  10.531  22.011  0.00  0.00    +0.000 S 
ATOM     13  H   UNL     1      -1.733  12.163  20.345  0.00  0.00    +0.000 HD
BRANCH   7  18
ATOM     14  C   UNL     1      -3.866  10.291  14.692  0.00  0.00    +0.000 C 
ATOM     15  C   UNL     1      -3.274  10.503  16.053  0.00  0.00    +0.000 A 
ATOM     16  C   UNL     1      -2.072   9.882  16.425  0.00  0.00    +0.000 A 
ATOM     17  C   UNL     1      -1.505  10.146  17.674  0.00  0.00    +0.000 A 
ATOM     18  C   UNL     1      -2.118  11.045  18.569  0.00  0.00    +0.000 A 
ATOM     19  C   UNL     1      -3.352  11.616  18.200  0.00  0.00    +0.000 A 
ATOM     20  C   UNL     1      -3.914  11.347  16.957  0.00  0.00    +0.000 A 
ENDBRANCH   7  18
ENDBRANCH   1  10
BRANCH   4  21
ATOM     21  S   UNL     1       4.071   4.131  18.007  0.00  0.00    +0.000 S 
ATOM     22  O   UNL     1       4.132   2.998  19.045  0.00  0.00    +0.000 OA
ATOM     23  O   UNL     1       3.127   3.463  16.996  0.00  0.00    +0.000 OA
BRANCH  21  24
ATOM     24  N   UNL     1       5.681   4.072  17.205  0.00  0.00    +0.000 NA
ATOM     25  C   UNL     1       6.702   4.891  17.874  0.00  0.00    +0.000 C 
ATOM     26  C   UNL     1       6.403   6.381  17.672  0.00  0.00    +0.000 C 
ATOM     27  O   UNL     1       6.380   6.707  16.290  0.00  0.00    +0.000 OA
ATOM     28  C   UNL     1       5.402   5.937  15.600  0.00  0.00    +0.000 C 
ATOM     29  C   UNL     1       5.636   4.428  15.783  0.00  0.00    +0.000 C 
ENDBRANCH  21  24
ENDBRANCH   4  21
TORSDOF 4
ENDMDL
MODEL 2
REMARK VINA RESULT:      -9.0      1.721      2.697
REMARK  Name = 
REMARK  5 active torsions:
REMARK  status: ('A' for Active; 'I' for Inactive)
REMARK    1  A    between atoms: C_1  and  C_2
REMARK    2  A    between atoms: C_5  and  N_6
REMARK    3  A    between atoms: C_9  and  C_10
REMARK    4  A    between atoms: C_13  and  S_14
REMARK    5  A    between atoms: S_14  and  N_17
REMARK                            x       y       z     vdW  Elec       q    Type
REMARK                         _______ _______ _______ _____ _____    ______ ____
ROOT
ATOM      1  C   UNL     1       1.645   8.254  19.809  0.00  0.00    +0.000 A 
ATOM      2  C   UNL     1       2.214   8.355  18.529  0.00  0.00    +0.000 A 
ATOM      3  C   UNL     1       3.017   7.314  18.032  0.00  0.00    +0.000 A 
ATOM      4  C   UNL     1       3.280   6.173  18.815  0.00  0.00    +0.000 A 
ATOM      5  C   UNL     1       2.732   6.094  20.099  0.00  0.00    +0.000 A 
ATOM      6  C   UNL     1       1.919   7.114  20.585  0.00  0.00    +0.000 A 
ENDROOT
BRANCH   1  10
ATOM      7  N   UNL     1      -1.868  11.608  19.366  0.00  0.00    +0.000 N 
ATOM      8  C   UNL     1      -0.877  10.856  20.056  0.00  0.00    +0.000 A 
ATOM      9  N   UNL     1      -0.144   9.892  19.490  0.00  0.00    +0.000 NA
ATOM     10  C   UNL     1       0.702   9.271  20.348  0.00  0.00    +0.000 A 
ATOM     11  C   UNL     1       0.613   9.729  21.661  0.00  0.00    +0.000 A 
ATOM     12  S   UNL     1      -0.534  10.976  21.700  0.00  0.00    +0.000 S 
ATOM     13  H   UNL     1      -2.299  12.383  19.891  0.00  0.00    +0.000 HD
BRANCH   7  18
ATOM     14  C   UNL     1      -4.024  10.098  14.252  0.00  0.00    +0.000 C 
ATOM     15  C   UNL     1      -3.510  10.416  15.624  0.00  0.00    +0.000 A 
ATOM     16  C   UNL     1      -2.271   9.928  16.064  0.00  0.00    +0.000 A 
ATOM     17  C   UNL     1      -1.781  10.291  17.321  0.00  0.00    +0.000 A 
ATOM     18  C   UNL     1      -2.512  11.160  18.156  0.00  0.00    +0.000 A 
ATOM     19  C   UNL     1      -3.779  11.595  17.720  0.00  0.00    +0.000 A 
ATOM     20  C   UNL     1      -4.262  11.228  16.469  0.00  0.00    +0.000 A 
ENDBRANCH   7  18
ENDBRANCH   1  10
BRANCH   4  21
ATOM     21  S   UNL     1       4.248   4.771  18.183  0.00  0.00    +0.000 S 
ATOM     22  O   UNL     1       4.879   5.161  16.837  0.00  0.00    +0.000 OA
ATOM     23  O   UNL     1       5.537   4.622  19.004  0.00  0.00    +0.000 OA
BRANCH  21  24
ATOM     24  N   UNL     1       3.693   3.078  17.929  0.00  0.00    +0.000 NA
ATOM     25  C   UNL     1       2.303   2.979  17.460  0.00  0.00    +0.000 C 
ATOM     26  C   UNL     1       1.336   3.368  18.583  0.00  0.00    +0.000 C 
ATOM     27  O   UNL     1       1.506   2.521  19.711  0.00  0.00    +0.000 OA
ATOM     28  C   UNL     1       2.841   2.587  20.201  0.00  0.00    +0.000 C 
ATOM     29  C   UNL     1       3.863   2.227  19.111  0.00  0.00    +0.000 C 
ENDBRANCH  21  24
ENDBRANCH   4  21
TORSDOF 4
ENDMDL
MODEL 3
REMARK VINA RESULT:      -8.7      0.513      1.046
REMARK  Name = 
REMARK  5 active torsions:
REMARK  status: ('A' for Active; 'I' for Inactive)
REMARK    1  A    between atoms: C_1  and  C_2
REMARK    2  A    between atoms: C_5  and  N_6
REMARK    3  A    between atoms: C_9  and  C_10
REMARK    4  A    between atoms: C_13  and  S_14
REMARK    5  A    between atoms: S_14  and  N_17
REMARK                            x       y       z     vdW  Elec       q    Type
REMARK                         _______ _______ _______ _____ _____    ______ ____
ROOT
ATOM      1  C   UNL     1       1.821   7.417  20.080  0.00  0.00    +0.000 A 
ATOM      2  C   UNL     1       1.926   6.176  20.730  0.00  0.00    +0.000 A 
ATOM      3  C   UNL     1       2.723   5.158  20.178  0.00  0.00    +0.000 A 
ATOM      4  C   UNL     1       3.402   5.358  18.962  0.00  0.00    +0.000 A 
ATOM      5  C   UNL     1       3.268   6.587  18.307  0.00  0.00    +0.000 A 
ATOM      6  C   UNL     1       2.498   7.604  18.862  0.00  0.00    +0.000 A 
ENDROOT
BRANCH   1  10
ATOM      7  N   UNL     1      -1.119  11.300  19.818  0.00  0.00    +0.000 N 
ATOM      8  C   UNL     1      -0.232  10.390  20.456  0.00  0.00    +0.000 A 
ATOM      9  N   UNL     1       0.309   9.327  19.853  0.00  0.00    +0.000 NA
ATOM     10  C   UNL     1       1.081   8.567  20.667  0.00  0.00    +0.000 A 
ATOM     11  C   UNL     1       1.130   9.019  21.984  0.00  0.00    +0.000 A 
ATOM     12  S   UNL     1       0.204  10.435  22.083  0.00  0.00    +0.000 S 
ATOM     13  H   UNL     1      -1.394  12.129  20.366  0.00  0.00    +0.000 HD
BRANCH   7  18
ATOM     14  C   UNL     1      -3.743  10.244  14.810  0.00  0.00    +0.000 C 
ATOM     15  C   UNL     1      -3.113  10.448  16.155  0.00  0.00    +0.000 A 
ATOM     16  C   UNL     1      -1.916   9.803  16.500  0.00  0.00    +0.000 A 
ATOM     17  C   UNL     1      -1.312  10.060  17.733  0.00  0.00    +0.000 A 
ATOM     18  C   UNL     1      -1.883  10.975  18.639  0.00  0.00    +0.000 A 
ATOM     19  C   UNL     1      -3.114  11.571  18.299  0.00  0.00    +0.000 A 
ATOM     20  C   UNL     1      -3.712  11.310  17.071  0.00  0.00    +0.000 A 
ENDBRANCH   7  18
ENDBRANCH   1  10
BRANCH   4  21
ATOM     21  S   UNL     1       4.502   4.098  18.252  0.00  0.00    +0.000 S 
ATOM     22  O   UNL     1       5.293   3.424  19.385  0.00  0.00    +0.000 OA
ATOM     23  O   UNL     1       3.675   2.886  17.800  0.00  0.00    +0.000 OA
BRANCH  21  24
ATOM     24  N   UNL     1       5.717   4.312  16.941  0.00  0.00    +0.000 NA
ATOM     25  C   UNL     1       7.006   4.836  17.414  0.00  0.00    +0.000 C 
ATOM     26  C   UNL     1       6.861   6.305  17.828  0.00  0.00    +0.000 C 
ATOM     27  O   UNL     1       6.411   7.095  16.737  0.00  0.00    +0.000 OA
ATOM     28  C   UNL     1       5.160   6.622  16.248  0.00  0.00    +0.000 C 
ATOM     29  C   UNL     1       5.236   5.143  15.833  0.00  0.00    +0.000 C 
ENDBRANCH  21  24
ENDBRANCH   4  21
TORSDOF 4
ENDMDL
MODEL 4
REMARK VINA RESULT:      -8.7      0.701      1.150
REMARK  Name = 
REMARK  5 active torsions:
REMARK  status: ('A' for Active; 'I' for Inactive)
REMARK    1  A    between atoms: C_1  and  C_2
REMARK    2  A    between atoms: C_5  and  N_6
REMARK    3  A    between atoms: C_9  and  C_10
REMARK    4  A    between atoms: C_13  and  S_14
REMARK    5  A    between atoms: S_14  and  N_17
REMARK                            x       y       z     vdW  Elec       q    Type
REMARK                         _______ _______ _______ _____ _____    ______ ____
ROOT
ATOM      1  C   UNL     1       2.018   7.708  19.799  0.00  0.00    +0.000 A 
ATOM      2  C   UNL     1       2.559   7.944  18.524  0.00  0.00    +0.000 A 
ATOM      3  C   UNL     1       3.390   6.982  17.922  0.00  0.00    +0.000 A 
ATOM      4  C   UNL     1       3.708   5.787  18.596  0.00  0.00    +0.000 A 
ATOM      5  C   UNL     1       3.188   5.574  19.876  0.00  0.00    +0.000 A 
ATOM      6  C   UNL     1       2.348   6.515  20.465  0.00  0.00    +0.000 A 
ENDROOT
BRANCH   1  10
ATOM      7  N   UNL     1      -1.402  11.183  19.710  0.00  0.00    +0.000 N 
ATOM      8  C   UNL     1      -0.479  10.292  20.324  0.00  0.00    +0.000 A 
ATOM      9  N   UNL     1       0.283   9.426  19.649  0.00  0.00    +0.000 NA
ATOM     10  C   UNL     1       1.050   8.637  20.441  0.00  0.00    +0.000 A 
ATOM     11  C   UNL     1       0.864   8.853  21.804  0.00  0.00    +0.000 A 
ATOM     12  S   UNL     1      -0.265  10.104  21.984  0.00  0.00    +0.000 S 
ATOM     13  H   UNL     1      -1.863  11.863  20.334  0.00  0.00    +0.000 HD
BRANCH   7  18
ATOM     14  C   UNL     1      -4.063  10.125  14.722  0.00  0.00    +0.000 C 
ATOM     15  C   UNL     1      -3.317  10.469  15.977  0.00  0.00    +0.000 A 
ATOM     16  C   UNL     1      -3.832  11.398  16.893  0.00  0.00    +0.000 A 
ATOM     17  C   UNL     1      -3.153  11.654  18.087  0.00  0.00    +0.000 A 
ATOM     18  C   UNL     1      -1.955  10.978  18.395  0.00  0.00    +0.000 A 
ATOM     19  C   UNL     1      -1.425  10.091  17.437  0.00  0.00    +0.000 A 
ATOM     20  C   UNL     1      -2.104   9.842  16.249  0.00  0.00    +0.000 A 
ENDBRANCH   7  18
ENDBRANCH   1  10
BRANCH   4  21
ATOM     21  S   UNL     1       4.713   4.484  17.825  0.00  0.00    +0.000 S 
ATOM     22  O   UNL     1       4.284   3.119  18.385  0.00  0.00    +0.000 OA
ATOM     23  O   UNL     1       4.271   4.283  16.369  0.00  0.00    +0.000 OA
BRANCH  21  24
ATOM     24  N   UNL     1       6.509   4.380  17.754  0.00  0.00    +0.000 NA
ATOM     25  C   UNL     1       7.189   5.509  18.406  0.00  0.00    +0.000 C 
ATOM     26  C   UNL     1       7.005   6.787  17.580  0.00  0.00    +0.000 C 
ATOM     27  O   UNL     1       7.530   6.621  16.270  0.00  0.00    +0.000 OA
ATOM     28  C   UNL     1       6.896   5.537  15.600  0.00  0.00    +0.000 C 
ATOM     29  C   UNL     1       7.030   4.226  16.392  0.00  0.00    +0.000 C 
ENDBRANCH  21  24
ENDBRANCH   4  21
TORSDOF 4
ENDMDL
MODEL 5
REMARK VINA RESULT:      -8.7      0.934      1.340
REMARK  Name = 
REMARK  5 active torsions:
REMARK  status: ('A' for Active; 'I' for Inactive)
REMARK    1  A    between atoms: C_1  and  C_2
REMARK    2  A    between atoms: C_5  and  N_6
REMARK    3  A    between atoms: C_9  and  C_10
REMARK    4  A    between atoms: C_13  and  S_14
REMARK    5  A    between atoms: S_14  and  N_17
REMARK                            x       y       z     vdW  Elec       q    Type
REMARK                         _______ _______ _______ _____ _____    ______ ____
ROOT
ATOM      1  C   UNL     1       1.842   7.511  20.002  0.00  0.00    +0.000 A 
ATOM      2  C   UNL     1       2.088   6.271  20.617  0.00  0.00    +0.000 A 
ATOM      3  C   UNL     1       2.947   5.341  20.007  0.00  0.00    +0.000 A 
ATOM      4  C   UNL     1       3.551   5.628  18.768  0.00  0.00    +0.000 A 
ATOM      5  C   UNL     1       3.279   6.853  18.150  0.00  0.00    +0.000 A 
ATOM      6  C   UNL     1       2.445   7.784  18.762  0.00  0.00    +0.000 A 
ENDROOT
BRANCH   1  10
ATOM      7  N   UNL     1      -1.185  11.334  19.926  0.00  0.00    +0.000 N 
ATOM      8  C   UNL     1      -0.319  10.382  20.531  0.00  0.00    +0.000 A 
ATOM      9  N   UNL     1       0.294   9.400  19.862  0.00  0.00    +0.000 NA
ATOM     10  C   UNL     1       1.029   8.577  20.649  0.00  0.00    +0.000 A 
ATOM     11  C   UNL     1       0.971   8.889  22.005  0.00  0.00    +0.000 A 
ATOM     12  S   UNL     1      -0.002  10.265  22.181  0.00  0.00    +0.000 S 
ATOM     13  H   UNL     1      -1.523  12.094  20.534  0.00  0.00    +0.000 HD
BRANCH   7  18
ATOM     14  C   UNL     1      -3.519  10.007  14.839  0.00  0.00    +0.000 C 
ATOM     15  C   UNL     1      -2.991  10.404  16.185  0.00  0.00    +0.000 A 
ATOM     16  C   UNL     1      -3.171   9.580  17.305  0.00  0.00    +0.000 A 
ATOM     17  C   UNL     1      -2.614   9.937  18.535  0.00  0.00    +0.000 A 
ATOM     18  C   UNL     1      -1.854  11.117  18.667  0.00  0.00    +0.000 A 
ATOM     19  C   UNL     1      -1.732  11.960  17.544  0.00  0.00    +0.000 A 
ATOM     20  C   UNL     1      -2.291  11.600  16.323  0.00  0.00    +0.000 A 
ENDBRANCH   7  18
ENDBRANCH   1  10
BRANCH   4  21
ATOM     21  S   UNL     1       4.728   4.488  17.981  0.00  0.00    +0.000 S 
ATOM     22  O   UNL     1       4.362   3.045  18.363  0.00  0.00    +0.000 OA
ATOM     23  O   UNL     1       4.439   4.406  16.475  0.00  0.00    +0.000 OA
BRANCH  21  24
ATOM     24  N   UNL     1       6.524   4.523  18.080  0.00  0.00    +0.000 NA
ATOM     25  C   UNL     1       7.058   5.769  18.650  0.00  0.00    +0.000 C 
ATOM     26  C   UNL     1       6.864   6.927  17.665  0.00  0.00    +0.000 C 
ATOM     27  O   UNL     1       7.523   6.659  16.436  0.00  0.00    +0.000 OA
ATOM     28  C   UNL     1       7.035   5.459  15.846  0.00  0.00    +0.000 C 
ATOM     29  C   UNL     1       7.183   4.260  16.797  0.00  0.00    +0.000 C 
ENDBRANCH  21  24
ENDBRANCH   4  21
TORSDOF 4
ENDMDL
MODEL 6
REMARK VINA RESULT:      -8.6      1.625      2.854
REMARK  Name = 
REMARK  5 active torsions:
REMARK  status: ('A' for Active; 'I' for Inactive)
REMARK    1  A    between atoms: C_1  and  C_2
REMARK    2  A    between atoms: C_5  and  N_6
REMARK    3  A    between atoms: C_9  and  C_10
REMARK    4  A    between atoms: C_13  and  S_14
REMARK    5  A    between atoms: S_14  and  N_17
REMARK                            x       y       z     vdW  Elec       q    Type
REMARK                         _______ _______ _______ _____ _____    ______ ____
ROOT
ATOM      1  C   UNL     1       1.828   7.792  20.041  0.00  0.00    +0.000 A 
ATOM      2  C   UNL     1       2.387   7.934  18.759  0.00  0.00    +0.000 A 
ATOM      3  C   UNL     1       3.178   6.907  18.219  0.00  0.00    +0.000 A 
ATOM      4  C   UNL     1       3.441   5.738  18.959  0.00  0.00    +0.000 A 
ATOM      5  C   UNL     1       2.904   5.618  20.245  0.00  0.00    +0.000 A 
ATOM      6  C   UNL     1       2.102   6.625  20.774  0.00  0.00    +0.000 A 
ENDROOT
BRANCH   1  10
ATOM      7  N   UNL     1      -1.451  11.390  19.732  0.00  0.00    +0.000 N 
ATOM      8  C   UNL     1      -0.566  10.501  20.401  0.00  0.00    +0.000 A 
ATOM      9  N   UNL     1       0.163   9.566  19.782  0.00  0.00    +0.000 NA
ATOM     10  C   UNL     1       0.896   8.796  20.622  0.00  0.00    +0.000 A 
ATOM     11  C   UNL     1       0.717   9.100  21.970  0.00  0.00    +0.000 A 
ATOM     12  S   UNL     1      -0.362  10.403  22.070  0.00  0.00    +0.000 S 
ATOM     13  H   UNL     1      -1.886  12.123  20.312  0.00  0.00    +0.000 HD
BRANCH   7  18
ATOM     14  C   UNL     1      -4.113  10.086  14.803  0.00  0.00    +0.000 C 
ATOM     15  C   UNL     1      -3.372  10.497  16.040  0.00  0.00    +0.000 A 
ATOM     16  C   UNL     1      -3.931  11.405  16.951  0.00  0.00    +0.000 A 
ATOM     17  C   UNL     1      -3.252  11.723  18.129  0.00  0.00    +0.000 A 
ATOM     18  C   UNL     1      -2.009  11.129  18.428  0.00  0.00    +0.000 A 
ATOM     19  C   UNL     1      -1.438  10.262  17.476  0.00  0.00    +0.000 A 
ATOM     20  C   UNL     1      -2.118   9.951  16.303  0.00  0.00    +0.000 A 
ENDBRANCH   7  18
ENDBRANCH   1  10
BRANCH   4  21
ATOM     21  S   UNL     1       4.394   4.353  18.270  0.00  0.00    +0.000 S 
ATOM     22  O   UNL     1       5.008   4.783  16.928  0.00  0.00    +0.000 OA
ATOM     23  O   UNL     1       5.694   4.174  19.069  0.00  0.00    +0.000 OA
BRANCH  21  24
ATOM     24  N   UNL     1       3.829   2.671  17.972  0.00  0.00    +0.000 NA
ATOM     25  C   UNL     1       2.504   2.599  17.340  0.00  0.00    +0.000 C 
ATOM     26  C   UNL     1       1.419   3.028  18.334  0.00  0.00    +0.000 C 
ATOM     27  O   UNL     1       1.431   2.195  19.485  0.00  0.00    +0.000 OA
ATOM     28  C   UNL     1       2.698   2.235  20.131  0.00  0.00    +0.000 C 
ATOM     29  C   UNL     1       3.834   1.833  19.176  0.00  0.00    +0.000 C 
ENDBRANCH  21  24
ENDBRANCH   4  21
TORSDOF 4
ENDMDL
MODEL 7
REMARK VINA RESULT:      -8.5      3.785      5.370
REMARK  Name = 
REMARK  5 active torsions:
REMARK  status: ('A' for Active; 'I' for Inactive)
REMARK    1  A    between atoms: C_1  and  C_2
REMARK    2  A    between atoms: C_5  and  N_6
REMARK    3  A    between atoms: C_9  and  C_10
REMARK    4  A    between atoms: C_13  and  S_14
REMARK    5  A    between atoms: S_14  and  N_17
REMARK                            x       y       z     vdW  Elec       q    Type
REMARK                         _______ _______ _______ _____ _____    ______ ____
ROOT
ATOM      1  C   UNL     1       1.481   8.970  19.003  0.00  0.00    +0.000 A 
ATOM      2  C   UNL     1       1.581   8.032  20.044  0.00  0.00    +0.000 A 
ATOM      3  C   UNL     1       2.412   6.907  19.900  0.00  0.00    +0.000 A 
ATOM      4  C   UNL     1       3.132   6.695  18.709  0.00  0.00    +0.000 A 
ATOM      5  C   UNL     1       3.004   7.619  17.668  0.00  0.00    +0.000 A 
ATOM      6  C   UNL     1       2.199   8.745  17.816  0.00  0.00    +0.000 A 
ENDROOT
BRANCH   1  10
ATOM      7  N   UNL     1       1.050  13.757  19.833  0.00  0.00    +0.000 N 
ATOM      8  C   UNL     1       0.575  12.437  19.596  0.00  0.00    +0.000 A 
ATOM      9  N   UNL     1       1.371  11.382  19.397  0.00  0.00    +0.000 NA
ATOM     10  C   UNL     1       0.704  10.232  19.136  0.00  0.00    +0.000 A 
ATOM     11  C   UNL     1      -0.681  10.381  19.086  0.00  0.00    +0.000 A 
ATOM     12  S   UNL     1      -1.043  12.001  19.426  0.00  0.00    +0.000 S 
ATOM     13  H   UNL     1       0.335  14.464  20.061  0.00  0.00    +0.000 HD
BRANCH   7  18
ATOM     14  C   UNL     1       6.191  16.045  18.644  0.00  0.00    +0.000 C 
ATOM     15  C   UNL     1       4.888  15.361  18.934  0.00  0.00    +0.000 A 
ATOM     16  C   UNL     1       4.548  14.975  20.238  0.00  0.00    +0.000 A 
ATOM     17  C   UNL     1       3.302  14.399  20.496  0.00  0.00    +0.000 A 
ATOM     18  C   UNL     1       2.366  14.211  19.459  0.00  0.00    +0.000 A 
ATOM     19  C   UNL     1       2.748  14.554  18.146  0.00  0.00    +0.000 A 
ATOM     20  C   UNL     1       3.991  15.124  17.896  0.00  0.00    +0.000 A 
ENDBRANCH   7  18
ENDBRANCH   1  10
BRANCH   4  21
ATOM     21  S   UNL     1       4.276   5.297  18.509  0.00  0.00    +0.000 S 
ATOM     22  O   UNL     1       5.264   5.612  17.375  0.00  0.00    +0.000 OA
ATOM     23  O   UNL     1       5.272   5.273  19.679  0.00  0.00    +0.000 OA
BRANCH  21  24
ATOM     24  N   UNL     1       3.859   3.565  18.255  0.00  0.00    +0.000 NA
ATOM     25  C   UNL     1       2.684   3.363  17.395  0.00  0.00    +0.000 C 
ATOM     26  C   UNL     1       1.410   3.795  18.129  0.00  0.00    +0.000 C 
ATOM     27  O   UNL     1       1.241   3.052  19.328  0.00  0.00    +0.000 OA
ATOM     28  C   UNL     1       2.359   3.220  20.193  0.00  0.00    +0.000 C 
ATOM     29  C   UNL     1       3.674   2.821  19.505  0.00  0.00    +0.000 C 
ENDBRANCH  21  24
ENDBRANCH   4  21
TORSDOF 4
ENDMDL
MODEL 8
REMARK VINA RESULT:      -8.3      4.082      8.755
REMARK  Name = 
REMARK  5 active torsions:
REMARK  status: ('A' for Active; 'I' for Inactive)
REMARK    1  A    between atoms: C_1  and  C_2
REMARK    2  A    between atoms: C_5  and  N_6
REMARK    3  A    between atoms: C_9  and  C_10
REMARK    4  A    between atoms: C_13  and  S_14
REMARK    5  A    between atoms: S_14  and  N_17
REMARK                            x       y       z     vdW  Elec       q    Type
REMARK                         _______ _______ _______ _____ _____    ______ ____
ROOT
ATOM      1  C   UNL     1       2.240   7.116  19.488  0.00  0.00    +0.000 A 
ATOM      2  C   UNL     1       1.625   7.725  20.595  0.00  0.00    +0.000 A 
ATOM      3  C   UNL     1       1.032   8.992  20.462  0.00  0.00    +0.000 A 
ATOM      4  C   UNL     1       1.065   9.674  19.230  0.00  0.00    +0.000 A 
ATOM      5  C   UNL     1       1.704   9.072  18.142  0.00  0.00    +0.000 A 
ATOM      6  C   UNL     1       2.273   7.809  18.265  0.00  0.00    +0.000 A 
ENDROOT
BRANCH   1  10
ATOM      7  N   UNL     1       4.542   3.268  17.570  0.00  0.00    +0.000 N 
ATOM      8  C   UNL     1       3.805   3.972  18.562  0.00  0.00    +0.000 A 
ATOM      9  N   UNL     1       3.438   5.252  18.450  0.00  0.00    +0.000 NA
ATOM     10  C   UNL     1       2.790   5.734  19.539  0.00  0.00    +0.000 A 
ATOM     11  C   UNL     1       2.668   4.814  20.578  0.00  0.00    +0.000 A 
ATOM     12  S   UNL     1       3.363   3.356  20.066  0.00  0.00    +0.000 S 
ATOM     13  H   UNL     1       4.684   2.261  17.736  0.00  0.00    +0.000 HD
BRANCH   7  18
ATOM     14  C   UNL     1       7.827   5.333  13.324  0.00  0.00    +0.000 C 
ATOM     15  C   UNL     1       6.937   4.885  14.444  0.00  0.00    +0.000 A 
ATOM     16  C   UNL     1       5.651   4.383  14.192  0.00  0.00    +0.000 A 
ATOM     17  C   UNL     1       4.865   3.910  15.245  0.00  0.00    +0.000 A 
ATOM     18  C   UNL     1       5.351   3.916  16.567  0.00  0.00    +0.000 A 
ATOM     19  C   UNL     1       6.622   4.475  16.808  0.00  0.00    +0.000 A 
ATOM     20  C   UNL     1       7.399   4.947  15.756  0.00  0.00    +0.000 A 
ENDBRANCH   7  18
ENDBRANCH   1  10
BRANCH   4  21
ATOM     21  S   UNL     1       0.244  11.278  18.994  0.00  0.00    +0.000 S 
ATOM     22  O   UNL     1      -0.968  11.092  18.067  0.00  0.00    +0.000 OA
ATOM     23  O   UNL     1      -0.507  11.668  20.275  0.00  0.00    +0.000 OA
BRANCH  21  24
ATOM     24  N   UNL     1       0.986  12.820  18.435  0.00  0.00    +0.000 NA
ATOM     25  C   UNL     1       2.361  13.019  18.917  0.00  0.00    +0.000 C 
ATOM     26  C   UNL     1       2.359  13.302  20.423  0.00  0.00    +0.000 C 
ATOM     27  O   UNL     1       1.591  14.461  20.717  0.00  0.00    +0.000 OA
ATOM     28  C   UNL     1       0.249  14.311  20.269  0.00  0.00    +0.000 C 
ATOM     29  C   UNL     1       0.185  14.003  18.763  0.00  0.00    +0.000 C 
ENDBRANCH  21  24
ENDBRANCH   4  21
TORSDOF 4
ENDMDL
MODEL 9
REMARK VINA RESULT:      -8.3      3.642      5.294
REMARK  Name = 
REMARK  5 active torsions:
REMARK  status: ('A' for Active; 'I' for Inactive)
REMARK    1  A    between atoms: C_1  and  C_2
REMARK    2  A    between atoms: C_5  and  N_6
REMARK    3  A    between atoms: C_9  and  C_10
REMARK    4  A    between atoms: C_13  and  S_14
REMARK    5  A    between atoms: S_14  and  N_17
REMARK                            x       y       z     vdW  Elec       q    Type
REMARK                         _______ _______ _______ _____ _____    ______ ____
ROOT
ATOM      1  C   UNL     1       1.446   8.956  19.245  0.00  0.00    +0.000 A 
ATOM      2  C   UNL     1       2.027   8.662  18.000  0.00  0.00    +0.000 A 
ATOM      3  C   UNL     1       2.711   7.449  17.811  0.00  0.00    +0.000 A 
ATOM      4  C   UNL     1       2.844   6.529  18.868  0.00  0.00    +0.000 A 
ATOM      5  C   UNL     1       2.288   6.843  20.112  0.00  0.00    +0.000 A 
ATOM      6  C   UNL     1       1.591   8.033  20.295  0.00  0.00    +0.000 A 
ENDROOT
BRANCH   1  10
ATOM      7  N   UNL     1       0.841  13.681  20.295  0.00  0.00    +0.000 N 
ATOM      8  C   UNL     1       0.415  12.349  20.032  0.00  0.00    +0.000 A 
ATOM      9  N   UNL     1       1.247  11.343  19.744  0.00  0.00    +0.000 NA
ATOM     10  C   UNL     1       0.620  10.172  19.475  0.00  0.00    +0.000 A 
ATOM     11  C   UNL     1      -0.770  10.254  19.512  0.00  0.00    +0.000 A 
ATOM     12  S   UNL     1      -1.187  11.840  19.939  0.00  0.00    +0.000 S 
ATOM     13  H   UNL     1       0.109  14.343  20.593  0.00  0.00    +0.000 HD
BRANCH   7  18
ATOM     14  C   UNL     1       5.955  15.334  18.248  0.00  0.00    +0.000 C 
ATOM     15  C   UNL     1       4.604  14.996  18.803  0.00  0.00    +0.000 A 
ATOM     16  C   UNL     1       3.478  14.915  17.970  0.00  0.00    +0.000 A 
ATOM     17  C   UNL     1       2.242  14.534  18.498  0.00  0.00    +0.000 A 
ATOM     18  C   UNL     1       2.109  14.213  19.864  0.00  0.00    +0.000 A 
ATOM     19  C   UNL     1       3.239  14.354  20.695  0.00  0.00    +0.000 A 
ATOM     20  C   UNL     1       4.466  14.737  20.164  0.00  0.00    +0.000 A 
ENDBRANCH   7  18
ENDBRANCH   1  10
BRANCH   4  21
ATOM     21  S   UNL     1       3.653   4.917  18.647  0.00  0.00    +0.000 S 
ATOM     22  O   UNL     1       4.323   4.874  17.264  0.00  0.00    +0.000 OA
ATOM     23  O   UNL     1       4.918   4.850  19.515  0.00  0.00    +0.000 OA
BRANCH  21  24
ATOM     24  N   UNL     1       2.916   3.284  18.824  0.00  0.00    +0.000 NA
ATOM     25  C   UNL     1       1.451   3.285  18.709  0.00  0.00    +0.000 C 
ATOM     26  C   UNL     1       0.823   3.950  19.939  0.00  0.00    +0.000 C 
ATOM     27  O   UNL     1       1.195   3.266  21.127  0.00  0.00    +0.000 OA
ATOM     28  C   UNL     1       2.610   3.242  21.280  0.00  0.00    +0.000 C 
ATOM     29  C   UNL     1       3.301   2.603  20.064  0.00  0.00    +0.000 C 
ENDBRANCH  21  24
ENDBRANCH   4  21
TORSDOF 4
ENDMDL
