MODEL 1
REMARK VINA RESULT:      -6.6      0.000      0.000
REMARK  Name = 
REMARK  11 active torsions:
REMARK  status: ('A' for Active; 'I' for Inactive)
REMARK    1  A    between atoms: C_1  and  C_2
REMARK    2  A    between atoms: C_2  and  C_3
REMARK    3  A    between atoms: C_2  and  C_4
REMARK    4  A    between atoms: C_2  and  O_5
REMARK    5  A    between atoms: O_5  and  C_6
REMARK    6  A    between atoms: N_8  and  C_9
REMARK    7  A    between atoms: C_9  and  C_10
REMARK    8  A    between atoms: C_15  and  C_16
REMARK    9  A    between atoms: C_16  and  C_17
REMARK   10  A    between atoms: C_17  and  C_18
REMARK   11  A    between atoms: C_18  and  O_20
REMARK                            x       y       z     vdW  Elec       q    Type
REMARK                         _______ _______ _______ _____ _____    ______ ____
ROOT
ATOM      1  C   UNL     1       5.094   5.492  16.416  0.00  0.00    +0.000 A 
ATOM      2  C   UNL     1       4.735   4.510  15.469  0.00  0.00    +0.000 A 
ATOM      3  C   UNL     1       5.645   4.053  14.522  0.00  0.00    +0.000 A 
ATOM      4  C   UNL     1       6.935   4.562  14.514  0.00  0.00    +0.000 A 
ATOM      5  C   UNL     1       7.303   5.551  15.428  0.00  0.00    +0.000 A 
ATOM      6  C   UNL     1       6.395   6.046  16.386  0.00  0.00    +0.000 A 
ENDROOT
BRANCH   1   7
ATOM      7  C   UNL     1       4.049   5.841  17.440  0.00  0.00    +0.000 C 
BRANCH   7  10
ATOM      8  C   UNL     1       3.287   5.034  19.597  0.00  0.00    +0.000 C 
ATOM      9  O   UNL     1       2.897   6.150  19.912  0.00  0.00    +0.000 OA
ATOM     10  N   UNL     1       3.887   4.773  18.403  0.00  0.00    +0.000 N 
ATOM     11  H   UNL     1       4.052   3.812  18.149  0.00  0.00    +0.000 HD
BRANCH   8  12
ATOM     12  O   UNL     1       3.204   3.914  20.358  0.00  0.00    +0.000 OA
BRANCH  12  14
ATOM     13  C   UNL     1       2.023   2.016  19.331  0.00  0.00    +0.000 C 
ATOM     14  C   UNL     1       1.954   3.165  20.346  0.00  0.00    +0.000 C 
ATOM     15  C   UNL     1       0.753   4.090  20.100  0.00  0.00    +0.000 C 
ATOM     16  C   UNL     1       1.789   2.542  21.744  0.00  0.00    +0.000 C 
ENDBRANCH  12  14
ENDBRANCH   8  12
ENDBRANCH   7  10
ENDBRANCH   1   7
BRANCH   6  17
ATOM     17  C   UNL     1       6.862   7.194  17.268  0.00  0.00    +0.000 C 
BRANCH  17  18
ATOM     18  C   UNL     1       7.882   6.812  18.337  0.00  0.00    +0.000 C 
BRANCH  18  19
ATOM     19  C   UNL     1       7.540   5.515  19.029  0.00  0.00    +0.000 C 
ATOM     20  O   UNL     1       6.689   5.369  19.891  0.00  0.00    +0.000 OA
BRANCH  19  21
ATOM     21  O   UNL     1       8.301   4.488  18.580  0.00  0.00    +0.000 OA
ATOM     22  H   UNL     1       8.261   3.693  19.146  0.00  0.00    +0.000 HD
ENDBRANCH  19  21
ENDBRANCH  18  19
ENDBRANCH  17  18
ENDBRANCH   6  17
TORSDOF 8
ENDMDL
MODEL 2
REMARK VINA RESULT:      -6.5      2.132      3.659
REMARK  Name = 
REMARK  11 active torsions:
REMARK  status: ('A' for Active; 'I' for Inactive)
REMARK    1  A    between atoms: C_1  and  C_2
REMARK    2  A    between atoms: C_2  and  C_3
REMARK    3  A    between atoms: C_2  and  C_4
REMARK    4  A    between atoms: C_2  and  O_5
REMARK    5  A    between atoms: O_5  and  C_6
REMARK    6  A    between atoms: N_8  and  C_9
REMARK    7  A    between atoms: C_9  and  C_10
REMARK    8  A    between atoms: C_15  and  C_16
REMARK    9  A    between atoms: C_16  and  C_17
REMARK   10  A    between atoms: C_17  and  C_18
REMARK   11  A    between atoms: C_18  and  O_20
REMARK                            x       y       z     vdW  Elec       q    Type
REMARK                         _______ _______ _______ _____ _____    ______ ____
ROOT
ATOM      1  C   UNL     1       6.791   5.329  18.132  0.00  0.00    +0.000 A 
ATOM      2  C   UNL     1       7.765   5.950  18.943  0.00  0.00    +0.000 A 
ATOM      3  C   UNL     1       8.184   7.253  18.699  0.00  0.00    +0.000 A 
ATOM      4  C   UNL     1       7.627   7.963  17.645  0.00  0.00    +0.000 A 
ATOM      5  C   UNL     1       6.678   7.358  16.818  0.00  0.00    +0.000 A 
ATOM      6  C   UNL     1       6.250   6.032  17.031  0.00  0.00    +0.000 A 
ENDROOT
BRANCH   1   7
ATOM      7  C   UNL     1       6.361   3.950  18.550  0.00  0.00    +0.000 C 
BRANCH   7  10
ATOM      8  C   UNL     1       4.097   3.207  19.003  0.00  0.00    +0.000 C 
ATOM      9  O   UNL     1       4.112   2.465  18.031  0.00  0.00    +0.000 OA
ATOM     10  N   UNL     1       5.151   4.000  19.342  0.00  0.00    +0.000 N 
ATOM     11  H   UNL     1       5.128   4.474  20.229  0.00  0.00    +0.000 HD
BRANCH   8  12
ATOM     12  O   UNL     1       3.063   3.373  19.867  0.00  0.00    +0.000 OA
BRANCH  12  14
ATOM     13  C   UNL     1       0.925   2.614  18.916  0.00  0.00    +0.000 C 
ATOM     14  C   UNL     1       1.784   3.817  19.329  0.00  0.00    +0.000 C 
ATOM     15  C   UNL     1       1.979   4.817  18.179  0.00  0.00    +0.000 C 
ATOM     16  C   UNL     1       1.046   4.547  20.466  0.00  0.00    +0.000 C 
ENDBRANCH  12  14
ENDBRANCH   8  12
ENDBRANCH   7  10
ENDBRANCH   1   7
BRANCH   6  17
ATOM     17  C   UNL     1       5.292   5.432  16.014  0.00  0.00    +0.000 C 
BRANCH  17  18
ATOM     18  C   UNL     1       5.754   4.117  15.391  0.00  0.00    +0.000 C 
BRANCH  18  19
ATOM     19  C   UNL     1       6.538   4.320  14.119  0.00  0.00    +0.000 C 
ATOM     20  O   UNL     1       7.312   5.236  13.897  0.00  0.00    +0.000 OA
BRANCH  19  21
ATOM     21  O   UNL     1       6.289   3.345  13.210  0.00  0.00    +0.000 OA
ATOM     22  H   UNL     1       6.509   3.598  12.293  0.00  0.00    +0.000 HD
ENDBRANCH  19  21
ENDBRANCH  18  19
ENDBRANCH  17  18
ENDBRANCH   6  17
TORSDOF 8
ENDMDL
MODEL 3
REMARK VINA RESULT:      -6.5      1.882      3.626
REMARK  Name = 
REMARK  11 active torsions:
REMARK  status: ('A' for Active; 'I' for Inactive)
REMARK    1  A    between atoms: C_1  and  C_2
REMARK    2  A    between atoms: C_2  and  C_3
REMARK    3  A    between atoms: C_2  and  C_4
REMARK    4  A    between atoms: C_2  and  O_5
REMARK    5  A    between atoms: O_5  and  C_6
REMARK    6  A    between atoms: N_8  and  C_9
REMARK    7  A    between atoms: C_9  and  C_10
REMARK    8  A    between atoms: C_15  and  C_16
REMARK    9  A    between atoms: C_16  and  C_17
REMARK   10  A    between atoms: C_17  and  C_18
REMARK   11  A    between atoms: C_18  and  O_20
REMARK                            x       y       z     vdW  Elec       q    Type
REMARK                         _______ _______ _______ _____ _____    ______ ____
ROOT
ATOM      1  C   UNL     1       6.729   5.665  18.345  0.00  0.00    +0.000 A 
ATOM      2  C   UNL     1       7.843   6.223  19.006  0.00  0.00    +0.000 A 
ATOM      3  C   UNL     1       8.341   7.473  18.654  0.00  0.00    +0.000 A 
ATOM      4  C   UNL     1       7.723   8.192  17.642  0.00  0.00    +0.000 A 
ATOM      5  C   UNL     1       6.632   7.648  16.961  0.00  0.00    +0.000 A 
ATOM      6  C   UNL     1       6.120   6.375  17.284  0.00  0.00    +0.000 A 
ENDROOT
BRANCH   1   7
ATOM      7  C   UNL     1       6.235   4.346  18.874  0.00  0.00    +0.000 C 
BRANCH   7  10
ATOM      8  C   UNL     1       4.185   3.287  19.623  0.00  0.00    +0.000 C 
ATOM      9  O   UNL     1       4.789   2.271  19.940  0.00  0.00    +0.000 OA
ATOM     10  N   UNL     1       4.801   4.368  19.071  0.00  0.00    +0.000 N 
ATOM     11  H   UNL     1       4.274   5.219  18.969  0.00  0.00    +0.000 HD
BRANCH   8  12
ATOM     12  O   UNL     1       2.850   3.495  19.748  0.00  0.00    +0.000 OA
BRANCH  12  14
ATOM     13  C   UNL     1       0.642   2.599  19.137  0.00  0.00    +0.000 C 
ATOM     14  C   UNL     1       1.990   3.129  18.630  0.00  0.00    +0.000 C 
ATOM     15  C   UNL     1       2.691   2.136  17.690  0.00  0.00    +0.000 C 
ATOM     16  C   UNL     1       1.715   4.416  17.833  0.00  0.00    +0.000 C 
ENDBRANCH  12  14
ENDBRANCH   8  12
ENDBRANCH   7  10
ENDBRANCH   1   7
BRANCH   6  17
ATOM     17  C   UNL     1       4.998   5.828  16.416  0.00  0.00    +0.000 C 
BRANCH  17  18
ATOM     18  C   UNL     1       5.365   5.608  14.951  0.00  0.00    +0.000 C 
BRANCH  18  19
ATOM     19  C   UNL     1       6.615   4.780  14.784  0.00  0.00    +0.000 C 
ATOM     20  O   UNL     1       7.738   5.215  14.590  0.00  0.00    +0.000 OA
BRANCH  19  21
ATOM     21  O   UNL     1       6.358   3.452  14.873  0.00  0.00    +0.000 OA
ATOM     22  H   UNL     1       6.770   2.923  14.163  0.00  0.00    +0.000 HD
ENDBRANCH  19  21
ENDBRANCH  18  19
ENDBRANCH  17  18
ENDBRANCH   6  17
TORSDOF 8
ENDMDL
MODEL 4
REMARK VINA RESULT:      -6.5      1.149      1.502
REMARK  Name = 
REMARK  11 active torsions:
REMARK  status: ('A' for Active; 'I' for Inactive)
REMARK    1  A    between atoms: C_1  and  C_2
REMARK    2  A    between atoms: C_2  and  C_3
REMARK    3  A    between atoms: C_2  and  C_4
REMARK    4  A    between atoms: C_2  and  O_5
REMARK    5  A    between atoms: O_5  and  C_6
REMARK    6  A    between atoms: N_8  and  C_9
REMARK    7  A    between atoms: C_9  and  C_10
REMARK    8  A    between atoms: C_15  and  C_16
REMARK    9  A    between atoms: C_16  and  C_17
REMARK   10  A    between atoms: C_17  and  C_18
REMARK   11  A    between atoms: C_18  and  O_20
REMARK                            x       y       z     vdW  Elec       q    Type
REMARK                         _______ _______ _______ _____ _____    ______ ____
ROOT
ATOM      1  C   UNL     1       5.187   5.909  16.439  0.00  0.00    +0.000 A 
ATOM      2  C   UNL     1       4.747   5.117  15.359  0.00  0.00    +0.000 A 
ATOM      3  C   UNL     1       5.646   4.414  14.565  0.00  0.00    +0.000 A 
ATOM      4  C   UNL     1       7.002   4.482  14.846  0.00  0.00    +0.000 A 
ATOM      5  C   UNL     1       7.460   5.278  15.898  0.00  0.00    +0.000 A 
ATOM      6  C   UNL     1       6.571   6.017  16.706  0.00  0.00    +0.000 A 
ENDROOT
BRANCH   1   7
ATOM      7  C   UNL     1       4.112   6.551  17.273  0.00  0.00    +0.000 C 
BRANCH   7  10
ATOM      8  C   UNL     1       2.649   5.101  18.554  0.00  0.00    +0.000 C 
ATOM      9  O   UNL     1       1.785   5.157  17.691  0.00  0.00    +0.000 OA
ATOM     10  N   UNL     1       3.833   5.766  18.457  0.00  0.00    +0.000 N 
ATOM     11  H   UNL     1       4.554   5.562  19.129  0.00  0.00    +0.000 HD
BRANCH   8  12
ATOM     12  O   UNL     1       2.573   4.406  19.717  0.00  0.00    +0.000 OA
BRANCH  12  14
ATOM     13  C   UNL     1       3.530   2.514  20.965  0.00  0.00    +0.000 C 
ATOM     14  C   UNL     1       2.828   2.972  19.679  0.00  0.00    +0.000 C 
ATOM     15  C   UNL     1       3.610   2.578  18.416  0.00  0.00    +0.000 C 
ATOM     16  C   UNL     1       1.459   2.271  19.621  0.00  0.00    +0.000 C 
ENDBRANCH  12  14
ENDBRANCH   8  12
ENDBRANCH   7  10
ENDBRANCH   1   7
BRANCH   6  17
ATOM     17  C   UNL     1       7.176   6.933  17.758  0.00  0.00    +0.000 C 
BRANCH  17  18
ATOM     18  C   UNL     1       8.135   6.253  18.732  0.00  0.00    +0.000 C 
BRANCH  18  19
ATOM     19  C   UNL     1       7.416   5.521  19.838  0.00  0.00    +0.000 C 
ATOM     20  O   UNL     1       6.273   5.098  19.789  0.00  0.00    +0.000 OA
BRANCH  19  21
ATOM     21  O   UNL     1       8.197   5.373  20.936  0.00  0.00    +0.000 OA
ATOM     22  H   UNL     1       7.885   5.879  21.711  0.00  0.00    +0.000 HD
ENDBRANCH  19  21
ENDBRANCH  18  19
ENDBRANCH  17  18
ENDBRANCH   6  17
TORSDOF 8
ENDMDL
MODEL 5
REMARK VINA RESULT:      -6.5      2.604      6.236
REMARK  Name = 
REMARK  11 active torsions:
REMARK  status: ('A' for Active; 'I' for Inactive)
REMARK    1  A    between atoms: C_1  and  C_2
REMARK    2  A    between atoms: C_2  and  C_3
REMARK    3  A    between atoms: C_2  and  C_4
REMARK    4  A    between atoms: C_2  and  O_5
REMARK    5  A    between atoms: O_5  and  C_6
REMARK    6  A    between atoms: N_8  and  C_9
REMARK    7  A    between atoms: C_9  and  C_10
REMARK    8  A    between atoms: C_15  and  C_16
REMARK    9  A    between atoms: C_16  and  C_17
REMARK   10  A    between atoms: C_17  and  C_18
REMARK   11  A    between atoms: C_18  and  O_20
REMARK                            x       y       z     vdW  Elec       q    Type
REMARK                         _______ _______ _______ _____ _____    ______ ____
ROOT
ATOM      1  C   UNL     1       5.861   5.957  17.044  0.00  0.00    +0.000 A 
ATOM      2  C   UNL     1       7.140   6.469  17.344  0.00  0.00    +0.000 A 
ATOM      3  C   UNL     1       7.723   6.274  18.591  0.00  0.00    +0.000 A 
ATOM      4  C   UNL     1       7.040   5.551  19.558  0.00  0.00    +0.000 A 
ATOM      5  C   UNL     1       5.763   5.055  19.288  0.00  0.00    +0.000 A 
ATOM      6  C   UNL     1       5.141   5.255  18.039  0.00  0.00    +0.000 A 
ENDROOT
BRANCH   1   7
ATOM      7  C   UNL     1       5.377   6.161  15.635  0.00  0.00    +0.000 C 
BRANCH   7  10
ATOM      8  C   UNL     1       6.591   4.588  14.245  0.00  0.00    +0.000 C 
ATOM      9  O   UNL     1       7.587   5.297  14.256  0.00  0.00    +0.000 OA
ATOM     10  N   UNL     1       5.436   4.928  14.880  0.00  0.00    +0.000 N 
ATOM     11  H   UNL     1       4.707   4.237  14.952  0.00  0.00    +0.000 HD
BRANCH   8  12
ATOM     12  O   UNL     1       6.467   3.396  13.608  0.00  0.00    +0.000 OA
BRANCH  12  14
ATOM     13  C   UNL     1       7.106   4.491  11.500  0.00  0.00    +0.000 C 
ATOM     14  C   UNL     1       6.250   3.406  12.167  0.00  0.00    +0.000 C 
ATOM     15  C   UNL     1       4.758   3.549  11.829  0.00  0.00    +0.000 C 
ATOM     16  C   UNL     1       6.724   2.043  11.631  0.00  0.00    +0.000 C 
ENDBRANCH  12  14
ENDBRANCH   8  12
ENDBRANCH   7  10
ENDBRANCH   1   7
BRANCH   6  17
ATOM     17  C   UNL     1       3.710   4.764  17.880  0.00  0.00    +0.000 C 
BRANCH  17  18
ATOM     18  C   UNL     1       3.573   3.311  17.435  0.00  0.00    +0.000 C 
BRANCH  18  19
ATOM     19  C   UNL     1       3.431   2.358  18.596  0.00  0.00    +0.000 C 
ATOM     20  O   UNL     1       3.006   2.642  19.703  0.00  0.00    +0.000 OA
BRANCH  19  21
ATOM     21  O   UNL     1       3.837   1.106  18.274  0.00  0.00    +0.000 OA
ATOM     22  H   UNL     1       4.783   1.047  18.040  0.00  0.00    +0.000 HD
ENDBRANCH  19  21
ENDBRANCH  18  19
ENDBRANCH  17  18
ENDBRANCH   6  17
TORSDOF 8
ENDMDL
MODEL 6
REMARK VINA RESULT:      -6.5      2.757      3.989
REMARK  Name = 
REMARK  11 active torsions:
REMARK  status: ('A' for Active; 'I' for Inactive)
REMARK    1  A    between atoms: C_1  and  C_2
REMARK    2  A    between atoms: C_2  and  C_3
REMARK    3  A    between atoms: C_2  and  C_4
REMARK    4  A    between atoms: C_2  and  O_5
REMARK    5  A    between atoms: O_5  and  C_6
REMARK    6  A    between atoms: N_8  and  C_9
REMARK    7  A    between atoms: C_9  and  C_10
REMARK    8  A    between atoms: C_15  and  C_16
REMARK    9  A    between atoms: C_16  and  C_17
REMARK   10  A    between atoms: C_17  and  C_18
REMARK   11  A    between atoms: C_18  and  O_20
REMARK                            x       y       z     vdW  Elec       q    Type
REMARK                         _______ _______ _______ _____ _____    ______ ____
ROOT
ATOM      1  C   UNL     1       5.335   4.490  17.088  0.00  0.00    +0.000 A 
ATOM      2  C   UNL     1       5.921   4.932  18.293  0.00  0.00    +0.000 A 
ATOM      3  C   UNL     1       6.952   5.865  18.296  0.00  0.00    +0.000 A 
ATOM      4  C   UNL     1       7.407   6.383  17.092  0.00  0.00    +0.000 A 
ATOM      5  C   UNL     1       6.855   5.942  15.888  0.00  0.00    +0.000 A 
ATOM      6  C   UNL     1       5.823   4.982  15.855  0.00  0.00    +0.000 A 
ENDROOT
BRANCH   1   7
ATOM      7  C   UNL     1       4.174   3.545  17.222  0.00  0.00    +0.000 C 
BRANCH   7  10
ATOM      8  C   UNL     1       3.455   2.255  19.147  0.00  0.00    +0.000 C 
ATOM      9  O   UNL     1       3.558   1.207  18.523  0.00  0.00    +0.000 OA
ATOM     10  N   UNL     1       3.718   3.471  18.594  0.00  0.00    +0.000 N 
ATOM     11  H   UNL     1       3.753   4.274  19.199  0.00  0.00    +0.000 HD
BRANCH   8  12
ATOM     12  O   UNL     1       3.060   2.379  20.439  0.00  0.00    +0.000 OA
BRANCH  12  14
ATOM     13  C   UNL     1       0.798   2.860  19.600  0.00  0.00    +0.000 C 
ATOM     14  C   UNL     1       1.826   3.103  20.714  0.00  0.00    +0.000 C 
ATOM     15  C   UNL     1       2.095   4.598  20.943  0.00  0.00    +0.000 C 
ATOM     16  C   UNL     1       1.245   2.526  22.017  0.00  0.00    +0.000 C 
ENDBRANCH  12  14
ENDBRANCH   8  12
ENDBRANCH   7  10
ENDBRANCH   1   7
BRANCH   6  17
ATOM     17  C   UNL     1       5.362   4.492  14.491  0.00  0.00    +0.000 C 
BRANCH  17  18
ATOM     18  C   UNL     1       6.472   3.965  13.587  0.00  0.00    +0.000 C 
BRANCH  18  19
ATOM     19  C   UNL     1       5.940   3.271  12.357  0.00  0.00    +0.000 C 
ATOM     20  O   UNL     1       4.832   3.430  11.872  0.00  0.00    +0.000 OA
BRANCH  19  21
ATOM     21  O   UNL     1       6.851   2.421  11.823  0.00  0.00    +0.000 OA
ATOM     22  H   UNL     1       6.947   2.507  10.854  0.00  0.00    +0.000 HD
ENDBRANCH  19  21
ENDBRANCH  18  19
ENDBRANCH  17  18
ENDBRANCH   6  17
TORSDOF 8
ENDMDL
MODEL 7
REMARK VINA RESULT:      -6.4      1.634      2.034
REMARK  Name = 
REMARK  11 active torsions:
REMARK  status: ('A' for Active; 'I' for Inactive)
REMARK    1  A    between atoms: C_1  and  C_2
REMARK    2  A    between atoms: C_2  and  C_3
REMARK    3  A    between atoms: C_2  and  C_4
REMARK    4  A    between atoms: C_2  and  O_5
REMARK    5  A    between atoms: O_5  and  C_6
REMARK    6  A    between atoms: N_8  and  C_9
REMARK    7  A    between atoms: C_9  and  C_10
REMARK    8  A    between atoms: C_15  and  C_16
REMARK    9  A    between atoms: C_16  and  C_17
REMARK   10  A    between atoms: C_17  and  C_18
REMARK   11  A    between atoms: C_18  and  O_20
REMARK                            x       y       z     vdW  Elec       q    Type
REMARK                         _______ _______ _______ _____ _____    ______ ____
ROOT
ATOM      1  C   UNL     1       5.089   5.682  16.829  0.00  0.00    +0.000 A 
ATOM      2  C   UNL     1       4.833   5.288  15.499  0.00  0.00    +0.000 A 
ATOM      3  C   UNL     1       5.736   4.503  14.791  0.00  0.00    +0.000 A 
ATOM      4  C   UNL     1       6.908   4.088  15.408  0.00  0.00    +0.000 A 
ATOM      5  C   UNL     1       7.190   4.486  16.716  0.00  0.00    +0.000 A 
ATOM      6  C   UNL     1       6.300   5.298  17.449  0.00  0.00    +0.000 A 
ENDROOT
BRANCH   1   7
ATOM      7  C   UNL     1       3.997   6.458  17.514  0.00  0.00    +0.000 C 
BRANCH   7  10
ATOM      8  C   UNL     1       2.651   5.252  19.132  0.00  0.00    +0.000 C 
ATOM      9  O   UNL     1       3.379   5.606  20.049  0.00  0.00    +0.000 OA
ATOM     10  N   UNL     1       2.875   5.603  17.835  0.00  0.00    +0.000 N 
ATOM     11  H   UNL     1       2.161   5.401  17.154  0.00  0.00    +0.000 HD
BRANCH   8  12
ATOM     12  O   UNL     1       1.549   4.469  19.243  0.00  0.00    +0.000 OA
BRANCH  12  14
ATOM     13  C   UNL     1       1.448   2.838  21.082  0.00  0.00    +0.000 C 
ATOM     14  C   UNL     1       1.736   3.066  19.592  0.00  0.00    +0.000 C 
ATOM     15  C   UNL     1       3.132   2.572  19.185  0.00  0.00    +0.000 C 
ATOM     16  C   UNL     1       0.699   2.260  18.789  0.00  0.00    +0.000 C 
ENDBRANCH  12  14
ENDBRANCH   8  12
ENDBRANCH   7  10
ENDBRANCH   1   7
BRANCH   6  17
ATOM     17  C   UNL     1       6.747   5.762  18.827  0.00  0.00    +0.000 C 
BRANCH  17  18
ATOM     18  C   UNL     1       8.129   6.408  18.873  0.00  0.00    +0.000 C 
BRANCH  18  19
ATOM     19  C   UNL     1       8.148   7.784  18.255  0.00  0.00    +0.000 C 
ATOM     20  O   UNL     1       7.628   8.098  17.197  0.00  0.00    +0.000 OA
BRANCH  19  21
ATOM     21  O   UNL     1       8.825   8.673  19.022  0.00  0.00    +0.000 OA
ATOM     22  H   UNL     1       9.507   9.174  18.534  0.00  0.00    +0.000 HD
ENDBRANCH  19  21
ENDBRANCH  18  19
ENDBRANCH  17  18
ENDBRANCH   6  17
TORSDOF 8
ENDMDL
MODEL 8
REMARK VINA RESULT:      -6.4      2.149      5.975
REMARK  Name = 
REMARK  11 active torsions:
REMARK  status: ('A' for Active; 'I' for Inactive)
REMARK    1  A    between atoms: C_1  and  C_2
REMARK    2  A    between atoms: C_2  and  C_3
REMARK    3  A    between atoms: C_2  and  C_4
REMARK    4  A    between atoms: C_2  and  O_5
REMARK    5  A    between atoms: O_5  and  C_6
REMARK    6  A    between atoms: N_8  and  C_9
REMARK    7  A    between atoms: C_9  and  C_10
REMARK    8  A    between atoms: C_15  and  C_16
REMARK    9  A    between atoms: C_16  and  C_17
REMARK   10  A    between atoms: C_17  and  C_18
REMARK   11  A    between atoms: C_18  and  O_20
REMARK                            x       y       z     vdW  Elec       q    Type
REMARK                         _______ _______ _______ _____ _____    ______ ____
ROOT
ATOM      1  C   UNL     1       4.010   4.262  19.037  0.00  0.00    +0.000 A 
ATOM      2  C   UNL     1       3.975   2.862  18.862  0.00  0.00    +0.000 A 
ATOM      3  C   UNL     1       2.776   2.189  18.655  0.00  0.00    +0.000 A 
ATOM      4  C   UNL     1       1.591   2.907  18.606  0.00  0.00    +0.000 A 
ATOM      5  C   UNL     1       1.601   4.290  18.798  0.00  0.00    +0.000 A 
ATOM      6  C   UNL     1       2.800   4.994  19.030  0.00  0.00    +0.000 A 
ENDROOT
BRANCH   1   7
ATOM      7  C   UNL     1       5.374   4.881  19.168  0.00  0.00    +0.000 C 
BRANCH   7  10
ATOM      8  C   UNL     1       7.156   4.930  17.523  0.00  0.00    +0.000 C 
ATOM      9  O   UNL     1       7.902   4.306  18.266  0.00  0.00    +0.000 OA
ATOM     10  N   UNL     1       5.889   5.282  17.876  0.00  0.00    +0.000 N 
ATOM     11  H   UNL     1       5.284   5.665  17.169  0.00  0.00    +0.000 HD
BRANCH   8  12
ATOM     12  O   UNL     1       7.458   5.373  16.277  0.00  0.00    +0.000 OA
BRANCH  12  14
ATOM     13  C   UNL     1       5.385   6.002  15.112  0.00  0.00    +0.000 C 
ATOM     14  C   UNL     1       6.561   5.018  15.185  0.00  0.00    +0.000 C 
ATOM     15  C   UNL     1       6.094   3.559  15.299  0.00  0.00    +0.000 C 
ATOM     16  C   UNL     1       7.364   5.154  13.879  0.00  0.00    +0.000 C 
ENDBRANCH  12  14
ENDBRANCH   8  12
ENDBRANCH   7  10
ENDBRANCH   1   7
BRANCH   6  17
ATOM     17  C   UNL     1       2.694   6.482  19.330  0.00  0.00    +0.000 C 
BRANCH  17  18
ATOM     18  C   UNL     1       2.623   7.384  18.101  0.00  0.00    +0.000 C 
BRANCH  18  19
ATOM     19  C   UNL     1       1.915   8.687  18.377  0.00  0.00    +0.000 C 
ATOM     20  O   UNL     1       1.304   8.965  19.395  0.00  0.00    +0.000 OA
BRANCH  19  21
ATOM     21  O   UNL     1       2.030   9.554  17.341  0.00  0.00    +0.000 OA
ATOM     22  H   UNL     1       2.898   9.521  16.895  0.00  0.00    +0.000 HD
ENDBRANCH  19  21
ENDBRANCH  18  19
ENDBRANCH  17  18
ENDBRANCH   6  17
TORSDOF 8
ENDMDL
MODEL 9
REMARK VINA RESULT:      -6.4      2.107      3.743
REMARK  Name = 
REMARK  11 active torsions:
REMARK  status: ('A' for Active; 'I' for Inactive)
REMARK    1  A    between atoms: C_1  and  C_2
REMARK    2  A    between atoms: C_2  and  C_3
REMARK    3  A    between atoms: C_2  and  C_4
REMARK    4  A    between atoms: C_2  and  O_5
REMARK    5  A    between atoms: O_5  and  C_6
REMARK    6  A    between atoms: N_8  and  C_9
REMARK    7  A    between atoms: C_9  and  C_10
REMARK    8  A    between atoms: C_15  and  C_16
REMARK    9  A    between atoms: C_16  and  C_17
REMARK   10  A    between atoms: C_17  and  C_18
REMARK   11  A    between atoms: C_18  and  O_20
REMARK                            x       y       z     vdW  Elec       q    Type
REMARK                         _______ _______ _______ _____ _____    ______ ____
ROOT
ATOM      1  C   UNL     1       6.765   5.501  18.341  0.00  0.00    +0.000 A 
ATOM      2  C   UNL     1       7.769   6.144  19.095  0.00  0.00    +0.000 A 
ATOM      3  C   UNL     1       8.282   7.378  18.713  0.00  0.00    +0.000 A 
ATOM      4  C   UNL     1       7.791   7.997  17.573  0.00  0.00    +0.000 A 
ATOM      5  C   UNL     1       6.814   7.367  16.800  0.00  0.00    +0.000 A 
ATOM      6  C   UNL     1       6.290   6.107  17.155  0.00  0.00    +0.000 A 
ENDROOT
BRANCH   1   7
ATOM      7  C   UNL     1       6.233   4.212  18.905  0.00  0.00    +0.000 C 
BRANCH   7  10
ATOM      8  C   UNL     1       4.146   3.220  19.640  0.00  0.00    +0.000 C 
ATOM      9  O   UNL     1       4.720   2.203  20.003  0.00  0.00    +0.000 OA
ATOM     10  N   UNL     1       4.796   4.270  19.067  0.00  0.00    +0.000 N 
ATOM     11  H   UNL     1       4.289   5.127  18.926  0.00  0.00    +0.000 HD
BRANCH   8  12
ATOM     12  O   UNL     1       2.813   3.458  19.728  0.00  0.00    +0.000 OA
BRANCH  12  14
ATOM     13  C   UNL     1       1.712   4.422  17.750  0.00  0.00    +0.000 C 
ATOM     14  C   UNL     1       1.982   3.153  18.570  0.00  0.00    +0.000 C 
ATOM     15  C   UNL     1       0.687   2.440  18.985  0.00  0.00    +0.000 C 
ATOM     16  C   UNL     1       2.786   2.187  17.682  0.00  0.00    +0.000 C 
ENDBRANCH  12  14
ENDBRANCH   8  12
ENDBRANCH   7  10
ENDBRANCH   1   7
BRANCH   6  17
ATOM     17  C   UNL     1       5.306   5.460  16.193  0.00  0.00    +0.000 C 
BRANCH  17  18
ATOM     18  C   UNL     1       5.820   4.205  15.492  0.00  0.00    +0.000 C 
BRANCH  18  19
ATOM     19  C   UNL     1       6.635   4.519  14.262  0.00  0.00    +0.000 C 
ATOM     20  O   UNL     1       7.562   5.310  14.203  0.00  0.00    +0.000 OA
BRANCH  19  21
ATOM     21  O   UNL     1       6.220   3.807  13.185  0.00  0.00    +0.000 OA
ATOM     22  H   UNL     1       5.728   2.996  13.417  0.00  0.00    +0.000 HD
ENDBRANCH  19  21
ENDBRANCH  18  19
ENDBRANCH  17  18
ENDBRANCH   6  17
TORSDOF 8
ENDMDL
