MODEL 1
REMARK VINA RESULT:      -6.6      0.000      0.000
REMARK  Name = 
REMARK  3 active torsions:
REMARK  status: ('A' for Active; 'I' for Inactive)
REMARK    1  A    between atoms: C_1  and  C_2
REMARK    2  A    between atoms: C_2  and  N_3
REMARK    3  A    between atoms: N_10  and  C_11
REMARK                            x       y       z     vdW  Elec       q    Type
REMARK                         _______ _______ _______ _____ _____    ______ ____
ROOT
ATOM      1  N   UNL     1       6.069   4.812  17.598  0.00  0.00    +0.000 N 
ATOM      2  C   UNL     1       5.487   4.160  16.580  0.00  0.00    +0.000 C 
ATOM      3  O   UNL     1       6.011   4.001  15.488  0.00  0.00    +0.000 OA
ATOM      4  O   UNL     1       4.264   3.674  16.885  0.00  0.00    +0.000 OA
ATOM      5  C   UNL     1       3.940   4.064  18.182  0.00  0.00    +0.000 C 
ATOM      6  C   UNL     1       3.774   2.859  19.129  0.00  0.00    +0.000 C 
ATOM      7  C   UNL     1       2.515   2.050  18.792  0.00  0.00    +0.000 C 
ATOM      8  N   UNL     1       1.303   2.895  18.768  0.00  0.00    +0.000 NA
ATOM      9  C   UNL     1       0.879   3.343  20.109  0.00  0.00    +0.000 C 
ATOM     10  C   UNL     1       1.450   4.016  17.812  0.00  0.00    +0.000 C 
ATOM     11  C   UNL     1       2.659   4.916  18.156  0.00  0.00    +0.000 C 
ATOM     12  C   UNL     1       5.165   4.828  18.592  0.00  0.00    +0.000 C 
ATOM     13  O   UNL     1       5.353   5.337  19.687  0.00  0.00    +0.000 OA
ENDROOT
BRANCH   1  15
ATOM     14  C   UNL     1       7.464   6.857  17.421  0.00  0.00    +0.000 C 
ATOM     15  C   UNL     1       7.422   5.349  17.646  0.00  0.00    +0.000 C 
ENDBRANCH   1  15
TORSDOF 1
ENDMDL
MODEL 2
REMARK VINA RESULT:      -6.5      1.637      4.833
REMARK  Name = 
REMARK  3 active torsions:
REMARK  status: ('A' for Active; 'I' for Inactive)
REMARK    1  A    between atoms: C_1  and  C_2
REMARK    2  A    between atoms: C_2  and  N_3
REMARK    3  A    between atoms: N_10  and  C_11
REMARK                            x       y       z     vdW  Elec       q    Type
REMARK                         _______ _______ _______ _____ _____    ______ ____
ROOT
ATOM      1  N   UNL     1       2.730   3.122  18.979  0.00  0.00    +0.000 N 
ATOM      2  C   UNL     1       2.118   3.744  17.958  0.00  0.00    +0.000 C 
ATOM      3  O   UNL     1       0.938   3.596  17.682  0.00  0.00    +0.000 OA
ATOM      4  O   UNL     1       2.934   4.575  17.272  0.00  0.00    +0.000 OA
ATOM      5  C   UNL     1       4.217   4.481  17.805  0.00  0.00    +0.000 C 
ATOM      6  C   UNL     1       4.693   5.815  18.414  0.00  0.00    +0.000 C 
ATOM      7  C   UNL     1       4.953   6.867  17.329  0.00  0.00    +0.000 C 
ATOM      8  N   UNL     1       5.887   6.375  16.294  0.00  0.00    +0.000 NA
ATOM      9  C   UNL     1       7.278   6.261  16.772  0.00  0.00    +0.000 C 
ATOM     10  C   UNL     1       5.391   5.126  15.674  0.00  0.00    +0.000 C 
ATOM     11  C   UNL     1       5.191   4.002  16.716  0.00  0.00    +0.000 C 
ATOM     12  C   UNL     1       4.020   3.493  18.917  0.00  0.00    +0.000 C 
ATOM     13  O   UNL     1       4.881   3.121  19.701  0.00  0.00    +0.000 OA
ENDROOT
BRANCH   1  15
ATOM     14  C   UNL     1       1.498   3.048  21.131  0.00  0.00    +0.000 C 
ATOM     15  C   UNL     1       2.120   2.262  19.983  0.00  0.00    +0.000 C 
ENDBRANCH   1  15
TORSDOF 1
ENDMDL
MODEL 3
REMARK VINA RESULT:      -6.5      1.349      1.378
REMARK  Name = 
REMARK  3 active torsions:
REMARK  status: ('A' for Active; 'I' for Inactive)
REMARK    1  A    between atoms: C_1  and  C_2
REMARK    2  A    between atoms: C_2  and  N_3
REMARK    3  A    between atoms: N_10  and  C_11
REMARK                            x       y       z     vdW  Elec       q    Type
REMARK                         _______ _______ _______ _____ _____    ______ ____
ROOT
ATOM      1  N   UNL     1       6.066   5.649  17.674  0.00  0.00    +0.000 N 
ATOM      2  C   UNL     1       4.988   5.501  16.887  0.00  0.00    +0.000 C 
ATOM      3  O   UNL     1       4.948   5.850  15.718  0.00  0.00    +0.000 OA
ATOM      4  O   UNL     1       3.949   4.904  17.510  0.00  0.00    +0.000 OA
ATOM      5  C   UNL     1       4.297   4.675  18.839  0.00  0.00    +0.000 C 
ATOM      6  C   UNL     1       4.329   3.172  19.182  0.00  0.00    +0.000 C 
ATOM      7  C   UNL     1       2.919   2.567  19.189  0.00  0.00    +0.000 C 
ATOM      8  N   UNL     1       2.002   3.311  20.078  0.00  0.00    +0.000 NA
ATOM      9  C   UNL     1       2.292   3.111  21.511  0.00  0.00    +0.000 C 
ATOM     10  C   UNL     1       1.933   4.741  19.703  0.00  0.00    +0.000 C 
ATOM     11  C   UNL     1       3.319   5.423  19.761  0.00  0.00    +0.000 C 
ATOM     12  C   UNL     1       5.700   5.205  18.888  0.00  0.00    +0.000 C 
ATOM     13  O   UNL     1       6.436   5.183  19.864  0.00  0.00    +0.000 OA
ENDROOT
BRANCH   1  15
ATOM     14  C   UNL     1       7.560   7.626  17.569  0.00  0.00    +0.000 C 
ATOM     15  C   UNL     1       7.382   6.139  17.288  0.00  0.00    +0.000 C 
ENDBRANCH   1  15
TORSDOF 1
ENDMDL
MODEL 4
REMARK VINA RESULT:      -6.5      1.463      4.922
REMARK  Name = 
REMARK  3 active torsions:
REMARK  status: ('A' for Active; 'I' for Inactive)
REMARK    1  A    between atoms: C_1  and  C_2
REMARK    2  A    between atoms: C_2  and  N_3
REMARK    3  A    between atoms: N_10  and  C_11
REMARK                            x       y       z     vdW  Elec       q    Type
REMARK                         _______ _______ _______ _____ _____    ______ ____
ROOT
ATOM      1  N   UNL     1       2.713   3.958  18.594  0.00  0.00    +0.000 N 
ATOM      2  C   UNL     1       3.516   3.048  18.018  0.00  0.00    +0.000 C 
ATOM      3  O   UNL     1       3.205   1.879  17.849  0.00  0.00    +0.000 OA
ATOM      4  O   UNL     1       4.702   3.557  17.620  0.00  0.00    +0.000 OA
ATOM      5  C   UNL     1       4.763   4.896  17.997  0.00  0.00    +0.000 C 
ATOM      6  C   UNL     1       4.859   5.840  16.783  0.00  0.00    +0.000 C 
ATOM      7  C   UNL     1       6.218   5.719  16.084  0.00  0.00    +0.000 C 
ATOM      8  N   UNL     1       7.344   5.921  17.022  0.00  0.00    +0.000 NA
ATOM      9  C   UNL     1       7.489   7.322  17.462  0.00  0.00    +0.000 C 
ATOM     10  C   UNL     1       7.275   4.970  18.154  0.00  0.00    +0.000 C 
ATOM     11  C   UNL     1       5.954   5.108  18.947  0.00  0.00    +0.000 C 
ATOM     12  C   UNL     1       3.427   5.095  18.651  0.00  0.00    +0.000 C 
ATOM     13  O   UNL     1       3.009   6.147  19.113  0.00  0.00    +0.000 OA
ENDROOT
BRANCH   1  15
ATOM     14  C   UNL     1       1.221   3.414  20.499  0.00  0.00    +0.000 C 
ATOM     15  C   UNL     1       1.334   3.775  19.022  0.00  0.00    +0.000 C 
ENDBRANCH   1  15
TORSDOF 1
ENDMDL
MODEL 5
REMARK VINA RESULT:      -6.4      1.849      4.844
REMARK  Name = 
REMARK  3 active torsions:
REMARK  status: ('A' for Active; 'I' for Inactive)
REMARK    1  A    between atoms: C_1  and  C_2
REMARK    2  A    between atoms: C_2  and  N_3
REMARK    3  A    between atoms: N_10  and  C_11
REMARK                            x       y       z     vdW  Elec       q    Type
REMARK                         _______ _______ _______ _____ _____    ______ ____
ROOT
ATOM      1  N   UNL     1       3.077   2.865  19.686  0.00  0.00    +0.000 N 
ATOM      2  C   UNL     1       4.393   2.663  19.855  0.00  0.00    +0.000 C 
ATOM      3  O   UNL     1       4.862   1.891  20.676  0.00  0.00    +0.000 OA
ATOM      4  O   UNL     1       5.159   3.387  19.009  0.00  0.00    +0.000 OA
ATOM      5  C   UNL     1       4.328   4.197  18.238  0.00  0.00    +0.000 C 
ATOM      6  C   UNL     1       4.406   3.851  16.738  0.00  0.00    +0.000 C 
ATOM      7  C   UNL     1       5.761   4.246  16.140  0.00  0.00    +0.000 C 
ATOM      8  N   UNL     1       6.083   5.668  16.388  0.00  0.00    +0.000 NA
ATOM      9  C   UNL     1       5.256   6.599  15.597  0.00  0.00    +0.000 C 
ATOM     10  C   UNL     1       6.064   5.976  17.836  0.00  0.00    +0.000 C 
ATOM     11  C   UNL     1       4.689   5.674  18.475  0.00  0.00    +0.000 C 
ATOM     12  C   UNL     1       2.967   3.818  18.745  0.00  0.00    +0.000 C 
ATOM     13  O   UNL     1       1.905   4.256  18.329  0.00  0.00    +0.000 OA
ENDROOT
BRANCH   1  15
ATOM     14  C   UNL     1       1.497   2.876  21.598  0.00  0.00    +0.000 C 
ATOM     15  C   UNL     1       1.983   2.163  20.342  0.00  0.00    +0.000 C 
ENDBRANCH   1  15
TORSDOF 1
ENDMDL
MODEL 6
REMARK VINA RESULT:      -6.3      1.629      2.120
REMARK  Name = 
REMARK  3 active torsions:
REMARK  status: ('A' for Active; 'I' for Inactive)
REMARK    1  A    between atoms: C_1  and  C_2
REMARK    2  A    between atoms: C_2  and  N_3
REMARK    3  A    between atoms: N_10  and  C_11
REMARK                            x       y       z     vdW  Elec       q    Type
REMARK                         _______ _______ _______ _____ _____    ______ ____
ROOT
ATOM      1  N   UNL     1       6.570   5.843  17.362  0.00  0.00    +0.000 N 
ATOM      2  C   UNL     1       6.940   4.742  18.036  0.00  0.00    +0.000 C 
ATOM      3  O   UNL     1       8.103   4.426  18.233  0.00  0.00    +0.000 OA
ATOM      4  O   UNL     1       5.896   4.022  18.499  0.00  0.00    +0.000 OA
ATOM      5  C   UNL     1       4.714   4.621  18.068  0.00  0.00    +0.000 C 
ATOM      6  C   UNL     1       3.855   5.127  19.244  0.00  0.00    +0.000 C 
ATOM      7  C   UNL     1       3.262   3.963  20.047  0.00  0.00    +0.000 C 
ATOM      8  N   UNL     1       2.512   3.022  19.189  0.00  0.00    +0.000 NA
ATOM      9  C   UNL     1       1.235   3.574  18.699  0.00  0.00    +0.000 C 
ATOM     10  C   UNL     1       3.364   2.497  18.098  0.00  0.00    +0.000 C 
ATOM     11  C   UNL     1       3.922   3.627  17.202  0.00  0.00    +0.000 C 
ATOM     12  C   UNL     1       5.228   5.809  17.308  0.00  0.00    +0.000 C 
ATOM     13  O   UNL     1       4.539   6.662  16.769  0.00  0.00    +0.000 OA
ENDROOT
BRANCH   1  15
ATOM     14  C   UNL     1       7.793   7.936  17.891  0.00  0.00    +0.000 C 
ATOM     15  C   UNL     1       7.435   6.892  16.840  0.00  0.00    +0.000 C 
ENDBRANCH   1  15
TORSDOF 1
ENDMDL
MODEL 7
REMARK VINA RESULT:      -6.3      1.387      2.593
REMARK  Name = 
REMARK  3 active torsions:
REMARK  status: ('A' for Active; 'I' for Inactive)
REMARK    1  A    between atoms: C_1  and  C_2
REMARK    2  A    between atoms: C_2  and  N_3
REMARK    3  A    between atoms: N_10  and  C_11
REMARK                            x       y       z     vdW  Elec       q    Type
REMARK                         _______ _______ _______ _____ _____    ______ ____
ROOT
ATOM      1  N   UNL     1       6.448   5.660  18.050  0.00  0.00    +0.000 N 
ATOM      2  C   UNL     1       6.633   5.311  19.333  0.00  0.00    +0.000 C 
ATOM      3  O   UNL     1       7.675   5.493  19.942  0.00  0.00    +0.000 OA
ATOM      4  O   UNL     1       5.540   4.754  19.899  0.00  0.00    +0.000 OA
ATOM      5  C   UNL     1       4.542   4.647  18.933  0.00  0.00    +0.000 C 
ATOM      6  C   UNL     1       3.303   5.496  19.278  0.00  0.00    +0.000 C 
ATOM      7  C   UNL     1       2.545   4.919  20.480  0.00  0.00    +0.000 C 
ATOM      8  N   UNL     1       2.194   3.496  20.284  0.00  0.00    +0.000 NA
ATOM      9  C   UNL     1       1.130   3.292  19.283  0.00  0.00    +0.000 C 
ATOM     10  C   UNL     1       3.399   2.680  20.011  0.00  0.00    +0.000 C 
ATOM     11  C   UNL     1       4.158   3.168  18.755  0.00  0.00    +0.000 C 
ATOM     12  C   UNL     1       5.210   5.246  17.730  0.00  0.00    +0.000 C 
ATOM     13  O   UNL     1       4.695   5.401  16.632  0.00  0.00    +0.000 OA
ENDROOT
BRANCH   1  15
ATOM     14  C   UNL     1       7.506   7.854  17.577  0.00  0.00    +0.000 C 
ATOM     15  C   UNL     1       7.371   6.386  17.189  0.00  0.00    +0.000 C 
ENDBRANCH   1  15
TORSDOF 1
ENDMDL
MODEL 8
REMARK VINA RESULT:      -6.3      1.613      1.760
REMARK  Name = 
REMARK  3 active torsions:
REMARK  status: ('A' for Active; 'I' for Inactive)
REMARK    1  A    between atoms: C_1  and  C_2
REMARK    2  A    between atoms: C_2  and  N_3
REMARK    3  A    between atoms: N_10  and  C_11
REMARK                            x       y       z     vdW  Elec       q    Type
REMARK                         _______ _______ _______ _____ _____    ______ ____
ROOT
ATOM      1  N   UNL     1       5.528   5.458  17.791  0.00  0.00    +0.000 N 
ATOM      2  C   UNL     1       4.435   6.076  17.317  0.00  0.00    +0.000 C 
ATOM      3  O   UNL     1       4.465   6.945  16.461  0.00  0.00    +0.000 OA
ATOM      4  O   UNL     1       3.285   5.626  17.866  0.00  0.00    +0.000 OA
ATOM      5  C   UNL     1       3.596   4.674  18.835  0.00  0.00    +0.000 C 
ATOM      6  C   UNL     1       3.036   3.282  18.484  0.00  0.00    +0.000 C 
ATOM      7  C   UNL     1       1.506   3.249  18.588  0.00  0.00    +0.000 C 
ATOM      8  N   UNL     1       1.031   3.712  19.909  0.00  0.00    +0.000 NA
ATOM      9  C   UNL     1       1.307   2.752  20.995  0.00  0.00    +0.000 C 
ATOM     10  C   UNL     1       1.525   5.074  20.211  0.00  0.00    +0.000 C 
ATOM     11  C   UNL     1       3.070   5.144  20.202  0.00  0.00    +0.000 C 
ATOM     12  C   UNL     1       5.093   4.622  18.749  0.00  0.00    +0.000 C 
ATOM     13  O   UNL     1       5.819   3.885  19.401  0.00  0.00    +0.000 OA
ENDROOT
BRANCH   1  15
ATOM     14  C   UNL     1       7.660   6.687  18.105  0.00  0.00    +0.000 C 
ATOM     15  C   UNL     1       6.901   5.614  17.333  0.00  0.00    +0.000 C 
ENDBRANCH   1  15
TORSDOF 1
ENDMDL
MODEL 9
REMARK VINA RESULT:      -6.3      1.882      5.155
REMARK  Name = 
REMARK  3 active torsions:
REMARK  status: ('A' for Active; 'I' for Inactive)
REMARK    1  A    between atoms: C_1  and  C_2
REMARK    2  A    between atoms: C_2  and  N_3
REMARK    3  A    between atoms: N_10  and  C_11
REMARK                            x       y       z     vdW  Elec       q    Type
REMARK                         _______ _______ _______ _____ _____    ______ ____
ROOT
ATOM      1  N   UNL     1       2.099   4.212  19.728  0.00  0.00    +0.000 N 
ATOM      2  C   UNL     1       2.384   5.496  19.999  0.00  0.00    +0.000 C 
ATOM      3  O   UNL     1       1.694   6.208  20.712  0.00  0.00    +0.000 OA
ATOM      4  O   UNL     1       3.528   5.924  19.422  0.00  0.00    +0.000 OA
ATOM      5  C   UNL     1       4.047   4.894  18.643  0.00  0.00    +0.000 C 
ATOM      6  C   UNL     1       5.423   4.418  19.149  0.00  0.00    +0.000 C 
ATOM      7  C   UNL     1       6.506   5.477  18.911  0.00  0.00    +0.000 C 
ATOM      8  N   UNL     1       6.563   5.904  17.496  0.00  0.00    +0.000 NA
ATOM      9  C   UNL     1       7.118   4.872  16.599  0.00  0.00    +0.000 C 
ATOM     10  C   UNL     1       5.252   6.414  17.037  0.00  0.00    +0.000 C 
ATOM     11  C   UNL     1       4.136   5.353  17.177  0.00  0.00    +0.000 C 
ATOM     12  C   UNL     1       3.049   3.797  18.873  0.00  0.00    +0.000 C 
ATOM     13  O   UNL     1       3.113   2.667  18.410  0.00  0.00    +0.000 OA
ENDROOT
BRANCH   1  15
ATOM     14  C   UNL     1       1.416   2.695  21.568  0.00  0.00    +0.000 C 
ATOM     15  C   UNL     1       1.018   3.410  20.281  0.00  0.00    +0.000 C 
ENDBRANCH   1  15
TORSDOF 1
ENDMDL
