MODEL 1
REMARK VINA RESULT:      -6.4      0.000      0.000
REMARK  Name = 
REMARK  2 active torsions:
REMARK  status: ('A' for Active; 'I' for Inactive)
REMARK    1  A    between atoms: C_1  and  C_2
REMARK    2  A    between atoms: C_15  and  C_16
REMARK                            x       y       z     vdW  Elec       q    Type
REMARK                         _______ _______ _______ _____ _____    ______ ____
ROOT
ATOM      1  C   UNL     1       1.887   6.627  20.479  0.00  0.00    +0.000 C 
ATOM      2  C   UNL     1       2.158   5.267  19.808  0.00  0.00    +0.000 C 
ATOM      3  C   UNL     1       3.406   4.617  20.505  0.00  0.00    +0.000 C 
ATOM      4  C   UNL     1       3.315   3.065  20.682  0.00  0.00    +0.000 C 
ATOM      5  C   UNL     1       2.046   2.704  21.422  0.00  0.00    +0.000 C 
ATOM      6  O   UNL     1       1.916   1.673  22.080  0.00  0.00    +0.000 OA
ATOM      7  C   UNL     1       0.916   3.694  21.290  0.00  0.00    +0.000 C 
ATOM      8  C   UNL     1       1.026   4.233  20.047  0.00  0.00    +0.000 C 
ATOM      9  C   UNL     1       0.804   3.295  18.925  0.00  0.00    +0.000 C 
ATOM     10  C   UNL     1       1.650   3.165  17.875  0.00  0.00    +0.000 C 
ATOM     11  C   UNL     1       2.718   4.200  17.532  0.00  0.00    +0.000 C 
ATOM     12  C   UNL     1       2.236   5.487  18.242  0.00  0.00    +0.000 C 
ATOM     13  C   UNL     1       2.906   6.644  17.535  0.00  0.00    +0.000 C 
ATOM     14  C   UNL     1       4.241   6.634  17.567  0.00  0.00    +0.000 C 
ATOM     15  C   UNL     1       5.025   5.466  16.943  0.00  0.00    +0.000 C 
ATOM     16  C   UNL     1       4.981   5.449  15.397  0.00  0.00    +0.000 C 
ATOM     17  C   UNL     1       4.354   4.073  17.366  0.00  0.00    +0.000 C 
ATOM     18  C   UNL     1       5.407   3.422  18.289  0.00  0.00    +0.000 C 
ATOM     19  C   UNL     1       6.619   4.342  18.476  0.00  0.00    +0.000 C 
ATOM     20  C   UNL     1       6.506   5.518  17.511  0.00  0.00    +0.000 C 
ATOM     21  C   UNL     1       7.695   5.654  16.562  0.00  0.00    +0.000 C 
ATOM     22  C   UNL     1       7.726   7.123  16.240  0.00  0.00    +0.000 C 
ATOM     23  C   UNL     1       7.283   7.723  17.530  0.00  0.00    +0.000 C 
ATOM     24  O   UNL     1       7.371   8.880  17.882  0.00  0.00    +0.000 OA
ATOM     25  O   UNL     1       6.736   6.723  18.318  0.00  0.00    +0.000 OA
ENDROOT
TORSDOF 0
ENDMDL
MODEL 2
REMARK VINA RESULT:      -6.4      7.467     10.530
REMARK  Name = 
REMARK  2 active torsions:
REMARK  status: ('A' for Active; 'I' for Inactive)
REMARK    1  A    between atoms: C_1  and  C_2
REMARK    2  A    between atoms: C_15  and  C_16
REMARK                            x       y       z     vdW  Elec       q    Type
REMARK                         _______ _______ _______ _____ _____    ______ ____
ROOT
ATOM      1  C   UNL     1      -1.778  10.745  17.709  0.00  0.00    +0.000 C 
ATOM      2  C   UNL     1      -0.679  11.004  18.758  0.00  0.00    +0.000 C 
ATOM      3  C   UNL     1      -0.885   9.996  19.943  0.00  0.00    +0.000 C 
ATOM      4  C   UNL     1       0.441   9.447  20.566  0.00  0.00    +0.000 C 
ATOM      5  C   UNL     1       1.300   8.828  19.486  0.00  0.00    +0.000 C 
ATOM      6  O   UNL     1       2.139   7.955  19.706  0.00  0.00    +0.000 OA
ATOM      7  C   UNL     1       1.077   9.364  18.094  0.00  0.00    +0.000 C 
ATOM      8  C   UNL     1       0.747  10.675  18.241  0.00  0.00    +0.000 C 
ATOM      9  C   UNL     1       1.813  11.542  18.786  0.00  0.00    +0.000 C 
ATOM     10  C   UNL     1       1.634  12.395  19.823  0.00  0.00    +0.000 C 
ATOM     11  C   UNL     1       0.255  12.834  20.311  0.00  0.00    +0.000 C 
ATOM     12  C   UNL     1      -0.677  12.548  19.110  0.00  0.00    +0.000 C 
ATOM     13  C   UNL     1      -1.897  13.423  19.297  0.00  0.00    +0.000 C 
ATOM     14  C   UNL     1      -2.590  13.200  20.417  0.00  0.00    +0.000 C 
ATOM     15  C   UNL     1      -1.927  13.392  21.792  0.00  0.00    +0.000 C 
ATOM     16  C   UNL     1      -1.666  14.873  22.152  0.00  0.00    +0.000 C 
ATOM     17  C   UNL     1      -0.467  12.729  21.789  0.00  0.00    +0.000 C 
ATOM     18  C   UNL     1      -0.605  11.533  22.756  0.00  0.00    +0.000 C 
ATOM     19  C   UNL     1      -2.038  11.415  23.287  0.00  0.00    +0.000 C 
ATOM     20  C   UNL     1      -2.827  12.652  22.871  0.00  0.00    +0.000 C 
ATOM     21  C   UNL     1      -3.425  13.426  24.043  0.00  0.00    +0.000 C 
ATOM     22  C   UNL     1      -4.629  14.102  23.446  0.00  0.00    +0.000 C 
ATOM     23  C   UNL     1      -5.088  13.081  22.462  0.00  0.00    +0.000 C 
ATOM     24  O   UNL     1      -6.158  13.025  21.894  0.00  0.00    +0.000 OA
ATOM     25  O   UNL     1      -4.077  12.152  22.284  0.00  0.00    +0.000 OA
ENDROOT
TORSDOF 0
ENDMDL
MODEL 3
REMARK VINA RESULT:      -6.3      9.556     12.051
REMARK  Name = 
REMARK  2 active torsions:
REMARK  status: ('A' for Active; 'I' for Inactive)
REMARK    1  A    between atoms: C_1  and  C_2
REMARK    2  A    between atoms: C_15  and  C_16
REMARK                            x       y       z     vdW  Elec       q    Type
REMARK                         _______ _______ _______ _____ _____    ______ ____
ROOT
ATOM      1  C   UNL     1       7.918  15.052  17.808  0.00  0.00    +0.000 C 
ATOM      2  C   UNL     1       9.074  14.629  18.734  0.00  0.00    +0.000 C 
ATOM      3  C   UNL     1       8.856  13.127  19.136  0.00  0.00    +0.000 C 
ATOM      4  C   UNL     1      10.169  12.284  19.236  0.00  0.00    +0.000 C 
ATOM      5  C   UNL     1      10.942  12.379  17.938  0.00  0.00    +0.000 C 
ATOM      6  O   UNL     1      11.733  11.518  17.557  0.00  0.00    +0.000 OA
ATOM      7  C   UNL     1      10.694  13.626  17.127  0.00  0.00    +0.000 C 
ATOM      8  C   UNL     1      10.454  14.620  18.023  0.00  0.00    +0.000 C 
ATOM      9  C   UNL     1      11.594  14.985  18.890  0.00  0.00    +0.000 C 
ATOM     10  C   UNL     1      11.513  15.087  20.238  0.00  0.00    +0.000 C 
ATOM     11  C   UNL     1      10.186  15.201  20.986  0.00  0.00    +0.000 C 
ATOM     12  C   UNL     1       9.188  15.686  19.909  0.00  0.00    +0.000 C 
ATOM     13  C   UNL     1       8.034  16.324  20.649  0.00  0.00    +0.000 C 
ATOM     14  C   UNL     1       7.376  15.515  21.484  0.00  0.00    +0.000 C 
ATOM     15  C   UNL     1       8.107  14.859  22.668  0.00  0.00    +0.000 C 
ATOM     16  C   UNL     1       8.475  15.854  23.794  0.00  0.00    +0.000 C 
ATOM     17  C   UNL     1       9.521  14.281  22.182  0.00  0.00    +0.000 C 
ATOM     18  C   UNL     1       9.350  12.750  22.292  0.00  0.00    +0.000 C 
ATOM     19  C   UNL     1       7.936  12.386  22.759  0.00  0.00    +0.000 C 
ATOM     20  C   UNL     1       7.209  13.656  23.186  0.00  0.00    +0.000 C 
ATOM     21  C   UNL     1       6.711  13.628  24.629  0.00  0.00    +0.000 C 
ATOM     22  C   UNL     1       5.528  14.556  24.615  0.00  0.00    +0.000 C 
ATOM     23  C   UNL     1       4.964  14.304  23.260  0.00  0.00    +0.000 C 
ATOM     24  O   UNL     1       3.870  14.615  22.839  0.00  0.00    +0.000 OA
ATOM     25  O   UNL     1       5.907  13.621  22.509  0.00  0.00    +0.000 OA
ENDROOT
TORSDOF 0
ENDMDL
MODEL 4
REMARK VINA RESULT:      -6.2      9.735     12.563
REMARK  Name = 
REMARK  2 active torsions:
REMARK  status: ('A' for Active; 'I' for Inactive)
REMARK    1  A    between atoms: C_1  and  C_2
REMARK    2  A    between atoms: C_15  and  C_16
REMARK                            x       y       z     vdW  Elec       q    Type
REMARK                         _______ _______ _______ _____ _____    ______ ____
ROOT
ATOM      1  C   UNL     1       8.041  16.453  18.272  0.00  0.00    +0.000 C 
ATOM      2  C   UNL     1       9.278  15.777  18.894  0.00  0.00    +0.000 C 
ATOM      3  C   UNL     1       9.108  14.223  18.759  0.00  0.00    +0.000 C 
ATOM      4  C   UNL     1      10.431  13.449  18.449  0.00  0.00    +0.000 C 
ATOM      5  C   UNL     1      11.085  14.021  17.210  0.00  0.00    +0.000 C 
ATOM      6  O   UNL     1      11.846  13.378  16.488  0.00  0.00    +0.000 OA
ATOM      7  C   UNL     1      10.757  15.462  16.912  0.00  0.00    +0.000 C 
ATOM      8  C   UNL     1      10.590  16.071  18.116  0.00  0.00    +0.000 C 
ATOM      9  C   UNL     1      11.800  16.153  18.961  0.00  0.00    +0.000 C 
ATOM     10  C   UNL     1      11.837  15.774  20.262  0.00  0.00    +0.000 C 
ATOM     11  C   UNL     1      10.581  15.568  21.106  0.00  0.00    +0.000 C 
ATOM     12  C   UNL     1       9.488  16.360  20.351  0.00  0.00    +0.000 C 
ATOM     13  C   UNL     1       8.399  16.655  21.359  0.00  0.00    +0.000 C 
ATOM     14  C   UNL     1       7.824  15.581  21.906  0.00  0.00    +0.000 C 
ATOM     15  C   UNL     1       8.663  14.581  22.722  0.00  0.00    +0.000 C 
ATOM     16  C   UNL     1       9.122  15.133  24.092  0.00  0.00    +0.000 C 
ATOM     17  C   UNL     1      10.032  14.264  21.951  0.00  0.00    +0.000 C 
ATOM     18  C   UNL     1       9.883  12.786  21.530  0.00  0.00    +0.000 C 
ATOM     19  C   UNL     1       8.519  12.228  21.951  0.00  0.00    +0.000 C 
ATOM     20  C   UNL     1       7.823  13.240  22.855  0.00  0.00    +0.000 C 
ATOM     21  C   UNL     1       7.455  12.690  24.231  0.00  0.00    +0.000 C 
ATOM     22  C   UNL     1       6.268  13.519  24.639  0.00  0.00    +0.000 C 
ATOM     23  C   UNL     1       5.588  13.734  23.331  0.00  0.00    +0.000 C 
ATOM     24  O   UNL     1       4.459  14.130  23.136  0.00  0.00    +0.000 OA
ATOM     25  O   UNL     1       6.466  13.393  22.315  0.00  0.00    +0.000 OA
ENDROOT
TORSDOF 0
ENDMDL
MODEL 5
REMARK VINA RESULT:      -6.2      9.058     11.756
REMARK  Name = 
REMARK  2 active torsions:
REMARK  status: ('A' for Active; 'I' for Inactive)
REMARK    1  A    between atoms: C_1  and  C_2
REMARK    2  A    between atoms: C_15  and  C_16
REMARK                            x       y       z     vdW  Elec       q    Type
REMARK                         _______ _______ _______ _____ _____    ______ ____
ROOT
ATOM      1  C   UNL     1       7.962  12.237  17.359  0.00  0.00    +0.000 C 
ATOM      2  C   UNL     1       8.899  13.137  18.186  0.00  0.00    +0.000 C 
ATOM      3  C   UNL     1       8.885  12.626  19.671  0.00  0.00    +0.000 C 
ATOM      4  C   UNL     1      10.268  12.705  20.397  0.00  0.00    +0.000 C 
ATOM      5  C   UNL     1      11.316  11.967  19.592  0.00  0.00    +0.000 C 
ATOM      6  O   UNL     1      12.333  11.483  20.086  0.00  0.00    +0.000 OA
ATOM      7  C   UNL     1      11.045  11.871  18.111  0.00  0.00    +0.000 C 
ATOM      8  C   UNL     1      10.390  13.012  17.770  0.00  0.00    +0.000 C 
ATOM      9  C   UNL     1      11.171  14.260  17.905  0.00  0.00    +0.000 C 
ATOM     10  C   UNL     1      10.725  15.362  18.554  0.00  0.00    +0.000 C 
ATOM     11  C   UNL     1       9.254  15.586  18.900  0.00  0.00    +0.000 C 
ATOM     12  C   UNL     1       8.494  14.647  17.935  0.00  0.00    +0.000 C 
ATOM     13  C   UNL     1       7.085  15.188  17.832  0.00  0.00    +0.000 C 
ATOM     14  C   UNL     1       6.407  15.231  18.982  0.00  0.00    +0.000 C 
ATOM     15  C   UNL     1       6.921  16.082  20.157  0.00  0.00    +0.000 C 
ATOM     16  C   UNL     1       6.781  17.605  19.924  0.00  0.00    +0.000 C 
ATOM     17  C   UNL     1       8.498  15.859  20.340  0.00  0.00    +0.000 C 
ATOM     18  C   UNL     1       8.610  15.116  21.689  0.00  0.00    +0.000 C 
ATOM     19  C   UNL     1       7.225  14.846  22.286  0.00  0.00    +0.000 C 
ATOM     20  C   UNL     1       6.176  15.595  21.471  0.00  0.00    +0.000 C 
ATOM     21  C   UNL     1       5.337  16.571  22.292  0.00  0.00    +0.000 C 
ATOM     22  C   UNL     1       4.038  16.646  21.537  0.00  0.00    +0.000 C 
ATOM     23  C   UNL     1       3.906  15.253  21.028  0.00  0.00    +0.000 C 
ATOM     24  O   UNL     1       2.919  14.719  20.568  0.00  0.00    +0.000 OA
ATOM     25  O   UNL     1       5.127  14.613  21.168  0.00  0.00    +0.000 OA
ENDROOT
TORSDOF 0
ENDMDL
MODEL 6
REMARK VINA RESULT:      -6.1      8.014     10.820
REMARK  Name = 
REMARK  2 active torsions:
REMARK  status: ('A' for Active; 'I' for Inactive)
REMARK    1  A    between atoms: C_1  and  C_2
REMARK    2  A    between atoms: C_15  and  C_16
REMARK                            x       y       z     vdW  Elec       q    Type
REMARK                         _______ _______ _______ _____ _____    ______ ____
ROOT
ATOM      1  C   UNL     1       0.055  10.138  22.322  0.00  0.00    +0.000 C 
ATOM      2  C   UNL     1      -0.244  10.929  21.034  0.00  0.00    +0.000 C 
ATOM      3  C   UNL     1       0.978  11.870  20.742  0.00  0.00    +0.000 C 
ATOM      4  C   UNL     1       1.331  12.023  19.225  0.00  0.00    +0.000 C 
ATOM      5  C   UNL     1       1.550  10.660  18.606  0.00  0.00    +0.000 C 
ATOM      6  O   UNL     1       2.246  10.473  17.610  0.00  0.00    +0.000 OA
ATOM      7  C   UNL     1       0.836   9.518  19.287  0.00  0.00    +0.000 C 
ATOM      8  C   UNL     1      -0.326  10.031  19.771  0.00  0.00    +0.000 C 
ATOM      9  C   UNL     1      -1.292  10.493  18.751  0.00  0.00    +0.000 C 
ATOM     10  C   UNL     1      -1.889  11.709  18.775  0.00  0.00    +0.000 C 
ATOM     11  C   UNL     1      -1.928  12.594  20.019  0.00  0.00    +0.000 C 
ATOM     12  C   UNL     1      -1.665  11.612  21.186  0.00  0.00    +0.000 C 
ATOM     13  C   UNL     1      -2.209  12.273  22.433  0.00  0.00    +0.000 C 
ATOM     14  C   UNL     1      -1.648  13.444  22.747  0.00  0.00    +0.000 C 
ATOM     15  C   UNL     1      -1.731  14.632  21.772  0.00  0.00    +0.000 C 
ATOM     16  C   UNL     1      -3.147  15.247  21.666  0.00  0.00    +0.000 C 
ATOM     17  C   UNL     1      -1.409  14.136  20.282  0.00  0.00    +0.000 C 
ATOM     18  C   UNL     1      -0.060  14.811  19.954  0.00  0.00    +0.000 C 
ATOM     19  C   UNL     1       0.455  15.623  21.148  0.00  0.00    +0.000 C 
ATOM     20  C   UNL     1      -0.636  15.695  22.210  0.00  0.00    +0.000 C 
ATOM     21  C   UNL     1      -1.044  17.119  22.580  0.00  0.00    +0.000 C 
ATOM     22  C   UNL     1      -1.539  16.990  23.995  0.00  0.00    +0.000 C 
ATOM     23  C   UNL     1      -0.635  15.937  24.535  0.00  0.00    +0.000 C 
ATOM     24  O   UNL     1      -0.451  15.638  25.696  0.00  0.00    +0.000 OA
ATOM     25  O   UNL     1       0.009  15.320  23.475  0.00  0.00    +0.000 OA
ENDROOT
TORSDOF 0
ENDMDL
MODEL 7
REMARK VINA RESULT:      -6.0      8.964     12.268
REMARK  Name = 
REMARK  2 active torsions:
REMARK  status: ('A' for Active; 'I' for Inactive)
REMARK    1  A    between atoms: C_1  and  C_2
REMARK    2  A    between atoms: C_15  and  C_16
REMARK                            x       y       z     vdW  Elec       q    Type
REMARK                         _______ _______ _______ _____ _____    ______ ____
ROOT
ATOM      1  C   UNL     1       2.623  13.424  18.800  0.00  0.00    +0.000 C 
ATOM      2  C   UNL     1       1.886  14.732  19.146  0.00  0.00    +0.000 C 
ATOM      3  C   UNL     1       2.271  15.138  20.612  0.00  0.00    +0.000 C 
ATOM      4  C   UNL     1       2.437  16.677  20.837  0.00  0.00    +0.000 C 
ATOM      5  C   UNL     1       3.439  17.237  19.851  0.00  0.00    +0.000 C 
ATOM      6  O   UNL     1       4.093  18.258  20.055  0.00  0.00    +0.000 OA
ATOM      7  C   UNL     1       3.584  16.461  18.565  0.00  0.00    +0.000 C 
ATOM      8  C   UNL     1       2.357  15.942  18.295  0.00  0.00    +0.000 C 
ATOM      9  C   UNL     1       1.300  16.930  17.993  0.00  0.00    +0.000 C 
ATOM     10  C   UNL     1       0.083  16.936  18.589  0.00  0.00    +0.000 C 
ATOM     11  C   UNL     1      -0.476  15.738  19.354  0.00  0.00    +0.000 C 
ATOM     12  C   UNL     1       0.346  14.539  18.827  0.00  0.00    +0.000 C 
ATOM     13  C   UNL     1      -0.474  13.300  19.107  0.00  0.00    +0.000 C 
ATOM     14  C   UNL     1      -0.746  13.076  20.396  0.00  0.00    +0.000 C 
ATOM     15  C   UNL     1      -1.551  14.105  21.210  0.00  0.00    +0.000 C 
ATOM     16  C   UNL     1      -3.047  14.165  20.822  0.00  0.00    +0.000 C 
ATOM     17  C   UNL     1      -1.010  15.583  20.906  0.00  0.00    +0.000 C 
ATOM     18  C   UNL     1      -0.362  16.018  22.238  0.00  0.00    +0.000 C 
ATOM     19  C   UNL     1      -0.439  14.897  23.281  0.00  0.00    +0.000 C 
ATOM     20  C   UNL     1      -1.333  13.782  22.749  0.00  0.00    +0.000 C 
ATOM     21  C   UNL     1      -2.524  13.463  23.650  0.00  0.00    +0.000 C 
ATOM     22  C   UNL     1      -2.820  12.019  23.350  0.00  0.00    +0.000 C 
ATOM     23  C   UNL     1      -1.453  11.476  23.112  0.00  0.00    +0.000 C 
ATOM     24  O   UNL     1      -1.111  10.313  23.074  0.00  0.00    +0.000 OA
ATOM     25  O   UNL     1      -0.579  12.536  22.941  0.00  0.00    +0.000 OA
ENDROOT
TORSDOF 0
ENDMDL
MODEL 8
REMARK VINA RESULT:      -6.0      9.858     12.383
REMARK  Name = 
REMARK  2 active torsions:
REMARK  status: ('A' for Active; 'I' for Inactive)
REMARK    1  A    between atoms: C_1  and  C_2
REMARK    2  A    between atoms: C_15  and  C_16
REMARK                            x       y       z     vdW  Elec       q    Type
REMARK                         _______ _______ _______ _____ _____    ______ ____
ROOT
ATOM      1  C   UNL     1      11.754  12.000  20.443  0.00  0.00    +0.000 C 
ATOM      2  C   UNL     1      10.805  12.986  19.736  0.00  0.00    +0.000 C 
ATOM      3  C   UNL     1      11.240  14.445  20.120  0.00  0.00    +0.000 C 
ATOM      4  C   UNL     1      11.113  15.486  18.959  0.00  0.00    +0.000 C 
ATOM      5  C   UNL     1      11.882  15.004  17.748  0.00  0.00    +0.000 C 
ATOM      6  O   UNL     1      12.332  15.759  16.888  0.00  0.00    +0.000 OA
ATOM      7  C   UNL     1      12.056  13.510  17.645  0.00  0.00    +0.000 C 
ATOM      8  C   UNL     1      10.939  12.959  18.190  0.00  0.00    +0.000 C 
ATOM      9  C   UNL     1       9.680  13.219  17.460  0.00  0.00    +0.000 C 
ATOM     10  C   UNL     1       8.550  13.679  18.048  0.00  0.00    +0.000 C 
ATOM     11  C   UNL     1       8.320  13.639  19.557  0.00  0.00    +0.000 C 
ATOM     12  C   UNL     1       9.313  12.564  20.059  0.00  0.00    +0.000 C 
ATOM     13  C   UNL     1       8.790  12.088  21.396  0.00  0.00    +0.000 C 
ATOM     14  C   UNL     1       8.694  13.031  22.338  0.00  0.00    +0.000 C 
ATOM     15  C   UNL     1       7.780  14.251  22.127  0.00  0.00    +0.000 C 
ATOM     16  C   UNL     1       6.272  13.913  22.197  0.00  0.00    +0.000 C 
ATOM     17  C   UNL     1       7.980  14.830  20.645  0.00  0.00    +0.000 C 
ATOM     18  C   UNL     1       8.653  16.201  20.874  0.00  0.00    +0.000 C 
ATOM     19  C   UNL     1       8.903  16.449  22.365  0.00  0.00    +0.000 C 
ATOM     20  C   UNL     1       8.206  15.363  23.176  0.00  0.00    +0.000 C 
ATOM     21  C   UNL     1       7.196  15.900  24.188  0.00  0.00    +0.000 C 
ATOM     22  C   UNL     1       7.170  14.844  25.259  0.00  0.00    +0.000 C 
ATOM     23  C   UNL     1       8.589  14.390  25.267  0.00  0.00    +0.000 C 
ATOM     24  O   UNL     1       9.153  13.728  26.113  0.00  0.00    +0.000 OA
ATOM     25  O   UNL     1       9.211  14.860  24.123  0.00  0.00    +0.000 OA
ENDROOT
TORSDOF 0
ENDMDL
MODEL 9
REMARK VINA RESULT:      -6.0      8.517     11.387
REMARK  Name = 
REMARK  2 active torsions:
REMARK  status: ('A' for Active; 'I' for Inactive)
REMARK    1  A    between atoms: C_1  and  C_2
REMARK    2  A    between atoms: C_15  and  C_16
REMARK                            x       y       z     vdW  Elec       q    Type
REMARK                         _______ _______ _______ _____ _____    ______ ____
ROOT
ATOM      1  C   UNL     1       6.400  13.091  23.206  0.00  0.00    +0.000 C 
ATOM      2  C   UNL     1       7.222  14.329  22.798  0.00  0.00    +0.000 C 
ATOM      3  C   UNL     1       6.626  14.895  21.461  0.00  0.00    +0.000 C 
ATOM      4  C   UNL     1       6.620  16.456  21.363  0.00  0.00    +0.000 C 
ATOM      5  C   UNL     1       5.900  17.046  22.556  0.00  0.00    +0.000 C 
ATOM      6  O   UNL     1       5.358  18.149  22.542  0.00  0.00    +0.000 OA
ATOM      7  C   UNL     1       5.899  16.190  23.798  0.00  0.00    +0.000 C 
ATOM      8  C   UNL     1       7.077  15.512  23.793  0.00  0.00    +0.000 C 
ATOM      9  C   UNL     1       8.291  16.343  23.939  0.00  0.00    +0.000 C 
ATOM     10  C   UNL     1       9.366  16.257  23.119  0.00  0.00    +0.000 C 
ATOM     11  C   UNL     1       9.613  15.069  22.192  0.00  0.00    +0.000 C 
ATOM     12  C   UNL     1       8.755  13.934  22.799  0.00  0.00    +0.000 C 
ATOM     13  C   UNL     1       9.342  12.635  22.293  0.00  0.00    +0.000 C 
ATOM     14  C   UNL     1       9.338  12.488  20.965  0.00  0.00    +0.000 C 
ATOM     15  C   UNL     1      10.103  13.479  20.071  0.00  0.00    +0.000 C 
ATOM     16  C   UNL     1      11.640  13.334  20.162  0.00  0.00    +0.000 C 
ATOM     17  C   UNL     1       9.823  14.980  20.559  0.00  0.00    +0.000 C 
ATOM     18  C   UNL     1       9.000  15.594  19.406  0.00  0.00    +0.000 C 
ATOM     19  C   UNL     1       8.736  14.561  18.306  0.00  0.00    +0.000 C 
ATOM     20  C   UNL     1       9.562  13.310  18.587  0.00  0.00    +0.000 C 
ATOM     21  C   UNL     1      10.513  12.930  17.455  0.00  0.00    +0.000 C 
ATOM     22  C   UNL     1      10.671  11.442  17.608  0.00  0.00    +0.000 C 
ATOM     23  C   UNL     1       9.314  11.043  18.076  0.00  0.00    +0.000 C 
ATOM     24  O   UNL     1       8.838   9.928  18.112  0.00  0.00    +0.000 OA
ATOM     25  O   UNL     1       8.631  12.180  18.475  0.00  0.00    +0.000 OA
ENDROOT
TORSDOF 0
ENDMDL
