MODEL 1
REMARK VINA RESULT:      -6.6      0.000      0.000
REMARK  Name = 
REMARK  7 active torsions:
REMARK  status: ('A' for Active; 'I' for Inactive)
REMARK    1  A    between atoms: C_1  and  C_2
REMARK    2  A    between atoms: C_5  and  C_6
REMARK    3  A    between atoms: C_6  and  C_7
REMARK    4  A    between atoms: C_7  and  N_8
REMARK    5  A    between atoms: C_9  and  C_11
REMARK    6  A    between atoms: N_15  and  C_16
REMARK    7  A    between atoms: C_16  and  C_17
REMARK                            x       y       z     vdW  Elec       q    Type
REMARK                         _______ _______ _______ _____ _____    ______ ____
ROOT
ATOM      1  C   UNL     1       1.724   3.823  18.450  0.00  0.00    +0.000 C 
ATOM      2  C   UNL     1       3.178   3.898  18.729  0.00  0.00    +0.000 A 
ATOM      3  C   UNL     1       3.941   3.090  19.542  0.00  0.00    +0.000 A 
ATOM      4  N   UNL     1       5.241   3.489  19.548  0.00  0.00    +0.000 NA
ATOM      5  C   UNL     1       5.300   4.556  18.778  0.00  0.00    +0.000 A 
ATOM      6  N   UNL     1       4.062   4.836  18.225  0.00  0.00    +0.000 N 
ENDROOT
BRANCH   5   7
ATOM      7  C   UNL     1       6.541   5.350  18.539  0.00  0.00    +0.000 C 
BRANCH   7   8
ATOM      8  C   UNL     1       7.525   4.601  17.633  0.00  0.00    +0.000 C 
BRANCH   8   9
ATOM      9  N   UNL     1       7.378   4.955  16.228  0.00  0.00    +0.000 N 
ATOM     10  C   UNL     1       6.543   4.249  15.385  0.00  0.00    +0.000 C 
ATOM     11  O   UNL     1       5.912   3.268  15.771  0.00  0.00    +0.000 OA
ATOM     12  H   UNL     1       7.842   5.788  15.895  0.00  0.00    +0.000 HD
BRANCH  10  13
ATOM     13  C   UNL     1       6.490   4.800  13.935  0.00  0.00    +0.000 C 
ATOM     14  C   UNL     1       7.838   5.261  13.314  0.00  0.00    +0.000 C 
ATOM     15  C   UNL     1       7.336   4.698  11.971  0.00  0.00    +0.000 C 
ATOM     16  C   UNL     1       6.430   3.756  12.785  0.00  0.00    +0.000 C 
ENDBRANCH  10  13
ENDBRANCH   8   9
ENDBRANCH   7   8
ENDBRANCH   5   7
BRANCH   6  17
ATOM     17  C   UNL     1       3.714   6.000  17.406  0.00  0.00    +0.000 C 
BRANCH  17  18
ATOM     18  C   UNL     1       3.515   7.286  18.167  0.00  0.00    +0.000 C 
ATOM     19  C   UNL     1       2.457   8.257  17.687  0.00  0.00    +0.000 C 
ATOM     20  C   UNL     1       2.266   7.534  18.983  0.00  0.00    +0.000 C 
ENDBRANCH  17  18
ENDBRANCH   6  17
TORSDOF 6
ENDMDL
MODEL 2
REMARK VINA RESULT:      -6.3      1.726      2.069
REMARK  Name = 
REMARK  7 active torsions:
REMARK  status: ('A' for Active; 'I' for Inactive)
REMARK    1  A    between atoms: C_1  and  C_2
REMARK    2  A    between atoms: C_5  and  C_6
REMARK    3  A    between atoms: C_6  and  C_7
REMARK    4  A    between atoms: C_7  and  N_8
REMARK    5  A    between atoms: C_9  and  C_11
REMARK    6  A    between atoms: N_15  and  C_16
REMARK    7  A    between atoms: C_16  and  C_17
REMARK                            x       y       z     vdW  Elec       q    Type
REMARK                         _______ _______ _______ _____ _____    ______ ____
ROOT
ATOM      1  C   UNL     1       1.298   3.041  18.390  0.00  0.00    +0.000 C 
ATOM      2  C   UNL     1       2.655   3.512  18.025  0.00  0.00    +0.000 A 
ATOM      3  C   UNL     1       3.769   2.768  17.708  0.00  0.00    +0.000 A 
ATOM      4  N   UNL     1       4.835   3.570  17.442  0.00  0.00    +0.000 NA
ATOM      5  C   UNL     1       4.416   4.806  17.620  0.00  0.00    +0.000 A 
ATOM      6  N   UNL     1       3.073   4.831  17.954  0.00  0.00    +0.000 N 
ENDROOT
BRANCH   5   7
ATOM      7  C   UNL     1       5.283   6.013  17.478  0.00  0.00    +0.000 C 
BRANCH   7   8
ATOM      8  C   UNL     1       5.484   6.394  16.007  0.00  0.00    +0.000 C 
BRANCH   8   9
ATOM      9  N   UNL     1       5.399   5.248  15.112  0.00  0.00    +0.000 N 
ATOM     10  C   UNL     1       6.495   4.797  14.404  0.00  0.00    +0.000 C 
ATOM     11  O   UNL     1       7.585   5.362  14.468  0.00  0.00    +0.000 OA
ATOM     12  H   UNL     1       4.532   4.731  15.080  0.00  0.00    +0.000 HD
BRANCH  10  13
ATOM     13  C   UNL     1       6.218   3.542  13.535  0.00  0.00    +0.000 C 
ATOM     14  C   UNL     1       4.856   3.498  12.788  0.00  0.00    +0.000 C 
ATOM     15  C   UNL     1       5.594   2.820  11.619  0.00  0.00    +0.000 C 
ATOM     16  C   UNL     1       6.879   3.498  12.129  0.00  0.00    +0.000 C 
ENDBRANCH  10  13
ENDBRANCH   8   9
ENDBRANCH   7   8
ENDBRANCH   5   7
BRANCH   6  17
ATOM     17  C   UNL     1       2.287   6.008  18.329  0.00  0.00    +0.000 C 
BRANCH  17  18
ATOM     18  C   UNL     1       2.544   6.538  19.716  0.00  0.00    +0.000 C 
ATOM     19  C   UNL     1       1.856   7.818  20.144  0.00  0.00    +0.000 C 
ATOM     20  C   UNL     1       1.468   6.520  20.779  0.00  0.00    +0.000 C 
ENDBRANCH  17  18
ENDBRANCH   6  17
TORSDOF 6
ENDMDL
MODEL 3
REMARK VINA RESULT:      -6.2      1.618      3.175
REMARK  Name = 
REMARK  7 active torsions:
REMARK  status: ('A' for Active; 'I' for Inactive)
REMARK    1  A    between atoms: C_1  and  C_2
REMARK    2  A    between atoms: C_5  and  C_6
REMARK    3  A    between atoms: C_6  and  C_7
REMARK    4  A    between atoms: C_7  and  N_8
REMARK    5  A    between atoms: C_9  and  C_11
REMARK    6  A    between atoms: N_15  and  C_16
REMARK    7  A    between atoms: C_16  and  C_17
REMARK                            x       y       z     vdW  Elec       q    Type
REMARK                         _______ _______ _______ _____ _____    ______ ____
ROOT
ATOM      1  C   UNL     1       4.663   2.419  19.961  0.00  0.00    +0.000 C 
ATOM      2  C   UNL     1       4.219   3.333  18.882  0.00  0.00    +0.000 A 
ATOM      3  C   UNL     1       3.392   3.066  17.814  0.00  0.00    +0.000 A 
ATOM      4  N   UNL     1       3.231   4.168  17.032  0.00  0.00    +0.000 NA
ATOM      5  C   UNL     1       3.971   5.113  17.575  0.00  0.00    +0.000 A 
ATOM      6  N   UNL     1       4.580   4.661  18.732  0.00  0.00    +0.000 N 
ENDROOT
BRANCH   5   7
ATOM      7  C   UNL     1       4.125   6.485  17.008  0.00  0.00    +0.000 C 
BRANCH   7   8
ATOM      8  C   UNL     1       5.249   6.542  15.966  0.00  0.00    +0.000 C 
BRANCH   8   9
ATOM      9  N   UNL     1       5.240   5.399  15.064  0.00  0.00    +0.000 N 
ATOM     10  C   UNL     1       6.407   4.875  14.546  0.00  0.00    +0.000 C 
ATOM     11  O   UNL     1       7.505   5.368  14.793  0.00  0.00    +0.000 OA
ATOM     12  H   UNL     1       4.358   4.939  14.886  0.00  0.00    +0.000 HD
BRANCH  10  13
ATOM     13  C   UNL     1       6.197   3.635  13.636  0.00  0.00    +0.000 C 
ATOM     14  C   UNL     1       4.862   3.569  12.844  0.00  0.00    +0.000 C 
ATOM     15  C   UNL     1       5.659   2.944  11.684  0.00  0.00    +0.000 C 
ATOM     16  C   UNL     1       6.904   3.648  12.252  0.00  0.00    +0.000 C 
ENDBRANCH  10  13
ENDBRANCH   8   9
ENDBRANCH   7   8
ENDBRANCH   5   7
BRANCH   6  17
ATOM     17  C   UNL     1       5.556   5.388  19.547  0.00  0.00    +0.000 C 
BRANCH  17  18
ATOM     18  C   UNL     1       6.804   5.822  18.822  0.00  0.00    +0.000 C 
ATOM     19  C   UNL     1       8.151   5.460  19.414  0.00  0.00    +0.000 C 
ATOM     20  C   UNL     1       7.707   4.818  18.138  0.00  0.00    +0.000 C 
ENDBRANCH  17  18
ENDBRANCH   6  17
TORSDOF 6
ENDMDL
MODEL 4
REMARK VINA RESULT:      -6.2      1.425      2.951
REMARK  Name = 
REMARK  7 active torsions:
REMARK  status: ('A' for Active; 'I' for Inactive)
REMARK    1  A    between atoms: C_1  and  C_2
REMARK    2  A    between atoms: C_5  and  C_6
REMARK    3  A    between atoms: C_6  and  C_7
REMARK    4  A    between atoms: C_7  and  N_8
REMARK    5  A    between atoms: C_9  and  C_11
REMARK    6  A    between atoms: N_15  and  C_16
REMARK    7  A    between atoms: C_16  and  C_17
REMARK                            x       y       z     vdW  Elec       q    Type
REMARK                         _______ _______ _______ _____ _____    ______ ____
ROOT
ATOM      1  C   UNL     1       1.865   7.355  18.295  0.00  0.00    +0.000 C 
ATOM      2  C   UNL     1       3.267   6.928  18.075  0.00  0.00    +0.000 A 
ATOM      3  C   UNL     1       4.165   7.372  17.132  0.00  0.00    +0.000 A 
ATOM      4  N   UNL     1       5.355   6.723  17.243  0.00  0.00    +0.000 NA
ATOM      5  C   UNL     1       5.207   5.854  18.223  0.00  0.00    +0.000 A 
ATOM      6  N   UNL     1       3.948   5.956  18.788  0.00  0.00    +0.000 N 
ENDROOT
BRANCH   5   7
ATOM      7  C   UNL     1       6.263   4.892  18.655  0.00  0.00    +0.000 C 
BRANCH   7   8
ATOM      8  C   UNL     1       7.316   4.680  17.562  0.00  0.00    +0.000 C 
BRANCH   8   9
ATOM      9  N   UNL     1       6.785   3.992  16.393  0.00  0.00    +0.000 N 
ATOM     10  C   UNL     1       6.976   4.478  15.115  0.00  0.00    +0.000 C 
ATOM     11  O   UNL     1       7.574   5.531  14.906  0.00  0.00    +0.000 OA
ATOM     12  H   UNL     1       6.336   3.098  16.529  0.00  0.00    +0.000 HD
BRANCH  10  13
ATOM     13  C   UNL     1       6.370   3.587  13.999  0.00  0.00    +0.000 C 
ATOM     14  C   UNL     1       4.961   3.986  13.477  0.00  0.00    +0.000 C 
ATOM     15  C   UNL     1       5.432   3.556  12.075  0.00  0.00    +0.000 C 
ATOM     16  C   UNL     1       6.869   3.836  12.548  0.00  0.00    +0.000 C 
ENDBRANCH  10  13
ENDBRANCH   8   9
ENDBRANCH   7   8
ENDBRANCH   5   7
BRANCH   6  17
ATOM     17  C   UNL     1       3.383   5.088  19.824  0.00  0.00    +0.000 C 
BRANCH  17  18
ATOM     18  C   UNL     1       2.438   4.024  19.327  0.00  0.00    +0.000 C 
ATOM     19  C   UNL     1       2.217   2.792  20.180  0.00  0.00    +0.000 C 
ATOM     20  C   UNL     1       1.106   3.777  20.001  0.00  0.00    +0.000 C 
ENDBRANCH  17  18
ENDBRANCH   6  17
TORSDOF 6
ENDMDL
MODEL 5
REMARK VINA RESULT:      -6.1      2.056      6.250
REMARK  Name = 
REMARK  7 active torsions:
REMARK  status: ('A' for Active; 'I' for Inactive)
REMARK    1  A    between atoms: C_1  and  C_2
REMARK    2  A    between atoms: C_5  and  C_6
REMARK    3  A    between atoms: C_6  and  C_7
REMARK    4  A    between atoms: C_7  and  N_8
REMARK    5  A    between atoms: C_9  and  C_11
REMARK    6  A    between atoms: N_15  and  C_16
REMARK    7  A    between atoms: C_16  and  C_17
REMARK                            x       y       z     vdW  Elec       q    Type
REMARK                         _______ _______ _______ _____ _____    ______ ____
ROOT
ATOM      1  C   UNL     1       7.441   6.818  17.445  0.00  0.00    +0.000 C 
ATOM      2  C   UNL     1       6.452   5.849  17.974  0.00  0.00    +0.000 A 
ATOM      3  C   UNL     1       6.287   5.407  19.267  0.00  0.00    +0.000 A 
ATOM      4  N   UNL     1       5.273   4.503  19.350  0.00  0.00    +0.000 NA
ATOM      5  C   UNL     1       4.822   4.346  18.122  0.00  0.00    +0.000 A 
ATOM      6  N   UNL     1       5.494   5.172  17.238  0.00  0.00    +0.000 N 
ENDROOT
BRANCH   5   7
ATOM      7  C   UNL     1       3.730   3.401  17.745  0.00  0.00    +0.000 C 
BRANCH   7   8
ATOM      8  C   UNL     1       2.346   4.027  17.949  0.00  0.00    +0.000 C 
BRANCH   8   9
ATOM      9  N   UNL     1       2.414   5.389  18.461  0.00  0.00    +0.000 N 
ATOM     10  C   UNL     1       1.986   5.708  19.734  0.00  0.00    +0.000 C 
ATOM     11  O   UNL     1       1.497   4.865  20.484  0.00  0.00    +0.000 OA
ATOM     12  H   UNL     1       2.860   6.091  17.889  0.00  0.00    +0.000 HD
BRANCH  10  13
ATOM     13  C   UNL     1       2.174   7.201  20.113  0.00  0.00    +0.000 C 
ATOM     14  C   UNL     1       1.825   8.247  19.017  0.00  0.00    +0.000 C 
ATOM     15  C   UNL     1       1.278   9.144  20.143  0.00  0.00    +0.000 C 
ATOM     16  C   UNL     1       1.052   7.860  20.962  0.00  0.00    +0.000 C 
ENDBRANCH  10  13
ENDBRANCH   8   9
ENDBRANCH   7   8
ENDBRANCH   5   7
BRANCH   6  17
ATOM     17  C   UNL     1       5.343   5.200  15.781  0.00  0.00    +0.000 C 
BRANCH  17  18
ATOM     18  C   UNL     1       6.259   4.275  15.022  0.00  0.00    +0.000 C 
ATOM     19  C   UNL     1       5.889   3.888  13.605  0.00  0.00    +0.000 C 
ATOM     20  C   UNL     1       7.076   4.765  13.847  0.00  0.00    +0.000 C 
ENDBRANCH  17  18
ENDBRANCH   6  17
TORSDOF 6
ENDMDL
MODEL 6
REMARK VINA RESULT:      -6.1      2.845      3.927
REMARK  Name = 
REMARK  7 active torsions:
REMARK  status: ('A' for Active; 'I' for Inactive)
REMARK    1  A    between atoms: C_1  and  C_2
REMARK    2  A    between atoms: C_5  and  C_6
REMARK    3  A    between atoms: C_6  and  C_7
REMARK    4  A    between atoms: C_7  and  N_8
REMARK    5  A    between atoms: C_9  and  C_11
REMARK    6  A    between atoms: N_15  and  C_16
REMARK    7  A    between atoms: C_16  and  C_17
REMARK                            x       y       z     vdW  Elec       q    Type
REMARK                         _______ _______ _______ _____ _____    ______ ____
ROOT
ATOM      1  C   UNL     1       1.357   6.169  21.010  0.00  0.00    +0.000 C 
ATOM      2  C   UNL     1       1.496   4.800  20.460  0.00  0.00    +0.000 A 
ATOM      3  C   UNL     1       1.435   3.595  21.124  0.00  0.00    +0.000 A 
ATOM      4  N   UNL     1       1.625   2.554  20.269  0.00  0.00    +0.000 NA
ATOM      5  C   UNL     1       1.837   3.089  19.083  0.00  0.00    +0.000 A 
ATOM      6  N   UNL     1       1.742   4.468  19.138  0.00  0.00    +0.000 N 
ENDROOT
BRANCH   5   7
ATOM      7  C   UNL     1       2.138   2.302  17.851  0.00  0.00    +0.000 C 
BRANCH   7   8
ATOM      8  C   UNL     1       3.625   1.942  17.761  0.00  0.00    +0.000 C 
BRANCH   8   9
ATOM      9  N   UNL     1       4.477   3.109  17.573  0.00  0.00    +0.000 N 
ATOM     10  C   UNL     1       5.225   3.636  18.606  0.00  0.00    +0.000 C 
ATOM     11  O   UNL     1       5.181   3.168  19.742  0.00  0.00    +0.000 OA
ATOM     12  H   UNL     1       4.575   3.482  16.639  0.00  0.00    +0.000 HD
BRANCH  10  13
ATOM     13  C   UNL     1       6.098   4.853  18.202  0.00  0.00    +0.000 C 
ATOM     14  C   UNL     1       6.705   5.691  19.362  0.00  0.00    +0.000 C 
ATOM     15  C   UNL     1       7.962   5.866  18.489  0.00  0.00    +0.000 C 
ATOM     16  C   UNL     1       7.565   4.560  17.779  0.00  0.00    +0.000 C 
ENDBRANCH  10  13
ENDBRANCH   8   9
ENDBRANCH   7   8
ENDBRANCH   5   7
BRANCH   6  17
ATOM     17  C   UNL     1       2.018   5.407  18.049  0.00  0.00    +0.000 C 
BRANCH  17  18
ATOM     18  C   UNL     1       2.886   6.583  18.418  0.00  0.00    +0.000 C 
ATOM     19  C   UNL     1       3.716   7.242  17.336  0.00  0.00    +0.000 C 
ATOM     20  C   UNL     1       2.564   7.981  17.938  0.00  0.00    +0.000 C 
ENDBRANCH  17  18
ENDBRANCH   6  17
TORSDOF 6
ENDMDL
MODEL 7
REMARK VINA RESULT:      -6.1      1.918      5.956
REMARK  Name = 
REMARK  7 active torsions:
REMARK  status: ('A' for Active; 'I' for Inactive)
REMARK    1  A    between atoms: C_1  and  C_2
REMARK    2  A    between atoms: C_5  and  C_6
REMARK    3  A    between atoms: C_6  and  C_7
REMARK    4  A    between atoms: C_7  and  N_8
REMARK    5  A    between atoms: C_9  and  C_11
REMARK    6  A    between atoms: N_15  and  C_16
REMARK    7  A    between atoms: C_16  and  C_17
REMARK                            x       y       z     vdW  Elec       q    Type
REMARK                         _______ _______ _______ _____ _____    ______ ____
ROOT
ATOM      1  C   UNL     1       7.847   5.141  18.060  0.00  0.00    +0.000 C 
ATOM      2  C   UNL     1       6.445   5.447  18.430  0.00  0.00    +0.000 A 
ATOM      3  C   UNL     1       5.775   5.141  19.593  0.00  0.00    +0.000 A 
ATOM      4  N   UNL     1       4.488   5.582  19.548  0.00  0.00    +0.000 NA
ATOM      5  C   UNL     1       4.332   6.131  18.361  0.00  0.00    +0.000 A 
ATOM      6  N   UNL     1       5.513   6.100  17.641  0.00  0.00    +0.000 N 
ENDROOT
BRANCH   5   7
ATOM      7  C   UNL     1       3.046   6.708  17.868  0.00  0.00    +0.000 C 
BRANCH   7   8
ATOM      8  C   UNL     1       2.004   5.616  17.599  0.00  0.00    +0.000 C 
BRANCH   8   9
ATOM      9  N   UNL     1       1.885   4.668  18.698  0.00  0.00    +0.000 N 
ATOM     10  C   UNL     1       1.935   3.304  18.489  0.00  0.00    +0.000 C 
ATOM     11  O   UNL     1       2.047   2.825  17.363  0.00  0.00    +0.000 OA
ATOM     12  H   UNL     1       1.846   5.032  19.640  0.00  0.00    +0.000 HD
BRANCH  10  13
ATOM     13  C   UNL     1       1.830   2.458  19.786  0.00  0.00    +0.000 C 
ATOM     14  C   UNL     1       3.053   2.495  20.743  0.00  0.00    +0.000 C 
ATOM     15  C   UNL     1       2.054   2.448  21.914  0.00  0.00    +0.000 C 
ATOM     16  C   UNL     1       1.015   3.067  20.962  0.00  0.00    +0.000 C 
ENDBRANCH  10  13
ENDBRANCH   8   9
ENDBRANCH   7   8
ENDBRANCH   5   7
BRANCH   6  17
ATOM     17  C   UNL     1       5.700   6.518  16.250  0.00  0.00    +0.000 C 
BRANCH  17  18
ATOM     18  C   UNL     1       5.296   5.502  15.213  0.00  0.00    +0.000 C 
ATOM     19  C   UNL     1       6.381   4.729  14.492  0.00  0.00    +0.000 C 
ATOM     20  C   UNL     1       5.478   4.019  15.450  0.00  0.00    +0.000 C 
ENDBRANCH  17  18
ENDBRANCH   6  17
TORSDOF 6
ENDMDL
MODEL 8
REMARK VINA RESULT:      -6.0      1.436      1.727
REMARK  Name = 
REMARK  7 active torsions:
REMARK  status: ('A' for Active; 'I' for Inactive)
REMARK    1  A    between atoms: C_1  and  C_2
REMARK    2  A    between atoms: C_5  and  C_6
REMARK    3  A    between atoms: C_6  and  C_7
REMARK    4  A    between atoms: C_7  and  N_8
REMARK    5  A    between atoms: C_9  and  C_11
REMARK    6  A    between atoms: N_15  and  C_16
REMARK    7  A    between atoms: C_16  and  C_17
REMARK                            x       y       z     vdW  Elec       q    Type
REMARK                         _______ _______ _______ _____ _____    ______ ____
ROOT
ATOM      1  C   UNL     1       1.355   3.025  20.650  0.00  0.00    +0.000 C 
ATOM      2  C   UNL     1       2.694   3.298  20.076  0.00  0.00    +0.000 A 
ATOM      3  C   UNL     1       3.836   2.533  20.152  0.00  0.00    +0.000 A 
ATOM      4  N   UNL     1       4.872   3.132  19.505  0.00  0.00    +0.000 NA
ATOM      5  C   UNL     1       4.406   4.278  19.052  0.00  0.00    +0.000 A 
ATOM      6  N   UNL     1       3.063   4.420  19.352  0.00  0.00    +0.000 N 
ENDROOT
BRANCH   5   7
ATOM      7  C   UNL     1       5.227   5.283  18.314  0.00  0.00    +0.000 C 
BRANCH   7   8
ATOM      8  C   UNL     1       6.658   4.783  18.084  0.00  0.00    +0.000 C 
BRANCH   8   9
ATOM      9  N   UNL     1       6.844   4.197  16.764  0.00  0.00    +0.000 N 
ATOM     10  C   UNL     1       6.811   4.964  15.617  0.00  0.00    +0.000 C 
ATOM     11  O   UNL     1       6.589   6.172  15.653  0.00  0.00    +0.000 OA
ATOM     12  H   UNL     1       7.081   3.217  16.707  0.00  0.00    +0.000 HD
BRANCH  10  13
ATOM     13  C   UNL     1       7.068   4.167  14.311  0.00  0.00    +0.000 C 
ATOM     14  C   UNL     1       5.814   3.729  13.504  0.00  0.00    +0.000 C 
ATOM     15  C   UNL     1       6.626   4.002  12.223  0.00  0.00    +0.000 C 
ATOM     16  C   UNL     1       7.471   4.986  13.053  0.00  0.00    +0.000 C 
ENDBRANCH  10  13
ENDBRANCH   8   9
ENDBRANCH   7   8
ENDBRANCH   5   7
BRANCH   6  17
ATOM     17  C   UNL     1       2.232   5.601  19.106  0.00  0.00    +0.000 C 
BRANCH  17  18
ATOM     18  C   UNL     1       2.422   6.735  20.080  0.00  0.00    +0.000 C 
ATOM     19  C   UNL     1       1.820   8.085  19.749  0.00  0.00    +0.000 C 
ATOM     20  C   UNL     1       1.264   7.285  20.884  0.00  0.00    +0.000 C 
ENDBRANCH  17  18
ENDBRANCH   6  17
TORSDOF 6
ENDMDL
MODEL 9
REMARK VINA RESULT:      -6.0      1.525      1.823
REMARK  Name = 
REMARK  7 active torsions:
REMARK  status: ('A' for Active; 'I' for Inactive)
REMARK    1  A    between atoms: C_1  and  C_2
REMARK    2  A    between atoms: C_5  and  C_6
REMARK    3  A    between atoms: C_6  and  C_7
REMARK    4  A    between atoms: C_7  and  N_8
REMARK    5  A    between atoms: C_9  and  C_11
REMARK    6  A    between atoms: N_15  and  C_16
REMARK    7  A    between atoms: C_16  and  C_17
REMARK                            x       y       z     vdW  Elec       q    Type
REMARK                         _______ _______ _______ _____ _____    ______ ____
ROOT
ATOM      1  C   UNL     1       1.085   3.169  18.682  0.00  0.00    +0.000 C 
ATOM      2  C   UNL     1       2.544   3.338  18.886  0.00  0.00    +0.000 A 
ATOM      3  C   UNL     1       3.526   2.374  18.915  0.00  0.00    +0.000 A 
ATOM      4  N   UNL     1       4.749   2.926  19.141  0.00  0.00    +0.000 NA
ATOM      5  C   UNL     1       4.543   4.220  19.287  0.00  0.00    +0.000 A 
ATOM      6  N   UNL     1       3.207   4.532  19.113  0.00  0.00    +0.000 N 
ENDROOT
BRANCH   5   7
ATOM      7  C   UNL     1       5.618   5.208  19.600  0.00  0.00    +0.000 C 
BRANCH   7   8
ATOM      8  C   UNL     1       6.910   4.897  18.835  0.00  0.00    +0.000 C 
BRANCH   8   9
ATOM      9  N   UNL     1       6.673   4.584  17.433  0.00  0.00    +0.000 N 
ATOM     10  C   UNL     1       7.090   5.426  16.421  0.00  0.00    +0.000 C 
ATOM     11  O   UNL     1       7.649   6.494  16.656  0.00  0.00    +0.000 OA
ATOM     12  H   UNL     1       6.264   3.689  17.206  0.00  0.00    +0.000 HD
BRANCH  10  13
ATOM     13  C   UNL     1       6.782   4.903  14.992  0.00  0.00    +0.000 C 
ATOM     14  C   UNL     1       6.155   3.485  14.889  0.00  0.00    +0.000 C 
ATOM     15  C   UNL     1       5.315   4.016  13.711  0.00  0.00    +0.000 C 
ATOM     16  C   UNL     1       5.482   5.421  14.317  0.00  0.00    +0.000 C 
ENDBRANCH  10  13
ENDBRANCH   8   9
ENDBRANCH   7   8
ENDBRANCH   5   7
BRANCH   6  17
ATOM     17  C   UNL     1       2.584   5.844  19.303  0.00  0.00    +0.000 C 
BRANCH  17  18
ATOM     18  C   UNL     1       2.411   6.662  18.049  0.00  0.00    +0.000 C 
ATOM     19  C   UNL     1       2.525   8.169  18.143  0.00  0.00    +0.000 C 
ATOM     20  C   UNL     1       3.577   7.391  17.417  0.00  0.00    +0.000 C 
ENDBRANCH  17  18
ENDBRANCH   6  17
TORSDOF 6
ENDMDL
