MODEL 1
REMARK VINA RESULT:      -6.0      0.000      0.000
REMARK  Name = 
REMARK  7 active torsions:
REMARK  status: ('A' for Active; 'I' for Inactive)
REMARK    1  A    between atoms: C_2  and  O_3
REMARK    2  A    between atoms: C_2  and  C_4
REMARK    3  A    between atoms: C_4  and  N_5
REMARK    4  A    between atoms: N_5  and  C_6
REMARK    5  A    between atoms: C_6  and  C_7
REMARK    6  A    between atoms: C_7  and  S_8
REMARK    7  A    between atoms: S_8  and  C_9
REMARK                            x       y       z     vdW  Elec       q    Type
REMARK                         _______ _______ _______ _____ _____    ______ ____
ROOT
ATOM      1  C   UNL     1       4.581   5.746  18.293  0.00  0.00    +0.000 C 
ENDROOT
BRANCH   1   2
ATOM      2  C   UNL     1       5.872   5.212  18.932  0.00  0.00    +0.000 C 
BRANCH   2   3
ATOM      3  N   UNL     1       6.428   4.053  18.196  0.00  0.00    +0.000 NA
ATOM      4  H   UNL     1       6.823   3.409  18.891  0.00  0.00    +0.000 HD
BRANCH   3   5
ATOM      5  C   UNL     1       7.554   4.534  17.346  0.00  0.00    +0.000 C 
BRANCH   5   7
ATOM      6  O   UNL     1       7.291   5.466  15.105  0.00  0.00    +0.000 OA
ATOM      7  C   UNL     1       7.127   4.532  15.875  0.00  0.00    +0.000 C 
BRANCH   7   8
ATOM      8  O   UNL     1       6.504   3.376  15.538  0.00  0.00    +0.000 OA
ATOM      9  H   UNL     1       6.024   3.058  16.341  0.00  0.00    +0.000 HD
ENDBRANCH   7   8
ENDBRANCH   5   7
ENDBRANCH   3   5
ENDBRANCH   2   3
ENDBRANCH   1   2
BRANCH   1  10
ATOM     10  S   UNL     1       3.643   4.346  17.575  0.00  0.00    +0.000 S 
BRANCH  10  11
ATOM     11  C   UNL     1       2.802   3.746  19.027  0.00  0.00    +0.000 A 
ATOM     12  C   UNL     1       3.462   2.955  19.976  0.00  0.00    +0.000 A 
ATOM     13  C   UNL     1       2.787   2.515  21.117  0.00  0.00    +0.000 A 
ATOM     14  C   UNL     1       1.458   2.875  21.309  0.00  0.00    +0.000 A 
ATOM     15  F   UNL     1       0.811   2.449  22.403  0.00  0.00    +0.000 F 
ATOM     16  C   UNL     1       0.793   3.674  20.387  0.00  0.00    +0.000 A 
ATOM     17  C   UNL     1       1.468   4.115  19.247  0.00  0.00    +0.000 A 
ENDBRANCH  10  11
ENDBRANCH   1  10
TORSDOF 7
ENDMDL
MODEL 2
REMARK VINA RESULT:      -6.0      1.905      2.417
REMARK  Name = 
REMARK  7 active torsions:
REMARK  status: ('A' for Active; 'I' for Inactive)
REMARK    1  A    between atoms: C_2  and  O_3
REMARK    2  A    between atoms: C_2  and  C_4
REMARK    3  A    between atoms: C_4  and  N_5
REMARK    4  A    between atoms: N_5  and  C_6
REMARK    5  A    between atoms: C_6  and  C_7
REMARK    6  A    between atoms: C_7  and  S_8
REMARK    7  A    between atoms: S_8  and  C_9
REMARK                            x       y       z     vdW  Elec       q    Type
REMARK                         _______ _______ _______ _____ _____    ______ ____
ROOT
ATOM      1  C   UNL     1       4.231   5.193  17.326  0.00  0.00    +0.000 C 
ENDROOT
BRANCH   1   2
ATOM      2  C   UNL     1       5.247   5.370  18.465  0.00  0.00    +0.000 C 
BRANCH   2   3
ATOM      3  N   UNL     1       6.281   4.309  18.470  0.00  0.00    +0.000 NA
ATOM      4  H   UNL     1       6.396   3.996  19.440  0.00  0.00    +0.000 HD
BRANCH   3   5
ATOM      5  C   UNL     1       7.575   4.914  18.043  0.00  0.00    +0.000 C 
BRANCH   5   7
ATOM      6  O   UNL     1       8.287   7.147  18.729  0.00  0.00    +0.000 OA
ATOM      7  C   UNL     1       7.988   6.003  19.039  0.00  0.00    +0.000 C 
BRANCH   7   8
ATOM      8  O   UNL     1       8.020   5.532  20.309  0.00  0.00    +0.000 OA
ATOM      9  H   UNL     1       8.752   4.870  20.357  0.00  0.00    +0.000 HD
ENDBRANCH   7   8
ENDBRANCH   5   7
ENDBRANCH   3   5
ENDBRANCH   2   3
ENDBRANCH   1   2
BRANCH   1  10
ATOM     10  S   UNL     1       3.748   3.429  17.223  0.00  0.00    +0.000 S 
BRANCH  10  11
ATOM     11  C   UNL     1       2.858   3.249  18.755  0.00  0.00    +0.000 A 
ATOM     12  C   UNL     1       1.544   3.716  18.892  0.00  0.00    +0.000 A 
ATOM     13  C   UNL     1       0.860   3.543  20.097  0.00  0.00    +0.000 A 
ATOM     14  C   UNL     1       1.486   2.897  21.157  0.00  0.00    +0.000 A 
ATOM     15  F   UNL     1       0.829   2.735  22.313  0.00  0.00    +0.000 F 
ATOM     16  C   UNL     1       2.782   2.411  21.031  0.00  0.00    +0.000 A 
ATOM     17  C   UNL     1       3.467   2.582  19.826  0.00  0.00    +0.000 A 
ENDBRANCH  10  11
ENDBRANCH   1  10
TORSDOF 7
ENDMDL
MODEL 3
REMARK VINA RESULT:      -5.7      1.946      2.369
REMARK  Name = 
REMARK  7 active torsions:
REMARK  status: ('A' for Active; 'I' for Inactive)
REMARK    1  A    between atoms: C_2  and  O_3
REMARK    2  A    between atoms: C_2  and  C_4
REMARK    3  A    between atoms: C_4  and  N_5
REMARK    4  A    between atoms: N_5  and  C_6
REMARK    5  A    between atoms: C_6  and  C_7
REMARK    6  A    between atoms: C_7  and  S_8
REMARK    7  A    between atoms: S_8  and  C_9
REMARK                            x       y       z     vdW  Elec       q    Type
REMARK                         _______ _______ _______ _____ _____    ______ ____
ROOT
ATOM      1  C   UNL     1       5.976   4.676  17.987  0.00  0.00    +0.000 C 
ENDROOT
BRANCH   1   2
ATOM      2  C   UNL     1       6.946   5.751  17.473  0.00  0.00    +0.000 C 
BRANCH   2   3
ATOM      3  N   UNL     1       6.445   6.426  16.253  0.00  0.00    +0.000 NA
ATOM      4  H   UNL     1       5.726   7.097  16.546  0.00  0.00    +0.000 HD
BRANCH   3   5
ATOM      5  C   UNL     1       5.776   5.407  15.395  0.00  0.00    +0.000 C 
BRANCH   5   7
ATOM      6  O   UNL     1       7.746   5.441  13.953  0.00  0.00    +0.000 OA
ATOM      7  C   UNL     1       6.785   4.830  14.397  0.00  0.00    +0.000 C 
BRANCH   7   8
ATOM      8  O   UNL     1       6.460   3.566  14.033  0.00  0.00    +0.000 OA
ATOM      9  H   UNL     1       6.436   3.543  13.045  0.00  0.00    +0.000 HD
ENDBRANCH   7   8
ENDBRANCH   5   7
ENDBRANCH   3   5
ENDBRANCH   2   3
ENDBRANCH   1   2
BRANCH   1  10
ATOM     10  S   UNL     1       4.866   5.419  19.241  0.00  0.00    +0.000 S 
BRANCH  10  11
ATOM     11  C   UNL     1       3.428   4.384  19.051  0.00  0.00    +0.000 A 
ATOM     12  C   UNL     1       2.328   4.503  19.909  0.00  0.00    +0.000 A 
ATOM     13  C   UNL     1       1.204   3.695  19.726  0.00  0.00    +0.000 A 
ATOM     14  C   UNL     1       1.180   2.778  18.682  0.00  0.00    +0.000 A 
ATOM     15  F   UNL     1       0.102   2.001  18.510  0.00  0.00    +0.000 F 
ATOM     16  C   UNL     1       2.255   2.660  17.810  0.00  0.00    +0.000 A 
ATOM     17  C   UNL     1       3.379   3.469  17.991  0.00  0.00    +0.000 A 
ENDBRANCH  10  11
ENDBRANCH   1  10
TORSDOF 7
ENDMDL
MODEL 4
REMARK VINA RESULT:      -5.7      1.709      2.025
REMARK  Name = 
REMARK  7 active torsions:
REMARK  status: ('A' for Active; 'I' for Inactive)
REMARK    1  A    between atoms: C_2  and  O_3
REMARK    2  A    between atoms: C_2  and  C_4
REMARK    3  A    between atoms: C_4  and  N_5
REMARK    4  A    between atoms: N_5  and  C_6
REMARK    5  A    between atoms: C_6  and  C_7
REMARK    6  A    between atoms: C_7  and  S_8
REMARK    7  A    between atoms: S_8  and  C_9
REMARK                            x       y       z     vdW  Elec       q    Type
REMARK                         _______ _______ _______ _____ _____    ______ ____
ROOT
ATOM      1  C   UNL     1       4.683   5.922  16.765  0.00  0.00    +0.000 C 
ENDROOT
BRANCH   1   2
ATOM      2  C   UNL     1       5.755   5.305  17.676  0.00  0.00    +0.000 C 
BRANCH   2   3
ATOM      3  N   UNL     1       6.565   4.279  16.979  0.00  0.00    +0.000 NA
ATOM      4  H   UNL     1       7.450   4.720  16.706  0.00  0.00    +0.000 HD
BRANCH   3   5
ATOM      5  C   UNL     1       5.857   3.894  15.725  0.00  0.00    +0.000 C 
BRANCH   5   7
ATOM      6  O   UNL     1       7.456   5.257  14.481  0.00  0.00    +0.000 OA
ATOM      7  C   UNL     1       6.702   4.296  14.512  0.00  0.00    +0.000 C 
BRANCH   7   8
ATOM      8  O   UNL     1       6.482   3.474  13.457  0.00  0.00    +0.000 OA
ATOM      9  H   UNL     1       7.259   2.866  13.394  0.00  0.00    +0.000 HD
ENDBRANCH   7   8
ENDBRANCH   5   7
ENDBRANCH   3   5
ENDBRANCH   2   3
ENDBRANCH   1   2
BRANCH   1  10
ATOM     10  S   UNL     1       3.570   6.971  17.773  0.00  0.00    +0.000 S 
BRANCH  10  11
ATOM     11  C   UNL     1       2.614   5.718  18.605  0.00  0.00    +0.000 A 
ATOM     12  C   UNL     1       2.023   4.664  17.897  0.00  0.00    +0.000 A 
ATOM     13  C   UNL     1       1.297   3.682  18.575  0.00  0.00    +0.000 A 
ATOM     14  C   UNL     1       1.174   3.751  19.957  0.00  0.00    +0.000 A 
ATOM     15  F   UNL     1       0.474   2.810  20.606  0.00  0.00    +0.000 F 
ATOM     16  C   UNL     1       1.770   4.780  20.677  0.00  0.00    +0.000 A 
ATOM     17  C   UNL     1       2.497   5.761  20.000  0.00  0.00    +0.000 A 
ENDBRANCH  10  11
ENDBRANCH   1  10
TORSDOF 7
ENDMDL
MODEL 5
REMARK VINA RESULT:      -5.7      2.180      2.495
REMARK  Name = 
REMARK  7 active torsions:
REMARK  status: ('A' for Active; 'I' for Inactive)
REMARK    1  A    between atoms: C_2  and  O_3
REMARK    2  A    between atoms: C_2  and  C_4
REMARK    3  A    between atoms: C_4  and  N_5
REMARK    4  A    between atoms: N_5  and  C_6
REMARK    5  A    between atoms: C_6  and  C_7
REMARK    6  A    between atoms: C_7  and  S_8
REMARK    7  A    between atoms: S_8  and  C_9
REMARK                            x       y       z     vdW  Elec       q    Type
REMARK                         _______ _______ _______ _____ _____    ______ ____
ROOT
ATOM      1  C   UNL     1       4.339   4.078  16.589  0.00  0.00    +0.000 C 
ENDROOT
BRANCH   1   2
ATOM      2  C   UNL     1       5.864   4.180  16.427  0.00  0.00    +0.000 C 
BRANCH   2   3
ATOM      3  N   UNL     1       6.434   5.332  17.163  0.00  0.00    +0.000 NA
ATOM      4  H   UNL     1       6.899   5.937  16.476  0.00  0.00    +0.000 HD
BRANCH   3   5
ATOM      5  C   UNL     1       7.486   4.824  18.088  0.00  0.00    +0.000 C 
BRANCH   5   7
ATOM      6  O   UNL     1       8.185   7.074  18.729  0.00  0.00    +0.000 OA
ATOM      7  C   UNL     1       7.897   5.934  19.061  0.00  0.00    +0.000 C 
BRANCH   7   8
ATOM      8  O   UNL     1       7.943   5.485  20.339  0.00  0.00    +0.000 OA
ATOM      9  H   UNL     1       8.597   6.047  20.823  0.00  0.00    +0.000 HD
ENDBRANCH   7   8
ENDBRANCH   5   7
ENDBRANCH   3   5
ENDBRANCH   2   3
ENDBRANCH   1   2
BRANCH   1  10
ATOM     10  S   UNL     1       3.750   5.478  17.614  0.00  0.00    +0.000 S 
BRANCH  10  11
ATOM     11  C   UNL     1       2.834   4.598  18.863  0.00  0.00    +0.000 A 
ATOM     12  C   UNL     1       2.098   3.449  18.551  0.00  0.00    +0.000 A 
ATOM     13  C   UNL     1       1.405   2.764  19.552  0.00  0.00    +0.000 A 
ATOM     14  C   UNL     1       1.460   3.225  20.862  0.00  0.00    +0.000 A 
ATOM     15  F   UNL     1       0.792   2.569  21.821  0.00  0.00    +0.000 F 
ATOM     16  C   UNL     1       2.201   4.353  21.193  0.00  0.00    +0.000 A 
ATOM     17  C   UNL     1       2.895   5.037  20.192  0.00  0.00    +0.000 A 
ENDBRANCH  10  11
ENDBRANCH   1  10
TORSDOF 7
ENDMDL
MODEL 6
REMARK VINA RESULT:      -5.7      2.251      2.565
REMARK  Name = 
REMARK  7 active torsions:
REMARK  status: ('A' for Active; 'I' for Inactive)
REMARK    1  A    between atoms: C_2  and  O_3
REMARK    2  A    between atoms: C_2  and  C_4
REMARK    3  A    between atoms: C_4  and  N_5
REMARK    4  A    between atoms: N_5  and  C_6
REMARK    5  A    between atoms: C_6  and  C_7
REMARK    6  A    between atoms: C_7  and  S_8
REMARK    7  A    between atoms: S_8  and  C_9
REMARK                            x       y       z     vdW  Elec       q    Type
REMARK                         _______ _______ _______ _____ _____    ______ ____
ROOT
ATOM      1  C   UNL     1       4.613   5.486  17.689  0.00  0.00    +0.000 C 
ENDROOT
BRANCH   1   2
ATOM      2  C   UNL     1       5.283   6.284  16.559  0.00  0.00    +0.000 C 
BRANCH   2   3
ATOM      3  N   UNL     1       6.666   6.691  16.898  0.00  0.00    +0.000 NA
ATOM      4  H   UNL     1       7.168   6.837  16.015  0.00  0.00    +0.000 HD
BRANCH   3   5
ATOM      5  C   UNL     1       7.329   5.556  17.602  0.00  0.00    +0.000 C 
BRANCH   5   7
ATOM      6  O   UNL     1       7.462   5.412  20.036  0.00  0.00    +0.000 OA
ATOM      7  C   UNL     1       7.755   5.999  19.005  0.00  0.00    +0.000 C 
BRANCH   7   8
ATOM      8  O   UNL     1       8.468   7.151  18.970  0.00  0.00    +0.000 OA
ATOM      9  H   UNL     1       8.024   7.750  18.320  0.00  0.00    +0.000 HD
ENDBRANCH   7   8
ENDBRANCH   5   7
ENDBRANCH   3   5
ENDBRANCH   2   3
ENDBRANCH   1   2
BRANCH   1  10
ATOM     10  S   UNL     1       2.862   6.004  17.833  0.00  0.00    +0.000 S 
BRANCH  10  11
ATOM     11  C   UNL     1       2.302   4.893  19.108  0.00  0.00    +0.000 A 
ATOM     12  C   UNL     1       2.716   5.043  20.437  0.00  0.00    +0.000 A 
ATOM     13  C   UNL     1       2.246   4.172  21.422  0.00  0.00    +0.000 A 
ATOM     14  C   UNL     1       1.357   3.162  21.078  0.00  0.00    +0.000 A 
ATOM     15  F   UNL     1       0.909   2.325  22.023  0.00  0.00    +0.000 F 
ATOM     16  C   UNL     1       0.921   3.010  19.767  0.00  0.00    +0.000 A 
ATOM     17  C   UNL     1       1.389   3.881  18.781  0.00  0.00    +0.000 A 
ENDBRANCH  10  11
ENDBRANCH   1  10
TORSDOF 7
ENDMDL
MODEL 7
REMARK VINA RESULT:      -5.7      0.709      1.097
REMARK  Name = 
REMARK  7 active torsions:
REMARK  status: ('A' for Active; 'I' for Inactive)
REMARK    1  A    between atoms: C_2  and  O_3
REMARK    2  A    between atoms: C_2  and  C_4
REMARK    3  A    between atoms: C_4  and  N_5
REMARK    4  A    between atoms: N_5  and  C_6
REMARK    5  A    between atoms: C_6  and  C_7
REMARK    6  A    between atoms: C_7  and  S_8
REMARK    7  A    between atoms: S_8  and  C_9
REMARK                            x       y       z     vdW  Elec       q    Type
REMARK                         _______ _______ _______ _____ _____    ______ ____
ROOT
ATOM      1  C   UNL     1       4.282   5.665  18.093  0.00  0.00    +0.000 C 
ENDROOT
BRANCH   1   2
ATOM      2  C   UNL     1       5.656   5.407  18.730  0.00  0.00    +0.000 C 
BRANCH   2   3
ATOM      3  N   UNL     1       6.326   4.213  18.165  0.00  0.00    +0.000 NA
ATOM      4  H   UNL     1       6.608   3.617  18.951  0.00  0.00    +0.000 HD
BRANCH   3   5
ATOM      5  C   UNL     1       7.571   4.656  17.476  0.00  0.00    +0.000 C 
BRANCH   5   7
ATOM      6  O   UNL     1       6.586   5.413  15.374  0.00  0.00    +0.000 OA
ATOM      7  C   UNL     1       7.223   5.672  16.384  0.00  0.00    +0.000 C 
BRANCH   7   8
ATOM      8  O   UNL     1       7.743   6.894  16.655  0.00  0.00    +0.000 OA
ATOM      9  H   UNL     1       7.798   6.977  17.638  0.00  0.00    +0.000 HD
ENDBRANCH   7   8
ENDBRANCH   5   7
ENDBRANCH   3   5
ENDBRANCH   2   3
ENDBRANCH   1   2
BRANCH   1  10
ATOM     10  S   UNL     1       3.577   4.073  17.523  0.00  0.00    +0.000 S 
BRANCH  10  11
ATOM     11  C   UNL     1       2.752   3.538  19.009  0.00  0.00    +0.000 A 
ATOM     12  C   UNL     1       3.460   2.947  20.063  0.00  0.00    +0.000 A 
ATOM     13  C   UNL     1       2.794   2.556  21.226  0.00  0.00    +0.000 A 
ATOM     14  C   UNL     1       1.424   2.765  21.335  0.00  0.00    +0.000 A 
ATOM     15  F   UNL     1       0.785   2.387  22.451  0.00  0.00    +0.000 F 
ATOM     16  C   UNL     1       0.709   3.367  20.307  0.00  0.00    +0.000 A 
ATOM     17  C   UNL     1       1.375   3.759  19.144  0.00  0.00    +0.000 A 
ENDBRANCH  10  11
ENDBRANCH   1  10
TORSDOF 7
ENDMDL
MODEL 8
REMARK VINA RESULT:      -5.7      1.535      2.031
REMARK  Name = 
REMARK  7 active torsions:
REMARK  status: ('A' for Active; 'I' for Inactive)
REMARK    1  A    between atoms: C_2  and  O_3
REMARK    2  A    between atoms: C_2  and  C_4
REMARK    3  A    between atoms: C_4  and  N_5
REMARK    4  A    between atoms: N_5  and  C_6
REMARK    5  A    between atoms: C_6  and  C_7
REMARK    6  A    between atoms: C_7  and  S_8
REMARK    7  A    between atoms: S_8  and  C_9
REMARK                            x       y       z     vdW  Elec       q    Type
REMARK                         _______ _______ _______ _____ _____    ______ ____
ROOT
ATOM      1  C   UNL     1       4.582   6.397  17.018  0.00  0.00    +0.000 C 
ENDROOT
BRANCH   1   2
ATOM      2  C   UNL     1       5.529   5.705  18.011  0.00  0.00    +0.000 C 
BRANCH   2   3
ATOM      3  N   UNL     1       5.966   4.372  17.539  0.00  0.00    +0.000 NA
ATOM      4  H   UNL     1       6.158   3.799  18.369  0.00  0.00    +0.000 HD
BRANCH   3   5
ATOM      5  C   UNL     1       7.254   4.533  16.805  0.00  0.00    +0.000 C 
BRANCH   5   7
ATOM      6  O   UNL     1       6.277   3.702  14.727  0.00  0.00    +0.000 OA
ATOM      7  C   UNL     1       6.992   4.512  15.295  0.00  0.00    +0.000 C 
BRANCH   7   8
ATOM      8  O   UNL     1       7.687   5.485  14.656  0.00  0.00    +0.000 OA
ATOM      9  H   UNL     1       7.400   6.350  15.039  0.00  0.00    +0.000 HD
ENDBRANCH   7   8
ENDBRANCH   5   7
ENDBRANCH   3   5
ENDBRANCH   2   3
ENDBRANCH   1   2
BRANCH   1  10
ATOM     10  S   UNL     1       3.255   7.251  17.948  0.00  0.00    +0.000 S 
BRANCH  10  11
ATOM     11  C   UNL     1       2.417   5.853  18.668  0.00  0.00    +0.000 A 
ATOM     12  C   UNL     1       2.017   4.762  17.884  0.00  0.00    +0.000 A 
ATOM     13  C   UNL     1       1.381   3.668  18.475  0.00  0.00    +0.000 A 
ATOM     14  C   UNL     1       1.156   3.664  19.847  0.00  0.00    +0.000 A 
ATOM     15  F   UNL     1       0.542   2.615  20.412  0.00  0.00    +0.000 F 
ATOM     16  C   UNL     1       1.563   4.729  20.641  0.00  0.00    +0.000 A 
ATOM     17  C   UNL     1       2.200   5.822  20.051  0.00  0.00    +0.000 A 
ENDBRANCH  10  11
ENDBRANCH   1  10
TORSDOF 7
ENDMDL
MODEL 9
REMARK VINA RESULT:      -5.6      1.187      1.795
REMARK  Name = 
REMARK  7 active torsions:
REMARK  status: ('A' for Active; 'I' for Inactive)
REMARK    1  A    between atoms: C_2  and  O_3
REMARK    2  A    between atoms: C_2  and  C_4
REMARK    3  A    between atoms: C_4  and  N_5
REMARK    4  A    between atoms: N_5  and  C_6
REMARK    5  A    between atoms: C_6  and  C_7
REMARK    6  A    between atoms: C_7  and  S_8
REMARK    7  A    between atoms: S_8  and  C_9
REMARK                            x       y       z     vdW  Elec       q    Type
REMARK                         _______ _______ _______ _____ _____    ______ ____
ROOT
ATOM      1  C   UNL     1       4.906   5.222  17.962  0.00  0.00    +0.000 C 
ENDROOT
BRANCH   1   2
ATOM      2  C   UNL     1       4.842   6.547  17.186  0.00  0.00    +0.000 C 
BRANCH   2   3
ATOM      3  N   UNL     1       5.686   6.530  15.969  0.00  0.00    +0.000 NA
ATOM      4  H   UNL     1       5.095   6.223  15.189  0.00  0.00    +0.000 HD
BRANCH   3   5
ATOM      5  C   UNL     1       6.750   5.501  16.151  0.00  0.00    +0.000 C 
BRANCH   5   7
ATOM      6  O   UNL     1       7.741   5.327  13.926  0.00  0.00    +0.000 OA
ATOM      7  C   UNL     1       7.054   4.832  14.806  0.00  0.00    +0.000 C 
BRANCH   7   8
ATOM      8  O   UNL     1       6.433   3.633  14.694  0.00  0.00    +0.000 OA
ATOM      9  H   UNL     1       6.600   3.301  13.778  0.00  0.00    +0.000 HD
ENDBRANCH   7   8
ENDBRANCH   5   7
ENDBRANCH   3   5
ENDBRANCH   2   3
ENDBRANCH   1   2
BRANCH   1  10
ATOM     10  S   UNL     1       3.631   4.081  17.307  0.00  0.00    +0.000 S 
BRANCH  10  11
ATOM     11  C   UNL     1       2.800   3.629  18.817  0.00  0.00    +0.000 A 
ATOM     12  C   UNL     1       1.424   3.837  18.980  0.00  0.00    +0.000 A 
ATOM     13  C   UNL     1       0.791   3.454  20.165  0.00  0.00    +0.000 A 
ATOM     14  C   UNL     1       1.533   2.856  21.177  0.00  0.00    +0.000 A 
ATOM     15  F   UNL     1       0.925   2.492  22.314  0.00  0.00    +0.000 F 
ATOM     16  C   UNL     1       2.895   2.626  21.024  0.00  0.00    +0.000 A 
ATOM     17  C   UNL     1       3.528   3.007  19.839  0.00  0.00    +0.000 A 
ENDBRANCH  10  11
ENDBRANCH   1  10
TORSDOF 7
ENDMDL
