MODEL 1
REMARK VINA RESULT:      -6.9      0.000      0.000
REMARK  Name = 
REMARK  4 active torsions:
REMARK  status: ('A' for Active; 'I' for Inactive)
REMARK    1  A    between atoms: C_1  and  O_2
REMARK    2  A    between atoms: O_2  and  C_3
REMARK    3  A    between atoms: C_6  and  C_7
REMARK    4  A    between atoms: C_10  and  C_11
REMARK                            x       y       z     vdW  Elec       q    Type
REMARK                         _______ _______ _______ _____ _____    ______ ____
ROOT
ATOM      1  C   UNL     1       3.403   6.425  18.041  0.00  0.00    +0.000 C 
ATOM      2  N   UNL     1       4.623   6.787  17.814  0.00  0.00    +0.000 NA
ATOM      3  N   UNL     1       5.616   5.950  17.344  0.00  0.00    +0.000 N 
ATOM      4  C   UNL     1       6.910   6.250  17.168  0.00  0.00    +0.000 A 
ATOM      5  C   UNL     1       7.533   7.584  17.443  0.00  0.00    +0.000 C 
ATOM      6  N   UNL     1       7.585   5.173  16.720  0.00  0.00    +0.000 NA
ATOM      7  N   UNL     1       6.705   4.180  16.614  0.00  0.00    +0.000 NA
ATOM      8  C   UNL     1       5.510   4.671  17.000  0.00  0.00    +0.000 A 
ATOM      9  S   UNL     1       3.997   3.741  17.046  0.00  0.00    +0.000 S 
ATOM     10  C   UNL     1       2.891   5.006  17.799  0.00  0.00    +0.000 C 
ENDROOT
BRANCH   1  14
ATOM     11  C   UNL     1       0.910   9.512  19.767  0.00  0.00    +0.000 A 
ATOM     12  C   UNL     1       1.273   9.551  18.409  0.00  0.00    +0.000 A 
ATOM     13  C   UNL     1       2.056   8.540  17.860  0.00  0.00    +0.000 A 
ATOM     14  C   UNL     1       2.498   7.455  18.645  0.00  0.00    +0.000 A 
ATOM     15  C   UNL     1       2.099   7.401  19.996  0.00  0.00    +0.000 A 
ATOM     16  C   UNL     1       1.317   8.423  20.547  0.00  0.00    +0.000 A 
BRANCH  11  18
ATOM     17  C   UNL     1       0.606  11.819  20.482  0.00  0.00    +0.000 C 
ATOM     18  O   UNL     1       0.196  10.506  20.356  0.00  0.00    +0.000 OA
ENDBRANCH  11  18
ENDBRANCH   1  14
TORSDOF 2
ENDMDL
MODEL 2
REMARK VINA RESULT:      -6.9      0.558      1.270
REMARK  Name = 
REMARK  4 active torsions:
REMARK  status: ('A' for Active; 'I' for Inactive)
REMARK    1  A    between atoms: C_1  and  O_2
REMARK    2  A    between atoms: O_2  and  C_3
REMARK    3  A    between atoms: C_6  and  C_7
REMARK    4  A    between atoms: C_10  and  C_11
REMARK                            x       y       z     vdW  Elec       q    Type
REMARK                         _______ _______ _______ _____ _____    ______ ____
ROOT
ATOM      1  C   UNL     1       3.364   6.503  18.031  0.00  0.00    +0.000 C 
ATOM      2  N   UNL     1       4.597   6.811  17.793  0.00  0.00    +0.000 NA
ATOM      3  N   UNL     1       5.559   5.920  17.358  0.00  0.00    +0.000 N 
ATOM      4  C   UNL     1       6.864   6.166  17.174  0.00  0.00    +0.000 A 
ATOM      5  C   UNL     1       7.535   7.485  17.398  0.00  0.00    +0.000 C 
ATOM      6  N   UNL     1       7.499   5.048  16.770  0.00  0.00    +0.000 NA
ATOM      7  N   UNL     1       6.583   4.085  16.700  0.00  0.00    +0.000 NA
ATOM      8  C   UNL     1       5.406   4.634  17.064  0.00  0.00    +0.000 A 
ATOM      9  S   UNL     1       3.860   3.763  17.141  0.00  0.00    +0.000 S 
ATOM     10  C   UNL     1       2.800   5.096  17.843  0.00  0.00    +0.000 C 
ENDROOT
BRANCH   1  14
ATOM     11  C   UNL     1       0.738   9.526  19.672  0.00  0.00    +0.000 A 
ATOM     12  C   UNL     1       1.227   8.480  20.475  0.00  0.00    +0.000 A 
ATOM     13  C   UNL     1       2.090   7.527  19.941  0.00  0.00    +0.000 A 
ATOM     14  C   UNL     1       2.497   7.588  18.592  0.00  0.00    +0.000 A 
ATOM     15  C   UNL     1       2.035   8.661  17.803  0.00  0.00    +0.000 A 
ATOM     16  C   UNL     1       1.162   9.614  18.340  0.00  0.00    +0.000 A 
BRANCH  11  18
ATOM     17  C   UNL     1      -1.208  10.966  19.422  0.00  0.00    +0.000 C 
ATOM     18  O   UNL     1      -0.149  10.443  20.138  0.00  0.00    +0.000 OA
ENDBRANCH  11  18
ENDBRANCH   1  14
TORSDOF 2
ENDMDL
MODEL 3
REMARK VINA RESULT:      -6.8      2.563      3.418
REMARK  Name = 
REMARK  4 active torsions:
REMARK  status: ('A' for Active; 'I' for Inactive)
REMARK    1  A    between atoms: C_1  and  O_2
REMARK    2  A    between atoms: O_2  and  C_3
REMARK    3  A    between atoms: C_6  and  C_7
REMARK    4  A    between atoms: C_10  and  C_11
REMARK                            x       y       z     vdW  Elec       q    Type
REMARK                         _______ _______ _______ _____ _____    ______ ____
ROOT
ATOM      1  C   UNL     1       3.158   6.328  19.096  0.00  0.00    +0.000 C 
ATOM      2  N   UNL     1       2.805   5.374  19.894  0.00  0.00    +0.000 NA
ATOM      3  N   UNL     1       3.425   4.142  19.967  0.00  0.00    +0.000 N 
ATOM      4  C   UNL     1       3.053   3.093  20.714  0.00  0.00    +0.000 A 
ATOM      5  C   UNL     1       1.877   3.066  21.640  0.00  0.00    +0.000 C 
ATOM      6  N   UNL     1       3.882   2.051  20.505  0.00  0.00    +0.000 NA
ATOM      7  N   UNL     1       4.788   2.448  19.614  0.00  0.00    +0.000 NA
ATOM      8  C   UNL     1       4.492   3.724  19.295  0.00  0.00    +0.000 A 
ATOM      9  S   UNL     1       5.401   4.717  18.136  0.00  0.00    +0.000 S 
ATOM     10  C   UNL     1       4.334   6.219  18.127  0.00  0.00    +0.000 C 
ENDROOT
BRANCH   1  14
ATOM     11  C   UNL     1       0.810   9.962  19.060  0.00  0.00    +0.000 A 
ATOM     12  C   UNL     1       1.413   9.480  17.885  0.00  0.00    +0.000 A 
ATOM     13  C   UNL     1       2.147   8.297  17.905  0.00  0.00    +0.000 A 
ATOM     14  C   UNL     1       2.298   7.554  19.094  0.00  0.00    +0.000 A 
ATOM     15  C   UNL     1       1.658   8.022  20.260  0.00  0.00    +0.000 A 
ATOM     16  C   UNL     1       0.926   9.215  20.239  0.00  0.00    +0.000 A 
BRANCH  11  18
ATOM     17  C   UNL     1      -1.103  11.332  19.680  0.00  0.00    +0.000 C 
ATOM     18  O   UNL     1       0.133  11.140  19.097  0.00  0.00    +0.000 OA
ENDBRANCH  11  18
ENDBRANCH   1  14
TORSDOF 2
ENDMDL
MODEL 4
REMARK VINA RESULT:      -6.8      2.536      3.550
REMARK  Name = 
REMARK  4 active torsions:
REMARK  status: ('A' for Active; 'I' for Inactive)
REMARK    1  A    between atoms: C_1  and  O_2
REMARK    2  A    between atoms: O_2  and  C_3
REMARK    3  A    between atoms: C_6  and  C_7
REMARK    4  A    between atoms: C_10  and  C_11
REMARK                            x       y       z     vdW  Elec       q    Type
REMARK                         _______ _______ _______ _____ _____    ______ ____
ROOT
ATOM      1  C   UNL     1       3.158   6.442  18.990  0.00  0.00    +0.000 C 
ATOM      2  N   UNL     1       2.837   5.504  19.818  0.00  0.00    +0.000 NA
ATOM      3  N   UNL     1       3.444   4.265  19.874  0.00  0.00    +0.000 N 
ATOM      4  C   UNL     1       3.100   3.230  20.654  0.00  0.00    +0.000 A 
ATOM      5  C   UNL     1       1.976   3.230  21.643  0.00  0.00    +0.000 C 
ATOM      6  N   UNL     1       3.904   2.175  20.415  0.00  0.00    +0.000 NA
ATOM      7  N   UNL     1       4.764   2.548  19.470  0.00  0.00    +0.000 NA
ATOM      8  C   UNL     1       4.468   3.824  19.151  0.00  0.00    +0.000 A 
ATOM      9  S   UNL     1       5.325   4.791  17.932  0.00  0.00    +0.000 S 
ATOM     10  C   UNL     1       4.278   6.306  17.961  0.00  0.00    +0.000 C 
ENDROOT
BRANCH   1  14
ATOM     11  C   UNL     1       0.587   9.922  19.102  0.00  0.00    +0.000 A 
ATOM     12  C   UNL     1       0.844   9.175  20.265  0.00  0.00    +0.000 A 
ATOM     13  C   UNL     1       1.691   8.072  20.221  0.00  0.00    +0.000 A 
ATOM     14  C   UNL     1       2.314   7.680  19.018  0.00  0.00    +0.000 A 
ATOM     15  C   UNL     1       2.084   8.456  17.863  0.00  0.00    +0.000 A 
ATOM     16  C   UNL     1       1.226   9.561  17.909  0.00  0.00    +0.000 A 
BRANCH  11  18
ATOM     17  C   UNL     1      -1.612  10.902  18.744  0.00  0.00    +0.000 C 
ATOM     18  O   UNL     1      -0.276  10.971  19.089  0.00  0.00    +0.000 OA
ENDBRANCH  11  18
ENDBRANCH   1  14
TORSDOF 2
ENDMDL
MODEL 5
REMARK VINA RESULT:      -6.7      2.295      3.508
REMARK  Name = 
REMARK  4 active torsions:
REMARK  status: ('A' for Active; 'I' for Inactive)
REMARK    1  A    between atoms: C_1  and  O_2
REMARK    2  A    between atoms: O_2  and  C_3
REMARK    3  A    between atoms: C_6  and  C_7
REMARK    4  A    between atoms: C_10  and  C_11
REMARK                            x       y       z     vdW  Elec       q    Type
REMARK                         _______ _______ _______ _____ _____    ______ ____
ROOT
ATOM      1  C   UNL     1       2.916   6.296  18.427  0.00  0.00    +0.000 C 
ATOM      2  N   UNL     1       2.388   5.258  18.988  0.00  0.00    +0.000 NA
ATOM      3  N   UNL     1       2.765   3.953  18.736  0.00  0.00    +0.000 N 
ATOM      4  C   UNL     1       2.202   2.840  19.225  0.00  0.00    +0.000 A 
ATOM      5  C   UNL     1       1.040   2.803  20.169  0.00  0.00    +0.000 C 
ATOM      6  N   UNL     1       2.820   1.747  18.736  0.00  0.00    +0.000 NA
ATOM      7  N   UNL     1       3.786   2.177  17.926  0.00  0.00    +0.000 NA
ATOM      8  C   UNL     1       3.736   3.524  17.936  0.00  0.00    +0.000 A 
ATOM      9  S   UNL     1       4.817   4.587  17.011  0.00  0.00    +0.000 S 
ATOM     10  C   UNL     1       4.052   6.214  17.410  0.00  0.00    +0.000 C 
ENDROOT
BRANCH   1  14
ATOM     11  C   UNL     1       0.995  10.050  19.401  0.00  0.00    +0.000 A 
ATOM     12  C   UNL     1       1.151   9.045  20.371  0.00  0.00    +0.000 A 
ATOM     13  C   UNL     1       1.791   7.851  20.052  0.00  0.00    +0.000 A 
ATOM     14  C   UNL     1       2.301   7.622  18.757  0.00  0.00    +0.000 A 
ATOM     15  C   UNL     1       2.176   8.649  17.799  0.00  0.00    +0.000 A 
ATOM     16  C   UNL     1       1.526   9.846  18.121  0.00  0.00    +0.000 A 
BRANCH  11  18
ATOM     17  C   UNL     1       0.637  12.104  20.655  0.00  0.00    +0.000 C 
ATOM     18  O   UNL     1       0.327  11.206  19.654  0.00  0.00    +0.000 OA
ENDBRANCH  11  18
ENDBRANCH   1  14
TORSDOF 2
ENDMDL
MODEL 6
REMARK VINA RESULT:      -6.6      3.887      6.829
REMARK  Name = 
REMARK  4 active torsions:
REMARK  status: ('A' for Active; 'I' for Inactive)
REMARK    1  A    between atoms: C_1  and  O_2
REMARK    2  A    between atoms: O_2  and  C_3
REMARK    3  A    between atoms: C_6  and  C_7
REMARK    4  A    between atoms: C_10  and  C_11
REMARK                            x       y       z     vdW  Elec       q    Type
REMARK                         _______ _______ _______ _____ _____    ______ ____
ROOT
ATOM      1  C   UNL     1       4.156   3.825  17.680  0.00  0.00    +0.000 C 
ATOM      2  N   UNL     1       3.648   4.781  18.386  0.00  0.00    +0.000 NA
ATOM      3  N   UNL     1       2.603   4.630  19.277  0.00  0.00    +0.000 N 
ATOM      4  C   UNL     1       1.988   5.597  19.972  0.00  0.00    +0.000 A 
ATOM      5  C   UNL     1       2.333   7.052  19.920  0.00  0.00    +0.000 C 
ATOM      6  N   UNL     1       0.994   5.076  20.720  0.00  0.00    +0.000 NA
ATOM      7  N   UNL     1       0.983   3.765  20.493  0.00  0.00    +0.000 NA
ATOM      8  C   UNL     1       1.970   3.511  19.609  0.00  0.00    +0.000 A 
ATOM      9  S   UNL     1       2.372   1.902  18.972  0.00  0.00    +0.000 S 
ATOM     10  C   UNL     1       3.669   2.379  17.754  0.00  0.00    +0.000 C 
ENDROOT
BRANCH   1  14
ATOM     11  C   UNL     1       7.170   5.089  14.844  0.00  0.00    +0.000 A 
ATOM     12  C   UNL     1       7.224   5.500  16.187  0.00  0.00    +0.000 A 
ATOM     13  C   UNL     1       6.261   5.067  17.095  0.00  0.00    +0.000 A 
ATOM     14  C   UNL     1       5.218   4.208  16.695  0.00  0.00    +0.000 A 
ATOM     15  C   UNL     1       5.191   3.768  15.356  0.00  0.00    +0.000 A 
ATOM     16  C   UNL     1       6.156   4.209  14.443  0.00  0.00    +0.000 A 
BRANCH  11  18
ATOM     17  C   UNL     1       7.932   5.362  12.549  0.00  0.00    +0.000 C 
ATOM     18  O   UNL     1       8.055   5.531  13.913  0.00  0.00    +0.000 OA
ENDBRANCH  11  18
ENDBRANCH   1  14
TORSDOF 2
ENDMDL
MODEL 7
REMARK VINA RESULT:      -6.5      2.298      3.307
REMARK  Name = 
REMARK  4 active torsions:
REMARK  status: ('A' for Active; 'I' for Inactive)
REMARK    1  A    between atoms: C_1  and  O_2
REMARK    2  A    between atoms: O_2  and  C_3
REMARK    3  A    between atoms: C_6  and  C_7
REMARK    4  A    between atoms: C_10  and  C_11
REMARK                            x       y       z     vdW  Elec       q    Type
REMARK                         _______ _______ _______ _____ _____    ______ ____
ROOT
ATOM      1  C   UNL     1       2.857   6.336  18.440  0.00  0.00    +0.000 C 
ATOM      2  N   UNL     1       2.347   5.270  18.963  0.00  0.00    +0.000 NA
ATOM      3  N   UNL     1       2.768   3.983  18.688  0.00  0.00    +0.000 N 
ATOM      4  C   UNL     1       2.225   2.843  19.137  0.00  0.00    +0.000 A 
ATOM      5  C   UNL     1       1.042   2.749  20.050  0.00  0.00    +0.000 C 
ATOM      6  N   UNL     1       2.886   1.780  18.637  0.00  0.00    +0.000 NA
ATOM      7  N   UNL     1       3.858   2.257  17.862  0.00  0.00    +0.000 NA
ATOM      8  C   UNL     1       3.769   3.602  17.903  0.00  0.00    +0.000 A 
ATOM      9  S   UNL     1       4.841   4.717  17.031  0.00  0.00    +0.000 S 
ATOM     10  C   UNL     1       4.020   6.312  17.450  0.00  0.00    +0.000 C 
ENDROOT
BRANCH   1  14
ATOM     11  C   UNL     1       1.097  10.166  19.421  0.00  0.00    +0.000 A 
ATOM     12  C   UNL     1       1.554   9.893  18.120  0.00  0.00    +0.000 A 
ATOM     13  C   UNL     1       2.097   8.649  17.811  0.00  0.00    +0.000 A 
ATOM     14  C   UNL     1       2.197   7.636  18.787  0.00  0.00    +0.000 A 
ATOM     15  C   UNL     1       1.702   7.903  20.080  0.00  0.00    +0.000 A 
ATOM     16  C   UNL     1       1.162   9.157  20.390  0.00  0.00    +0.000 A 
BRANCH  11  18
ATOM     17  C   UNL     1       0.341  11.787  21.071  0.00  0.00    +0.000 C 
ATOM     18  O   UNL     1       0.613  11.384  19.779  0.00  0.00    +0.000 OA
ENDBRANCH  11  18
ENDBRANCH   1  14
TORSDOF 2
ENDMDL
MODEL 8
REMARK VINA RESULT:      -6.4      3.924      6.789
REMARK  Name = 
REMARK  4 active torsions:
REMARK  status: ('A' for Active; 'I' for Inactive)
REMARK    1  A    between atoms: C_1  and  O_2
REMARK    2  A    between atoms: O_2  and  C_3
REMARK    3  A    between atoms: C_6  and  C_7
REMARK    4  A    between atoms: C_10  and  C_11
REMARK                            x       y       z     vdW  Elec       q    Type
REMARK                         _______ _______ _______ _____ _____    ______ ____
ROOT
ATOM      1  C   UNL     1       4.136   3.915  17.653  0.00  0.00    +0.000 C 
ATOM      2  N   UNL     1       3.594   4.820  18.401  0.00  0.00    +0.000 NA
ATOM      3  N   UNL     1       2.583   4.583  19.312  0.00  0.00    +0.000 N 
ATOM      4  C   UNL     1       1.932   5.492  20.051  0.00  0.00    +0.000 A 
ATOM      5  C   UNL     1       2.194   6.965  20.036  0.00  0.00    +0.000 C 
ATOM      6  N   UNL     1       0.989   4.894  20.806  0.00  0.00    +0.000 NA
ATOM      7  N   UNL     1       1.046   3.591  20.539  0.00  0.00    +0.000 NA
ATOM      8  C   UNL     1       2.022   3.420  19.624  0.00  0.00    +0.000 A 
ATOM      9  S   UNL     1       2.497   1.857  18.927  0.00  0.00    +0.000 S 
ATOM     10  C   UNL     1       3.733   2.442  17.693  0.00  0.00    +0.000 C 
ENDROOT
BRANCH   1  14
ATOM     11  C   UNL     1       7.110   5.121  14.750  0.00  0.00    +0.000 A 
ATOM     12  C   UNL     1       5.985   4.371  14.364  0.00  0.00    +0.000 A 
ATOM     13  C   UNL     1       5.024   4.009  15.303  0.00  0.00    +0.000 A 
ATOM     14  C   UNL     1       5.149   4.388  16.656  0.00  0.00    +0.000 A 
ATOM     15  C   UNL     1       6.259   5.172  17.030  0.00  0.00    +0.000 A 
ATOM     16  C   UNL     1       7.228   5.530  16.085  0.00  0.00    +0.000 A 
BRANCH  11  18
ATOM     17  C   UNL     1       7.985   5.439  12.502  0.00  0.00    +0.000 C 
ATOM     18  O   UNL     1       8.099   5.447  13.878  0.00  0.00    +0.000 OA
ENDBRANCH  11  18
ENDBRANCH   1  14
TORSDOF 2
ENDMDL
MODEL 9
REMARK VINA RESULT:      -6.3      3.718      6.688
REMARK  Name = 
REMARK  4 active torsions:
REMARK  status: ('A' for Active; 'I' for Inactive)
REMARK    1  A    between atoms: C_1  and  O_2
REMARK    2  A    between atoms: O_2  and  C_3
REMARK    3  A    between atoms: C_6  and  C_7
REMARK    4  A    between atoms: C_10  and  C_11
REMARK                            x       y       z     vdW  Elec       q    Type
REMARK                         _______ _______ _______ _____ _____    ______ ____
ROOT
ATOM      1  C   UNL     1       3.660   5.721  18.239  0.00  0.00    +0.000 C 
ATOM      2  N   UNL     1       3.209   6.931  18.188  0.00  0.00    +0.000 NA
ATOM      3  N   UNL     1       2.356   7.491  19.119  0.00  0.00    +0.000 N 
ATOM      4  C   UNL     1       1.796   8.708  19.073  0.00  0.00    +0.000 A 
ATOM      5  C   UNL     1       2.005   9.715  17.986  0.00  0.00    +0.000 C 
ATOM      6  N   UNL     1       0.999   8.897  20.144  0.00  0.00    +0.000 NA
ATOM      7  N   UNL     1       1.056   7.785  20.873  0.00  0.00    +0.000 NA
ATOM      8  C   UNL     1       1.887   6.938  20.232  0.00  0.00    +0.000 A 
ATOM      9  S   UNL     1       2.301   5.304  20.793  0.00  0.00    +0.000 S 
ATOM     10  C   UNL     1       3.317   4.744  19.362  0.00  0.00    +0.000 C 
ENDROOT
BRANCH   1  14
ATOM     11  C   UNL     1       5.948   4.455  14.791  0.00  0.00    +0.000 A 
ATOM     12  C   UNL     1       5.693   5.817  15.028  0.00  0.00    +0.000 A 
ATOM     13  C   UNL     1       4.975   6.213  16.153  0.00  0.00    +0.000 A 
ATOM     14  C   UNL     1       4.495   5.266  17.081  0.00  0.00    +0.000 A 
ATOM     15  C   UNL     1       4.787   3.905  16.858  0.00  0.00    +0.000 A 
ATOM     16  C   UNL     1       5.503   3.508  15.722  0.00  0.00    +0.000 A 
BRANCH  11  18
ATOM     17  C   UNL     1       5.991   3.447  12.576  0.00  0.00    +0.000 C 
ATOM     18  O   UNL     1       6.594   4.022  13.677  0.00  0.00    +0.000 OA
ENDBRANCH  11  18
ENDBRANCH   1  14
TORSDOF 2
ENDMDL
