MODEL 1
REMARK VINA RESULT:      -7.6      0.000      0.000
REMARK  Name = 
REMARK  5 active torsions:
REMARK  status: ('A' for Active; 'I' for Inactive)
REMARK    1  A    between atoms: C_1  and  C_2
REMARK    2  A    between atoms: C_4  and  N_5
REMARK    3  A    between atoms: N_9  and  C_10
REMARK    4  A    between atoms: C_10  and  C_11
REMARK    5  A    between atoms: C_14  and  C_15
REMARK                            x       y       z     vdW  Elec       q    Type
REMARK                         _______ _______ _______ _____ _____    ______ ____
ROOT
ATOM      1  N   UNL     1       6.627   5.251  15.946  0.00  0.00    +0.000 N 
ATOM      2  C   UNL     1       7.378   4.407  16.890  0.00  0.00    +0.000 C 
ATOM      3  C   UNL     1       7.760   5.083  18.201  0.00  0.00    +0.000 C 
ATOM      4  C   UNL     1       6.694   5.815  19.010  0.00  0.00    +0.000 C 
ATOM      5  N   UNL     1       5.305   5.429  18.850  0.00  0.00    +0.000 NA
ATOM      6  C   UNL     1       4.732   5.908  17.594  0.00  0.00    +0.000 C 
ATOM      7  C   UNL     1       5.163   5.355  16.216  0.00  0.00    +0.000 C 
ENDROOT
BRANCH   1  11
ATOM      8  C   UNL     1       5.357   2.562  11.877  0.00  0.00    +0.000 C 
ATOM      9  C   UNL     1       6.185   3.594  12.584  0.00  0.00    +0.000 A 
ATOM     10  C   UNL     1       5.993   3.882  13.938  0.00  0.00    +0.000 A 
ATOM     11  C   UNL     1       6.782   4.847  14.569  0.00  0.00    +0.000 A 
ATOM     12  C   UNL     1       7.755   5.485  13.787  0.00  0.00    +0.000 A 
ATOM     13  C   UNL     1       7.874   5.152  12.447  0.00  0.00    +0.000 A 
ATOM     14  N   UNL     1       7.113   4.226  11.831  0.00  0.00    +0.000 NA
ENDBRANCH   1  11
BRANCH   5  15
ATOM     15  C   UNL     1       4.942   4.084  19.294  0.00  0.00    +0.000 C 
BRANCH  15  16
ATOM     16  C   UNL     1       3.474   3.983  19.600  0.00  0.00    +0.000 A 
ATOM     17  C   UNL     1       2.650   4.731  20.422  0.00  0.00    +0.000 A 
ATOM     18  C   UNL     1       1.343   4.220  20.267  0.00  0.00    +0.000 A 
ATOM     19  C   UNL     1       1.436   3.178  19.372  0.00  0.00    +0.000 A 
ATOM     20  C   UNL     1       0.418   2.250  18.831  0.00  0.00    +0.000 C 
ATOM     21  O   UNL     1       2.732   3.027  18.956  0.00  0.00    +0.000 OA
ENDBRANCH  15  16
ENDBRANCH   5  15
TORSDOF 3
ENDMDL
MODEL 2
REMARK VINA RESULT:      -7.3      0.775      1.117
REMARK  Name = 
REMARK  5 active torsions:
REMARK  status: ('A' for Active; 'I' for Inactive)
REMARK    1  A    between atoms: C_1  and  C_2
REMARK    2  A    between atoms: C_4  and  N_5
REMARK    3  A    between atoms: N_9  and  C_10
REMARK    4  A    between atoms: C_10  and  C_11
REMARK    5  A    between atoms: C_14  and  C_15
REMARK                            x       y       z     vdW  Elec       q    Type
REMARK                         _______ _______ _______ _____ _____    ______ ____
ROOT
ATOM      1  N   UNL     1       6.540   5.159  15.909  0.00  0.00    +0.000 N 
ATOM      2  C   UNL     1       7.456   4.470  16.833  0.00  0.00    +0.000 C 
ATOM      3  C   UNL     1       7.739   5.209  18.135  0.00  0.00    +0.000 C 
ATOM      4  C   UNL     1       6.576   5.734  18.971  0.00  0.00    +0.000 C 
ATOM      5  N   UNL     1       5.278   5.099  18.844  0.00  0.00    +0.000 NA
ATOM      6  C   UNL     1       4.597   5.460  17.603  0.00  0.00    +0.000 C 
ATOM      7  C   UNL     1       5.089   4.993  16.215  0.00  0.00    +0.000 C 
ENDROOT
BRANCH   1  11
ATOM      8  C   UNL     1       5.421   2.524  11.762  0.00  0.00    +0.000 C 
ATOM      9  C   UNL     1       6.209   3.560  12.506  0.00  0.00    +0.000 A 
ATOM     10  C   UNL     1       5.981   3.816  13.862  0.00  0.00    +0.000 A 
ATOM     11  C   UNL     1       6.734   4.787  14.528  0.00  0.00    +0.000 A 
ATOM     12  C   UNL     1       7.707   5.463  13.779  0.00  0.00    +0.000 A 
ATOM     13  C   UNL     1       7.862   5.160  12.436  0.00  0.00    +0.000 A 
ATOM     14  N   UNL     1       7.136   4.229  11.786  0.00  0.00    +0.000 NA
ENDBRANCH   1  11
BRANCH   5  15
ATOM     15  C   UNL     1       5.181   3.711  19.294  0.00  0.00    +0.000 C 
BRANCH  15  16
ATOM     16  C   UNL     1       3.803   3.154  19.065  0.00  0.00    +0.000 A 
ATOM     17  C   UNL     1       3.332   2.185  18.197  0.00  0.00    +0.000 A 
ATOM     18  C   UNL     1       1.956   2.026  18.467  0.00  0.00    +0.000 A 
ATOM     19  C   UNL     1       1.652   2.916  19.473  0.00  0.00    +0.000 A 
ATOM     20  C   UNL     1       0.379   3.226  20.163  0.00  0.00    +0.000 C 
ATOM     21  O   UNL     1       2.772   3.607  19.848  0.00  0.00    +0.000 OA
ENDBRANCH  15  16
ENDBRANCH   5  15
TORSDOF 3
ENDMDL
MODEL 3
REMARK VINA RESULT:      -7.2      1.242      1.420
REMARK  Name = 
REMARK  5 active torsions:
REMARK  status: ('A' for Active; 'I' for Inactive)
REMARK    1  A    between atoms: C_1  and  C_2
REMARK    2  A    between atoms: C_4  and  N_5
REMARK    3  A    between atoms: N_9  and  C_10
REMARK    4  A    between atoms: C_10  and  C_11
REMARK    5  A    between atoms: C_14  and  C_15
REMARK                            x       y       z     vdW  Elec       q    Type
REMARK                         _______ _______ _______ _____ _____    ______ ____
ROOT
ATOM      1  N   UNL     1       5.964   4.891  15.920  0.00  0.00    +0.000 N 
ATOM      2  C   UNL     1       4.993   3.945  16.495  0.00  0.00    +0.000 C 
ATOM      3  C   UNL     1       5.019   3.835  18.015  0.00  0.00    +0.000 C 
ATOM      4  C   UNL     1       4.963   5.102  18.863  0.00  0.00    +0.000 C 
ATOM      5  N   UNL     1       4.361   6.296  18.300  0.00  0.00    +0.000 NA
ATOM      6  C   UNL     1       5.224   6.948  17.318  0.00  0.00    +0.000 C 
ATOM      7  C   UNL     1       5.543   6.322  15.941  0.00  0.00    +0.000 C 
ENDROOT
BRANCH   1  11
ATOM      8  C   UNL     1       5.365   2.464  11.543  0.00  0.00    +0.000 C 
ATOM      9  C   UNL     1       6.066   3.447  12.433  0.00  0.00    +0.000 A 
ATOM     10  C   UNL     1       5.662   3.651  13.756  0.00  0.00    +0.000 A 
ATOM     11  C   UNL     1       6.336   4.573  14.562  0.00  0.00    +0.000 A 
ATOM     12  C   UNL     1       7.415   5.254  13.983  0.00  0.00    +0.000 A 
ATOM     13  C   UNL     1       7.745   5.004  12.660  0.00  0.00    +0.000 A 
ATOM     14  N   UNL     1       7.096   4.121  11.877  0.00  0.00    +0.000 NA
ENDBRANCH   1  11
BRANCH   5  15
ATOM     15  C   UNL     1       2.928   6.235  18.013  0.00  0.00    +0.000 C 
BRANCH  15  16
ATOM     16  C   UNL     1       2.228   5.257  18.914  0.00  0.00    +0.000 A 
ATOM     17  C   UNL     1       1.887   5.316  20.253  0.00  0.00    +0.000 A 
ATOM     18  C   UNL     1       1.181   4.130  20.550  0.00  0.00    +0.000 A 
ATOM     19  C   UNL     1       1.142   3.399  19.383  0.00  0.00    +0.000 A 
ATOM     20  C   UNL     1       0.564   2.073  19.072  0.00  0.00    +0.000 C 
ATOM     21  O   UNL     1       1.774   4.078  18.377  0.00  0.00    +0.000 OA
ENDBRANCH  15  16
ENDBRANCH   5  15
TORSDOF 3
ENDMDL
MODEL 4
REMARK VINA RESULT:      -7.1      1.068      1.574
REMARK  Name = 
REMARK  5 active torsions:
REMARK  status: ('A' for Active; 'I' for Inactive)
REMARK    1  A    between atoms: C_1  and  C_2
REMARK    2  A    between atoms: C_4  and  N_5
REMARK    3  A    between atoms: N_9  and  C_10
REMARK    4  A    between atoms: C_10  and  C_11
REMARK    5  A    between atoms: C_14  and  C_15
REMARK                            x       y       z     vdW  Elec       q    Type
REMARK                         _______ _______ _______ _____ _____    ______ ____
ROOT
ATOM      1  N   UNL     1       6.713   5.261  15.754  0.00  0.00    +0.000 N 
ATOM      2  C   UNL     1       7.246   4.285  16.720  0.00  0.00    +0.000 C 
ATOM      3  C   UNL     1       7.703   4.874  18.049  0.00  0.00    +0.000 C 
ATOM      4  C   UNL     1       6.772   5.802  18.822  0.00  0.00    +0.000 C 
ATOM      5  N   UNL     1       5.341   5.698  18.607  0.00  0.00    +0.000 NA
ATOM      6  C   UNL     1       4.922   6.280  17.333  0.00  0.00    +0.000 C 
ATOM      7  C   UNL     1       5.289   5.652  15.969  0.00  0.00    +0.000 C 
ENDROOT
BRANCH   1  11
ATOM      8  C   UNL     1       5.378   2.477  11.771  0.00  0.00    +0.000 C 
ATOM      9  C   UNL     1       6.209   3.533  12.436  0.00  0.00    +0.000 A 
ATOM     10  C   UNL     1       6.047   3.844  13.790  0.00  0.00    +0.000 A 
ATOM     11  C   UNL     1       6.838   4.833  14.381  0.00  0.00    +0.000 A 
ATOM     12  C   UNL     1       7.781   5.469  13.562  0.00  0.00    +0.000 A 
ATOM     13  C   UNL     1       7.870   5.112  12.226  0.00  0.00    +0.000 A 
ATOM     14  N   UNL     1       7.107   4.164  11.648  0.00  0.00    +0.000 NA
ENDBRANCH   1  11
BRANCH   5  15
ATOM     15  C   UNL     1       4.703   4.451  19.027  0.00  0.00    +0.000 C 
BRANCH  15  16
ATOM     16  C   UNL     1       3.350   4.703  19.631  0.00  0.00    +0.000 A 
ATOM     17  C   UNL     1       2.313   3.848  19.961  0.00  0.00    +0.000 A 
ATOM     18  C   UNL     1       1.307   4.637  20.561  0.00  0.00    +0.000 A 
ATOM     19  C   UNL     1       1.771   5.933  20.551  0.00  0.00    +0.000 A 
ATOM     20  C   UNL     1       1.165   7.199  21.019  0.00  0.00    +0.000 C 
ATOM     21  O   UNL     1       3.018   5.985  19.990  0.00  0.00    +0.000 OA
ENDBRANCH  15  16
ENDBRANCH   5  15
TORSDOF 3
ENDMDL
MODEL 5
REMARK VINA RESULT:      -7.0      1.404      1.840
REMARK  Name = 
REMARK  5 active torsions:
REMARK  status: ('A' for Active; 'I' for Inactive)
REMARK    1  A    between atoms: C_1  and  C_2
REMARK    2  A    between atoms: C_4  and  N_5
REMARK    3  A    between atoms: N_9  and  C_10
REMARK    4  A    between atoms: C_10  and  C_11
REMARK    5  A    between atoms: C_14  and  C_15
REMARK                            x       y       z     vdW  Elec       q    Type
REMARK                         _______ _______ _______ _____ _____    ______ ____
ROOT
ATOM      1  N   UNL     1       5.741   4.795  16.025  0.00  0.00    +0.000 N 
ATOM      2  C   UNL     1       4.828   3.764  16.547  0.00  0.00    +0.000 C 
ATOM      3  C   UNL     1       4.798   3.635  18.065  0.00  0.00    +0.000 C 
ATOM      4  C   UNL     1       4.601   4.880  18.924  0.00  0.00    +0.000 C 
ATOM      5  N   UNL     1       3.927   6.029  18.349  0.00  0.00    +0.000 NA
ATOM      6  C   UNL     1       4.773   6.764  17.412  0.00  0.00    +0.000 C 
ATOM      7  C   UNL     1       5.202   6.186  16.044  0.00  0.00    +0.000 C 
ENDROOT
BRANCH   1  11
ATOM      8  C   UNL     1       5.428   2.519  11.540  0.00  0.00    +0.000 C 
ATOM      9  C   UNL     1       6.063   3.477  12.503  0.00  0.00    +0.000 A 
ATOM     10  C   UNL     1       5.580   3.630  13.806  0.00  0.00    +0.000 A 
ATOM     11  C   UNL     1       6.195   4.529  14.681  0.00  0.00    +0.000 A 
ATOM     12  C   UNL     1       7.298   5.241  14.191  0.00  0.00    +0.000 A 
ATOM     13  C   UNL     1       7.708   5.042  12.882  0.00  0.00    +0.000 A 
ATOM     14  N   UNL     1       7.116   4.180  12.032  0.00  0.00    +0.000 NA
ENDBRANCH   1  11
BRANCH   5  15
ATOM     15  C   UNL     1       2.517   5.854  17.998  0.00  0.00    +0.000 C 
BRANCH  15  16
ATOM     16  C   UNL     1       1.941   4.621  18.636  0.00  0.00    +0.000 A 
ATOM     17  C   UNL     1       1.333   3.502  18.097  0.00  0.00    +0.000 A 
ATOM     18  C   UNL     1       1.050   2.631  19.171  0.00  0.00    +0.000 A 
ATOM     19  C   UNL     1       1.483   3.268  20.313  0.00  0.00    +0.000 A 
ATOM     20  C   UNL     1       1.443   2.871  21.738  0.00  0.00    +0.000 C 
ATOM     21  O   UNL     1       2.032   4.481  19.998  0.00  0.00    +0.000 OA
ENDBRANCH  15  16
ENDBRANCH   5  15
TORSDOF 3
ENDMDL
MODEL 6
REMARK VINA RESULT:      -7.0      2.519      3.223
REMARK  Name = 
REMARK  5 active torsions:
REMARK  status: ('A' for Active; 'I' for Inactive)
REMARK    1  A    between atoms: C_1  and  C_2
REMARK    2  A    between atoms: C_4  and  N_5
REMARK    3  A    between atoms: N_9  and  C_10
REMARK    4  A    between atoms: C_10  and  C_11
REMARK    5  A    between atoms: C_14  and  C_15
REMARK                            x       y       z     vdW  Elec       q    Type
REMARK                         _______ _______ _______ _____ _____    ______ ____
ROOT
ATOM      1  N   UNL     1       5.957   4.846  15.953  0.00  0.00    +0.000 N 
ATOM      2  C   UNL     1       4.952   3.923  16.506  0.00  0.00    +0.000 C 
ATOM      3  C   UNL     1       4.969   3.780  18.024  0.00  0.00    +0.000 C 
ATOM      4  C   UNL     1       4.954   5.030  18.898  0.00  0.00    +0.000 C 
ATOM      5  N   UNL     1       4.396   6.256  18.359  0.00  0.00    +0.000 NA
ATOM      6  C   UNL     1       5.284   6.898  17.393  0.00  0.00    +0.000 C 
ATOM      7  C   UNL     1       5.586   6.290  16.004  0.00  0.00    +0.000 C 
ENDROOT
BRANCH   1  11
ATOM      8  C   UNL     1       5.320   2.491  11.543  0.00  0.00    +0.000 C 
ATOM      9  C   UNL     1       6.034   3.453  12.446  0.00  0.00    +0.000 A 
ATOM     10  C   UNL     1       5.635   3.641  13.773  0.00  0.00    +0.000 A 
ATOM     11  C   UNL     1       6.322   4.543  14.590  0.00  0.00    +0.000 A 
ATOM     12  C   UNL     1       7.408   5.221  14.018  0.00  0.00    +0.000 A 
ATOM     13  C   UNL     1       7.732   4.987  12.691  0.00  0.00    +0.000 A 
ATOM     14  N   UNL     1       7.070   4.123  11.897  0.00  0.00    +0.000 NA
ENDBRANCH   1  11
BRANCH   5  15
ATOM     15  C   UNL     1       2.963   6.252  18.067  0.00  0.00    +0.000 C 
BRANCH  15  16
ATOM     16  C   UNL     1       2.316   7.546  18.472  0.00  0.00    +0.000 A 
ATOM     17  C   UNL     1       1.966   8.670  17.745  0.00  0.00    +0.000 A 
ATOM     18  C   UNL     1       1.328   9.556  18.641  0.00  0.00    +0.000 A 
ATOM     19  C   UNL     1       1.334   8.937  19.871  0.00  0.00    +0.000 A 
ATOM     20  C   UNL     1       0.834   9.370  21.194  0.00  0.00    +0.000 C 
ATOM     21  O   UNL     1       1.932   7.708  19.779  0.00  0.00    +0.000 OA
ENDBRANCH  15  16
ENDBRANCH   5  15
TORSDOF 3
ENDMDL
MODEL 7
REMARK VINA RESULT:      -7.0      2.181      4.342
REMARK  Name = 
REMARK  5 active torsions:
REMARK  status: ('A' for Active; 'I' for Inactive)
REMARK    1  A    between atoms: C_1  and  C_2
REMARK    2  A    between atoms: C_4  and  N_5
REMARK    3  A    between atoms: N_9  and  C_10
REMARK    4  A    between atoms: C_10  and  C_11
REMARK    5  A    between atoms: C_14  and  C_15
REMARK                            x       y       z     vdW  Elec       q    Type
REMARK                         _______ _______ _______ _____ _____    ______ ____
ROOT
ATOM      1  N   UNL     1       4.646   3.645  17.961  0.00  0.00    +0.000 N 
ATOM      2  C   UNL     1       3.440   3.339  17.174  0.00  0.00    +0.000 C 
ATOM      3  C   UNL     1       2.729   2.046  17.555  0.00  0.00    +0.000 C 
ATOM      4  C   UNL     1       2.387   1.776  19.016  0.00  0.00    +0.000 C 
ATOM      5  N   UNL     1       2.234   2.900  19.920  0.00  0.00    +0.000 NA
ATOM      6  C   UNL     1       3.513   3.499  20.292  0.00  0.00    +0.000 C 
ATOM      7  C   UNL     1       4.393   4.278  19.288  0.00  0.00    +0.000 C 
ENDROOT
BRANCH   1  11
ATOM      8  C   UNL     1       7.669   7.657  17.557  0.00  0.00    +0.000 C 
ATOM      9  C   UNL     1       7.076   6.382  17.037  0.00  0.00    +0.000 A 
ATOM     10  C   UNL     1       6.126   5.665  17.772  0.00  0.00    +0.000 A 
ATOM     11  C   UNL     1       5.590   4.481  17.259  0.00  0.00    +0.000 A 
ATOM     12  C   UNL     1       6.043   4.071  15.997  0.00  0.00    +0.000 A 
ATOM     13  C   UNL     1       6.996   4.831  15.338  0.00  0.00    +0.000 A 
ATOM     14  N   UNL     1       7.521   5.971  15.829  0.00  0.00    +0.000 NA
ENDBRANCH   1  11
BRANCH   5  15
ATOM     15  C   UNL     1       1.111   3.802  19.660  0.00  0.00    +0.000 C 
BRANCH  15  16
ATOM     16  C   UNL     1       1.535   5.242  19.731  0.00  0.00    +0.000 A 
ATOM     17  C   UNL     1       1.624   6.127  20.791  0.00  0.00    +0.000 A 
ATOM     18  C   UNL     1       2.148   7.332  20.276  0.00  0.00    +0.000 A 
ATOM     19  C   UNL     1       2.336   7.130  18.927  0.00  0.00    +0.000 A 
ATOM     20  C   UNL     1       2.836   8.023  17.858  0.00  0.00    +0.000 C 
ATOM     21  O   UNL     1       1.969   5.857  18.584  0.00  0.00    +0.000 OA
ENDBRANCH  15  16
ENDBRANCH   5  15
TORSDOF 3
ENDMDL
MODEL 8
REMARK VINA RESULT:      -6.8      2.155      6.943
REMARK  Name = 
REMARK  5 active torsions:
REMARK  status: ('A' for Active; 'I' for Inactive)
REMARK    1  A    between atoms: C_1  and  C_2
REMARK    2  A    between atoms: C_4  and  N_5
REMARK    3  A    between atoms: N_9  and  C_10
REMARK    4  A    between atoms: C_10  and  C_11
REMARK    5  A    between atoms: C_14  and  C_15
REMARK                            x       y       z     vdW  Elec       q    Type
REMARK                         _______ _______ _______ _____ _____    ______ ____
ROOT
ATOM      1  N   UNL     1       4.855   4.771  18.237  0.00  0.00    +0.000 N 
ATOM      2  C   UNL     1       5.306   6.049  17.661  0.00  0.00    +0.000 C 
ATOM      3  C   UNL     1       6.783   6.107  17.289  0.00  0.00    +0.000 C 
ATOM      4  C   UNL     1       7.389   4.996  16.437  0.00  0.00    +0.000 C 
ATOM      5  N   UNL     1       6.521   4.228  15.564  0.00  0.00    +0.000 NA
ATOM      6  C   UNL     1       5.699   3.268  16.296  0.00  0.00    +0.000 C 
ATOM      7  C   UNL     1       4.556   3.699  17.244  0.00  0.00    +0.000 C 
ENDROOT
BRANCH   1  11
ATOM      8  C   UNL     1       1.366   2.974  21.398  0.00  0.00    +0.000 C 
ATOM      9  C   UNL     1       2.020   4.086  20.632  0.00  0.00    +0.000 A 
ATOM     10  C   UNL     1       3.111   3.848  19.790  0.00  0.00    +0.000 A 
ATOM     11  C   UNL     1       3.697   4.905  19.088  0.00  0.00    +0.000 A 
ATOM     12  C   UNL     1       3.137   6.177  19.267  0.00  0.00    +0.000 A 
ATOM     13  C   UNL     1       2.064   6.331  20.130  0.00  0.00    +0.000 A 
ATOM     14  N   UNL     1       1.497   5.318  20.814  0.00  0.00    +0.000 NA
ENDBRANCH   1  11
BRANCH   5  15
ATOM     15  C   UNL     1       5.898   4.953  14.457  0.00  0.00    +0.000 C 
BRANCH  15  16
ATOM     16  C   UNL     1       5.713   4.067  13.256  0.00  0.00    +0.000 A 
ATOM     17  C   UNL     1       6.545   3.138  12.658  0.00  0.00    +0.000 A 
ATOM     18  C   UNL     1       5.817   2.559  11.596  0.00  0.00    +0.000 A 
ATOM     19  C   UNL     1       4.586   3.175  11.587  0.00  0.00    +0.000 A 
ATOM     20  C   UNL     1       3.409   3.010  10.705  0.00  0.00    +0.000 C 
ATOM     21  O   UNL     1       4.509   4.094  12.599  0.00  0.00    +0.000 OA
ENDBRANCH  15  16
ENDBRANCH   5  15
TORSDOF 3
ENDMDL
MODEL 9
REMARK VINA RESULT:      -6.8      2.645      6.915
REMARK  Name = 
REMARK  5 active torsions:
REMARK  status: ('A' for Active; 'I' for Inactive)
REMARK    1  A    between atoms: C_1  and  C_2
REMARK    2  A    between atoms: C_4  and  N_5
REMARK    3  A    between atoms: N_9  and  C_10
REMARK    4  A    between atoms: C_10  and  C_11
REMARK    5  A    between atoms: C_14  and  C_15
REMARK                            x       y       z     vdW  Elec       q    Type
REMARK                         _______ _______ _______ _____ _____    ______ ____
ROOT
ATOM      1  N   UNL     1       4.837   5.697  17.784  0.00  0.00    +0.000 N 
ATOM      2  C   UNL     1       5.905   6.521  17.195  0.00  0.00    +0.000 C 
ATOM      3  C   UNL     1       7.272   5.851  17.118  0.00  0.00    +0.000 C 
ATOM      4  C   UNL     1       7.395   4.458  16.508  0.00  0.00    +0.000 C 
ATOM      5  N   UNL     1       6.394   4.020  15.554  0.00  0.00    +0.000 NA
ATOM      6  C   UNL     1       5.128   3.667  16.193  0.00  0.00    +0.000 C 
ATOM      7  C   UNL     1       4.205   4.718  16.853  0.00  0.00    +0.000 C 
ENDROOT
BRANCH   1  11
ATOM      8  C   UNL     1       1.619   9.575  17.872  0.00  0.00    +0.000 C 
ATOM      9  C   UNL     1       2.193   8.311  18.439  0.00  0.00    +0.000 A 
ATOM     10  C   UNL     1       3.260   7.652  17.820  0.00  0.00    +0.000 A 
ATOM     11  C   UNL     1       3.774   6.476  18.373  0.00  0.00    +0.000 A 
ATOM     12  C   UNL     1       3.179   6.016  19.556  0.00  0.00    +0.000 A 
ATOM     13  C   UNL     1       2.116   6.720  20.100  0.00  0.00    +0.000 A 
ATOM     14  N   UNL     1       1.612   7.851  19.568  0.00  0.00    +0.000 NA
ENDBRANCH   1  11
BRANCH   5  15
ATOM     15  C   UNL     1       6.336   4.743  14.284  0.00  0.00    +0.000 C 
BRANCH  15  16
ATOM     16  C   UNL     1       5.830   3.865  13.174  0.00  0.00    +0.000 A 
ATOM     17  C   UNL     1       4.635   3.855  12.477  0.00  0.00    +0.000 A 
ATOM     18  C   UNL     1       4.740   2.845  11.496  0.00  0.00    +0.000 A 
ATOM     19  C   UNL     1       5.985   2.278  11.654  0.00  0.00    +0.000 A 
ATOM     20  C   UNL     1       6.660   1.170  10.942  0.00  0.00    +0.000 C 
ATOM     21  O   UNL     1       6.660   2.895  12.673  0.00  0.00    +0.000 OA
ENDBRANCH  15  16
ENDBRANCH   5  15
TORSDOF 3
ENDMDL
