MODEL 1
REMARK VINA RESULT:      -6.9      0.000      0.000
REMARK  Name = 
REMARK  5 active torsions:
REMARK  status: ('A' for Active; 'I' for Inactive)
REMARK    1  A    between atoms: C_1  and  N_2
REMARK    2  A    between atoms: C_6  and  C_7
REMARK    3  A    between atoms: C_7  and  O_9
REMARK    4  A    between atoms: N_12  and  N_13
REMARK    5  A    between atoms: C_14  and  C_16
REMARK                            x       y       z     vdW  Elec       q    Type
REMARK                         _______ _______ _______ _____ _____    ______ ____
ROOT
ATOM      1  C   UNL     1       3.281   5.697  19.870  0.00  0.00    +0.000 C 
ATOM      2  N   UNL     1       3.839   5.799  18.536  0.00  0.00    +0.000 N 
ATOM      3  C   UNL     1       4.655   4.772  18.098  0.00  0.00    +0.000 C 
ATOM      4  O   UNL     1       4.905   3.740  18.707  0.00  0.00    +0.000 OA
ATOM      5  C   UNL     1       5.242   5.090  16.773  0.00  0.00    +0.000 C 
ATOM      6  C   UNL     1       6.062   4.227  16.167  0.00  0.00    +0.000 C 
ATOM      7  S   UNL     1       4.706   6.627  16.249  0.00  0.00    +0.000 S 
ATOM      8  C   UNL     1       3.740   6.886  17.696  0.00  0.00    +0.000 C 
ATOM      9  N   UNL     1       3.113   8.012  17.801  0.00  0.00    +0.000 NA
ENDROOT
BRANCH   9  10
ATOM     10  N   UNL     1       2.261   8.241  18.825  0.00  0.00    +0.000 N 
ATOM     11  C   UNL     1       1.606   9.458  18.958  0.00  0.00    +0.000 C 
ATOM     12  O   UNL     1       1.743  10.425  18.215  0.00  0.00    +0.000 OA
ATOM     13  H   UNL     1       2.078   7.502  19.483  0.00  0.00    +0.000 HD
BRANCH  11  14
ATOM     14  C   UNL     1       0.756   9.571  20.180  0.00  0.00    +0.000 A 
ATOM     15  C   UNL     1       0.046  10.761  20.385  0.00  0.00    +0.000 A 
ATOM     16  C   UNL     1      -0.697  10.943  21.553  0.00  0.00    +0.000 A 
ATOM     17  C   UNL     1      -0.740   9.938  22.519  0.00  0.00    +0.000 A 
ATOM     18  C   UNL     1      -0.057   8.741  22.311  0.00  0.00    +0.000 A 
ATOM     19  C   UNL     1       0.682   8.551  21.142  0.00  0.00    +0.000 A 
ENDBRANCH  11  14
ENDBRANCH   9  10
BRANCH   6  20
ATOM     20  C   UNL     1       6.739   4.328  14.867  0.00  0.00    +0.000 C 
ATOM     21  O   UNL     1       7.565   5.203  14.660  0.00  0.00    +0.000 OA
BRANCH  20  22
ATOM     22  O   UNL     1       6.360   3.449  13.927  0.00  0.00    +0.000 OA
ATOM     23  H   UNL     1       6.378   2.510  14.197  0.00  0.00    +0.000 HD
ENDBRANCH  20  22
ENDBRANCH   6  20
TORSDOF 4
ENDMDL
MODEL 2
REMARK VINA RESULT:      -6.9      2.662      8.469
REMARK  Name = 
REMARK  5 active torsions:
REMARK  status: ('A' for Active; 'I' for Inactive)
REMARK    1  A    between atoms: C_1  and  N_2
REMARK    2  A    between atoms: C_6  and  C_7
REMARK    3  A    between atoms: C_7  and  O_9
REMARK    4  A    between atoms: N_12  and  N_13
REMARK    5  A    between atoms: C_14  and  C_16
REMARK                            x       y       z     vdW  Elec       q    Type
REMARK                         _______ _______ _______ _____ _____    ______ ____
ROOT
ATOM      1  C   UNL     1       2.152   9.134  17.745  0.00  0.00    +0.000 C 
ATOM      2  N   UNL     1       1.545   8.987  19.054  0.00  0.00    +0.000 N 
ATOM      3  C   UNL     1       0.785  10.039  19.533  0.00  0.00    +0.000 C 
ATOM      4  O   UNL     1       0.517  11.069  18.930  0.00  0.00    +0.000 OA
ATOM      5  C   UNL     1       0.345   9.780  20.927  0.00  0.00    +0.000 C 
ATOM      6  C   UNL     1      -0.404  10.673  21.580  0.00  0.00    +0.000 C 
ATOM      7  S   UNL     1       0.939   8.268  21.458  0.00  0.00    +0.000 S 
ATOM      8  C   UNL     1       1.751   7.946  19.931  0.00  0.00    +0.000 C 
ATOM      9  N   UNL     1       2.426   6.847  19.835  0.00  0.00    +0.000 NA
ENDROOT
BRANCH   9  10
ATOM     10  N   UNL     1       2.982   6.473  18.660  0.00  0.00    +0.000 N 
ATOM     11  C   UNL     1       4.116   5.674  18.623  0.00  0.00    +0.000 C 
ATOM     12  O   UNL     1       4.729   5.262  19.603  0.00  0.00    +0.000 OA
ATOM     13  H   UNL     1       2.543   6.757  17.800  0.00  0.00    +0.000 HD
BRANCH  11  14
ATOM     14  C   UNL     1       4.641   5.412  17.251  0.00  0.00    +0.000 A 
ATOM     15  C   UNL     1       4.921   4.087  16.891  0.00  0.00    +0.000 A 
ATOM     16  C   UNL     1       5.488   3.802  15.647  0.00  0.00    +0.000 A 
ATOM     17  C   UNL     1       5.775   4.835  14.756  0.00  0.00    +0.000 A 
ATOM     18  C   UNL     1       5.478   6.154  15.096  0.00  0.00    +0.000 A 
ATOM     19  C   UNL     1       4.904   6.443  16.335  0.00  0.00    +0.000 A 
ENDBRANCH  11  14
ENDBRANCH   9  10
BRANCH   6  20
ATOM     20  C   UNL     1      -0.954  10.622  22.942  0.00  0.00    +0.000 C 
ATOM     21  O   UNL     1      -1.916  11.305  23.253  0.00  0.00    +0.000 OA
BRANCH  20  22
ATOM     22  O   UNL     1      -0.311   9.831  23.815  0.00  0.00    +0.000 OA
ATOM     23  H   UNL     1      -0.133   8.922  23.508  0.00  0.00    +0.000 HD
ENDBRANCH  20  22
ENDBRANCH   6  20
TORSDOF 4
ENDMDL
MODEL 3
REMARK VINA RESULT:      -6.9      2.634      8.335
REMARK  Name = 
REMARK  5 active torsions:
REMARK  status: ('A' for Active; 'I' for Inactive)
REMARK    1  A    between atoms: C_1  and  N_2
REMARK    2  A    between atoms: C_6  and  C_7
REMARK    3  A    between atoms: C_7  and  O_9
REMARK    4  A    between atoms: N_12  and  N_13
REMARK    5  A    between atoms: C_14  and  C_16
REMARK                            x       y       z     vdW  Elec       q    Type
REMARK                         _______ _______ _______ _____ _____    ______ ____
ROOT
ATOM      1  C   UNL     1       2.342   8.856  17.790  0.00  0.00    +0.000 C 
ATOM      2  N   UNL     1       1.716   8.746  19.094  0.00  0.00    +0.000 N 
ATOM      3  C   UNL     1       0.982   9.826  19.549  0.00  0.00    +0.000 C 
ATOM      4  O   UNL     1       0.750  10.854  18.927  0.00  0.00    +0.000 OA
ATOM      5  C   UNL     1       0.519   9.602  20.941  0.00  0.00    +0.000 C 
ATOM      6  C   UNL     1      -0.211  10.526  21.572  0.00  0.00    +0.000 C 
ATOM      7  S   UNL     1       1.064   8.081  21.502  0.00  0.00    +0.000 S 
ATOM      8  C   UNL     1       1.884   7.713  19.989  0.00  0.00    +0.000 C 
ATOM      9  N   UNL     1       2.528   6.595  19.917  0.00  0.00    +0.000 NA
ENDROOT
BRANCH   9  10
ATOM     10  N   UNL     1       3.086   6.187  18.755  0.00  0.00    +0.000 N 
ATOM     11  C   UNL     1       4.347   5.608  18.726  0.00  0.00    +0.000 C 
ATOM     12  O   UNL     1       5.074   5.438  19.700  0.00  0.00    +0.000 OA
ATOM     13  H   UNL     1       2.560   6.279  17.902  0.00  0.00    +0.000 HD
BRANCH  11  14
ATOM     14  C   UNL     1       4.844   5.280  17.357  0.00  0.00    +0.000 A 
ATOM     15  C   UNL     1       4.971   6.323  16.431  0.00  0.00    +0.000 A 
ATOM     16  C   UNL     1       5.355   6.052  15.116  0.00  0.00    +0.000 A 
ATOM     17  C   UNL     1       5.618   4.741  14.720  0.00  0.00    +0.000 A 
ATOM     18  C   UNL     1       5.517   3.700  15.642  0.00  0.00    +0.000 A 
ATOM     19  C   UNL     1       5.141   3.966  16.960  0.00  0.00    +0.000 A 
ENDBRANCH  11  14
ENDBRANCH   9  10
BRANCH   6  20
ATOM     20  C   UNL     1      -0.777  10.511  22.928  0.00  0.00    +0.000 C 
ATOM     21  O   UNL     1      -1.790  11.141  23.188  0.00  0.00    +0.000 OA
BRANCH  20  22
ATOM     22  O   UNL     1      -0.095   9.817  23.851  0.00  0.00    +0.000 OA
ATOM     23  H   UNL     1       0.473   9.101  23.506  0.00  0.00    +0.000 HD
ENDBRANCH  20  22
ENDBRANCH   6  20
TORSDOF 4
ENDMDL
MODEL 4
REMARK VINA RESULT:      -6.7      0.244      1.080
REMARK  Name = 
REMARK  5 active torsions:
REMARK  status: ('A' for Active; 'I' for Inactive)
REMARK    1  A    between atoms: C_1  and  N_2
REMARK    2  A    between atoms: C_6  and  C_7
REMARK    3  A    between atoms: C_7  and  O_9
REMARK    4  A    between atoms: N_12  and  N_13
REMARK    5  A    between atoms: C_14  and  C_16
REMARK                            x       y       z     vdW  Elec       q    Type
REMARK                         _______ _______ _______ _____ _____    ______ ____
ROOT
ATOM      1  C   UNL     1       3.511   5.657  19.771  0.00  0.00    +0.000 C 
ATOM      2  N   UNL     1       4.009   5.764  18.414  0.00  0.00    +0.000 N 
ATOM      3  C   UNL     1       4.805   4.738  17.937  0.00  0.00    +0.000 C 
ATOM      4  O   UNL     1       5.083   3.705  18.531  0.00  0.00    +0.000 OA
ATOM      5  C   UNL     1       5.331   5.061  16.588  0.00  0.00    +0.000 C 
ATOM      6  C   UNL     1       6.124   4.201  15.943  0.00  0.00    +0.000 C 
ATOM      7  S   UNL     1       4.772   6.600  16.093  0.00  0.00    +0.000 S 
ATOM      8  C   UNL     1       3.872   6.854  17.583  0.00  0.00    +0.000 C 
ATOM      9  N   UNL     1       3.250   7.979  17.720  0.00  0.00    +0.000 NA
ENDROOT
BRANCH   9  10
ATOM     10  N   UNL     1       2.444   8.204  18.782  0.00  0.00    +0.000 N 
ATOM     11  C   UNL     1       1.709   9.377  18.892  0.00  0.00    +0.000 C 
ATOM     12  O   UNL     1       1.731  10.308  18.093  0.00  0.00    +0.000 OA
ATOM     13  H   UNL     1       2.356   7.492  19.487  0.00  0.00    +0.000 HD
BRANCH  11  14
ATOM     14  C   UNL     1       0.926   9.497  20.157  0.00  0.00    +0.000 A 
ATOM     15  C   UNL     1       0.843   8.377  20.994  0.00  0.00    +0.000 A 
ATOM     16  C   UNL     1       0.056   8.418  22.147  0.00  0.00    +0.000 A 
ATOM     17  C   UNL     1      -0.648   9.577  22.472  0.00  0.00    +0.000 A 
ATOM     18  C   UNL     1      -0.551  10.704  21.658  0.00  0.00    +0.000 A 
ATOM     19  C   UNL     1       0.240  10.671  20.508  0.00  0.00    +0.000 A 
ENDBRANCH  11  14
ENDBRANCH   9  10
BRANCH   6  20
ATOM     20  C   UNL     1       6.743   4.307  14.614  0.00  0.00    +0.000 C 
ATOM     21  O   UNL     1       7.544   5.194  14.368  0.00  0.00    +0.000 OA
BRANCH  20  22
ATOM     22  O   UNL     1       6.337   3.417  13.695  0.00  0.00    +0.000 OA
ATOM     23  H   UNL     1       5.529   2.918  13.920  0.00  0.00    +0.000 HD
ENDBRANCH  20  22
ENDBRANCH   6  20
TORSDOF 4
ENDMDL
MODEL 5
REMARK VINA RESULT:      -6.7      3.691      8.664
REMARK  Name = 
REMARK  5 active torsions:
REMARK  status: ('A' for Active; 'I' for Inactive)
REMARK    1  A    between atoms: C_1  and  N_2
REMARK    2  A    between atoms: C_6  and  C_7
REMARK    3  A    between atoms: C_7  and  O_9
REMARK    4  A    between atoms: N_12  and  N_13
REMARK    5  A    between atoms: C_14  and  C_16
REMARK                            x       y       z     vdW  Elec       q    Type
REMARK                         _______ _______ _______ _____ _____    ______ ____
ROOT
ATOM      1  C   UNL     1       1.464   9.327  18.464  0.00  0.00    +0.000 C 
ATOM      2  N   UNL     1       0.853   9.604  19.750  0.00  0.00    +0.000 N 
ATOM      3  C   UNL     1       0.144  10.784  19.885  0.00  0.00    +0.000 C 
ATOM      4  O   UNL     1      -0.078  11.598  18.999  0.00  0.00    +0.000 OA
ATOM      5  C   UNL     1      -0.305  10.974  21.287  0.00  0.00    +0.000 C 
ATOM      6  C   UNL     1      -1.011  12.053  21.635  0.00  0.00    +0.000 C 
ATOM      7  S   UNL     1       0.220   9.664  22.252  0.00  0.00    +0.000 S 
ATOM      8  C   UNL     1       1.014   8.864  20.900  0.00  0.00    +0.000 C 
ATOM      9  N   UNL     1       1.638   7.759  21.144  0.00  0.00    +0.000 NA
ENDROOT
BRANCH   9  10
ATOM     10  N   UNL     1       2.173   7.027  20.141  0.00  0.00    +0.000 N 
ATOM     11  C   UNL     1       2.097   5.641  20.142  0.00  0.00    +0.000 C 
ATOM     12  O   UNL     1       1.588   4.957  21.024  0.00  0.00    +0.000 OA
ATOM     13  H   UNL     1       2.606   7.502  19.367  0.00  0.00    +0.000 HD
BRANCH  11  14
ATOM     14  C   UNL     1       2.799   4.984  19.000  0.00  0.00    +0.000 A 
ATOM     15  C   UNL     1       4.057   5.473  18.625  0.00  0.00    +0.000 A 
ATOM     16  C   UNL     1       4.714   4.943  17.513  0.00  0.00    +0.000 A 
ATOM     17  C   UNL     1       4.123   3.921  16.773  0.00  0.00    +0.000 A 
ATOM     18  C   UNL     1       2.882   3.412  17.152  0.00  0.00    +0.000 A 
ATOM     19  C   UNL     1       2.223   3.933  18.268  0.00  0.00    +0.000 A 
ENDBRANCH  11  14
ENDBRANCH   9  10
BRANCH   6  20
ATOM     20  C   UNL     1      -1.559  12.435  22.944  0.00  0.00    +0.000 C 
ATOM     21  O   UNL     1      -1.048  13.329  23.598  0.00  0.00    +0.000 OA
BRANCH  20  22
ATOM     22  O   UNL     1      -2.605  11.718  23.384  0.00  0.00    +0.000 OA
ATOM     23  H   UNL     1      -3.346  12.236  23.752  0.00  0.00    +0.000 HD
ENDBRANCH  20  22
ENDBRANCH   6  20
TORSDOF 4
ENDMDL
MODEL 6
REMARK VINA RESULT:      -6.7      3.607      8.771
REMARK  Name = 
REMARK  5 active torsions:
REMARK  status: ('A' for Active; 'I' for Inactive)
REMARK    1  A    between atoms: C_1  and  N_2
REMARK    2  A    between atoms: C_6  and  C_7
REMARK    3  A    between atoms: C_7  and  O_9
REMARK    4  A    between atoms: N_12  and  N_13
REMARK    5  A    between atoms: C_14  and  C_16
REMARK                            x       y       z     vdW  Elec       q    Type
REMARK                         _______ _______ _______ _____ _____    ______ ____
ROOT
ATOM      1  C   UNL     1       1.478   9.545  18.413  0.00  0.00    +0.000 C 
ATOM      2  N   UNL     1       0.832   9.755  19.694  0.00  0.00    +0.000 N 
ATOM      3  C   UNL     1       0.107  10.921  19.866  0.00  0.00    +0.000 C 
ATOM      4  O   UNL     1      -0.101  11.773  19.014  0.00  0.00    +0.000 OA
ATOM      5  C   UNL     1      -0.380  11.040  21.263  0.00  0.00    +0.000 C 
ATOM      6  C   UNL     1      -1.105  12.095  21.643  0.00  0.00    +0.000 C 
ATOM      7  S   UNL     1       0.134   9.690  22.179  0.00  0.00    +0.000 S 
ATOM      8  C   UNL     1       0.970   8.963  20.812  0.00  0.00    +0.000 C 
ATOM      9  N   UNL     1       1.599   7.853  21.020  0.00  0.00    +0.000 NA
ENDROOT
BRANCH   9  10
ATOM     10  N   UNL     1       2.168   7.174  19.998  0.00  0.00    +0.000 N 
ATOM     11  C   UNL     1       2.182   5.787  19.976  0.00  0.00    +0.000 C 
ATOM     12  O   UNL     1       1.729   5.056  20.852  0.00  0.00    +0.000 OA
ATOM     13  H   UNL     1       2.559   7.690  19.228  0.00  0.00    +0.000 HD
BRANCH  11  14
ATOM     14  C   UNL     1       2.909   5.196  18.814  0.00  0.00    +0.000 A 
ATOM     15  C   UNL     1       2.672   3.851  18.498  0.00  0.00    +0.000 A 
ATOM     16  C   UNL     1       3.389   3.234  17.471  0.00  0.00    +0.000 A 
ATOM     17  C   UNL     1       4.342   3.955  16.752  0.00  0.00    +0.000 A 
ATOM     18  C   UNL     1       4.567   5.299  17.044  0.00  0.00    +0.000 A 
ATOM     19  C   UNL     1       3.848   5.923  18.065  0.00  0.00    +0.000 A 
ENDBRANCH  11  14
ENDBRANCH   9  10
BRANCH   6  20
ATOM     20  C   UNL     1      -1.692  12.409  22.954  0.00  0.00    +0.000 C 
ATOM     21  O   UNL     1      -2.587  11.722  23.418  0.00  0.00    +0.000 OA
BRANCH  20  22
ATOM     22  O   UNL     1      -1.225  13.507  23.567  0.00  0.00    +0.000 OA
ATOM     23  H   UNL     1      -0.647  14.079  23.026  0.00  0.00    +0.000 HD
ENDBRANCH  20  22
ENDBRANCH   6  20
TORSDOF 4
ENDMDL
MODEL 7
REMARK VINA RESULT:      -6.6      2.703      3.708
REMARK  Name = 
REMARK  5 active torsions:
REMARK  status: ('A' for Active; 'I' for Inactive)
REMARK    1  A    between atoms: C_1  and  N_2
REMARK    2  A    between atoms: C_6  and  C_7
REMARK    3  A    between atoms: C_7  and  O_9
REMARK    4  A    between atoms: N_12  and  N_13
REMARK    5  A    between atoms: C_14  and  C_16
REMARK                            x       y       z     vdW  Elec       q    Type
REMARK                         _______ _______ _______ _____ _____    ______ ____
ROOT
ATOM      1  C   UNL     1       2.566   8.104  18.246  0.00  0.00    +0.000 C 
ATOM      2  N   UNL     1       2.752   6.808  18.868  0.00  0.00    +0.000 N 
ATOM      3  C   UNL     1       3.467   5.853  18.167  0.00  0.00    +0.000 C 
ATOM      4  O   UNL     1       4.021   6.015  17.089  0.00  0.00    +0.000 OA
ATOM      5  C   UNL     1       3.456   4.553  18.883  0.00  0.00    +0.000 C 
ATOM      6  C   UNL     1       4.092   3.493  18.377  0.00  0.00    +0.000 C 
ATOM      7  S   UNL     1       2.553   4.688  20.328  0.00  0.00    +0.000 S 
ATOM      8  C   UNL     1       2.176   6.383  20.045  0.00  0.00    +0.000 C 
ATOM      9  N   UNL     1       1.426   6.980  20.912  0.00  0.00    +0.000 NA
ENDROOT
BRANCH   9  10
ATOM     10  N   UNL     1       1.187   8.309  20.827  0.00  0.00    +0.000 N 
ATOM     11  C   UNL     1       0.076   8.879  21.431  0.00  0.00    +0.000 C 
ATOM     12  O   UNL     1      -0.788   8.269  22.054  0.00  0.00    +0.000 OA
ATOM     13  H   UNL     1       1.846   8.893  20.341  0.00  0.00    +0.000 HD
BRANCH  11  14
ATOM     14  C   UNL     1      -0.078  10.343  21.182  0.00  0.00    +0.000 A 
ATOM     15  C   UNL     1      -0.525  11.151  22.236  0.00  0.00    +0.000 A 
ATOM     16  C   UNL     1      -0.761  12.511  22.027  0.00  0.00    +0.000 A 
ATOM     17  C   UNL     1      -0.548  13.073  20.769  0.00  0.00    +0.000 A 
ATOM     18  C   UNL     1      -0.080  12.282  19.721  0.00  0.00    +0.000 A 
ATOM     19  C   UNL     1       0.164  10.922  19.926  0.00  0.00    +0.000 A 
ENDBRANCH  11  14
ENDBRANCH   9  10
BRANCH   6  20
ATOM     20  C   UNL     1       4.220   2.130  18.912  0.00  0.00    +0.000 C 
ATOM     21  O   UNL     1       3.564   1.213  18.447  0.00  0.00    +0.000 OA
BRANCH  20  22
ATOM     22  O   UNL     1       5.049   1.976  19.956  0.00  0.00    +0.000 OA
ATOM     23  H   UNL     1       4.911   1.168  20.488  0.00  0.00    +0.000 HD
ENDBRANCH  20  22
ENDBRANCH   6  20
TORSDOF 4
ENDMDL
MODEL 8
REMARK VINA RESULT:      -6.6      2.697      3.689
REMARK  Name = 
REMARK  5 active torsions:
REMARK  status: ('A' for Active; 'I' for Inactive)
REMARK    1  A    between atoms: C_1  and  N_2
REMARK    2  A    between atoms: C_6  and  C_7
REMARK    3  A    between atoms: C_7  and  O_9
REMARK    4  A    between atoms: N_12  and  N_13
REMARK    5  A    between atoms: C_14  and  C_16
REMARK                            x       y       z     vdW  Elec       q    Type
REMARK                         _______ _______ _______ _____ _____    ______ ____
ROOT
ATOM      1  C   UNL     1       2.584   7.955  18.197  0.00  0.00    +0.000 C 
ATOM      2  N   UNL     1       2.795   6.678  18.851  0.00  0.00    +0.000 N 
ATOM      3  C   UNL     1       3.530   5.721  18.174  0.00  0.00    +0.000 C 
ATOM      4  O   UNL     1       4.083   5.868  17.093  0.00  0.00    +0.000 OA
ATOM      5  C   UNL     1       3.544   4.439  18.921  0.00  0.00    +0.000 C 
ATOM      6  C   UNL     1       4.202   3.380  18.442  0.00  0.00    +0.000 C 
ATOM      7  S   UNL     1       2.635   4.590  20.362  0.00  0.00    +0.000 S 
ATOM      8  C   UNL     1       2.225   6.270  20.037  0.00  0.00    +0.000 C 
ATOM      9  N   UNL     1       1.461   6.873  20.888  0.00  0.00    +0.000 NA
ENDROOT
BRANCH   9  10
ATOM     10  N   UNL     1       1.195   8.194  20.770  0.00  0.00    +0.000 N 
ATOM     11  C   UNL     1       0.065   8.754  21.349  0.00  0.00    +0.000 C 
ATOM     12  O   UNL     1      -0.792   8.140  21.976  0.00  0.00    +0.000 OA
ATOM     13  H   UNL     1       1.848   8.781  20.279  0.00  0.00    +0.000 HD
BRANCH  11  14
ATOM     14  C   UNL     1      -0.116  10.209  21.066  0.00  0.00    +0.000 A 
ATOM     15  C   UNL     1       0.197  10.677  19.783  0.00  0.00    +0.000 A 
ATOM     16  C   UNL     1       0.120  12.042  19.495  0.00  0.00    +0.000 A 
ATOM     17  C   UNL     1      -0.273  12.943  20.483  0.00  0.00    +0.000 A 
ATOM     18  C   UNL     1      -0.610  12.483  21.755  0.00  0.00    +0.000 A 
ATOM     19  C   UNL     1      -0.541  11.119  22.046  0.00  0.00    +0.000 A 
ENDBRANCH  11  14
ENDBRANCH   9  10
BRANCH   6  20
ATOM     20  C   UNL     1       4.356   2.033  19.011  0.00  0.00    +0.000 C 
ATOM     21  O   UNL     1       3.711   1.094  18.575  0.00  0.00    +0.000 OA
BRANCH  20  22
ATOM     22  O   UNL     1       5.197   1.918  20.051  0.00  0.00    +0.000 OA
ATOM     23  H   UNL     1       4.836   2.193  20.916  0.00  0.00    +0.000 HD
ENDBRANCH  20  22
ENDBRANCH   6  20
TORSDOF 4
ENDMDL
MODEL 9
REMARK VINA RESULT:      -6.5      3.193      8.613
REMARK  Name = 
REMARK  5 active torsions:
REMARK  status: ('A' for Active; 'I' for Inactive)
REMARK    1  A    between atoms: C_1  and  N_2
REMARK    2  A    between atoms: C_6  and  C_7
REMARK    3  A    between atoms: C_7  and  O_9
REMARK    4  A    between atoms: N_12  and  N_13
REMARK    5  A    between atoms: C_14  and  C_16
REMARK                            x       y       z     vdW  Elec       q    Type
REMARK                         _______ _______ _______ _____ _____    ______ ____
ROOT
ATOM      1  C   UNL     1       1.842   9.839  17.911  0.00  0.00    +0.000 C 
ATOM      2  N   UNL     1       1.041   9.869  19.119  0.00  0.00    +0.000 N 
ATOM      3  C   UNL     1       0.253  10.984  19.342  0.00  0.00    +0.000 C 
ATOM      4  O   UNL     1       0.113  11.932  18.581  0.00  0.00    +0.000 OA
ATOM      5  C   UNL     1      -0.399  10.913  20.673  0.00  0.00    +0.000 C 
ATOM      6  C   UNL     1      -1.208  11.893  21.087  0.00  0.00    +0.000 C 
ATOM      7  S   UNL     1       0.058   9.474  21.474  0.00  0.00    +0.000 S 
ATOM      8  C   UNL     1       1.079   8.947  20.141  0.00  0.00    +0.000 C 
ATOM      9  N   UNL     1       1.724   7.836  20.288  0.00  0.00    +0.000 NA
ENDROOT
BRANCH   9  10
ATOM     10  N   UNL     1       2.437   7.307  19.268  0.00  0.00    +0.000 N 
ATOM     11  C   UNL     1       2.891   5.996  19.312  0.00  0.00    +0.000 C 
ATOM     12  O   UNL     1       2.730   5.218  20.247  0.00  0.00    +0.000 OA
ATOM     13  H   UNL     1       2.613   7.869  18.452  0.00  0.00    +0.000 HD
BRANCH  11  14
ATOM     14  C   UNL     1       3.721   5.591  18.139  0.00  0.00    +0.000 A 
ATOM     15  C   UNL     1       4.319   6.598  17.371  0.00  0.00    +0.000 A 
ATOM     16  C   UNL     1       5.038   6.271  16.219  0.00  0.00    +0.000 A 
ATOM     17  C   UNL     1       5.165   4.938  15.830  0.00  0.00    +0.000 A 
ATOM     18  C   UNL     1       4.593   3.928  16.601  0.00  0.00    +0.000 A 
ATOM     19  C   UNL     1       3.881   4.249  17.758  0.00  0.00    +0.000 A 
ENDBRANCH  11  14
ENDBRANCH   9  10
BRANCH   6  20
ATOM     20  C   UNL     1      -1.957  12.024  22.345  0.00  0.00    +0.000 C 
ATOM     21  O   UNL     1      -3.158  12.240  22.336  0.00  0.00    +0.000 OA
BRANCH  20  22
ATOM     22  O   UNL     1      -1.241  11.946  23.477  0.00  0.00    +0.000 OA
ATOM     23  H   UNL     1      -1.712  12.203  24.292  0.00  0.00    +0.000 HD
ENDBRANCH  20  22
ENDBRANCH   6  20
TORSDOF 4
ENDMDL
