MODEL 1
REMARK VINA RESULT:      -8.7      0.000      0.000
REMARK  Name = 
REMARK  5 active torsions:
REMARK  status: ('A' for Active; 'I' for Inactive)
REMARK    1  A    between atoms: C_1  and  N_2
REMARK    2  A    between atoms: C_3  and  C_5
REMARK    3  A    between atoms: C_8  and  C_9
REMARK    4  A    between atoms: C_16  and  C_17
REMARK    5  A    between atoms: C_20  and  C_21
REMARK                            x       y       z     vdW  Elec       q    Type
REMARK                         _______ _______ _______ _____ _____    ______ ____
ROOT
ATOM      1  C   UNL     1       2.214   7.762  18.207  0.00  0.00    +0.000 C 
ATOM      2  C   UNL     1       1.851   8.645  19.159  0.00  0.00    +0.000 C 
ATOM      3  C   UNL     1       1.850   8.420  20.644  0.00  0.00    +0.000 C 
ATOM      4  C   UNL     1       0.516   8.700  21.341  0.00  0.00    +0.000 C 
ATOM      5  C   UNL     1       0.256  10.197  21.501  0.00  0.00    +0.000 C 
ATOM      6  C   UNL     1      -0.355  10.888  20.282  0.00  0.00    +0.000 C 
ATOM      7  C   UNL     1       0.025  10.360  18.929  0.00  0.00    +0.000 C 
ATOM      8  C   UNL     1      -0.808  10.178  17.886  0.00  0.00    +0.000 C 
ATOM      9  C   UNL     1       1.442   9.991  18.661  0.00  0.00    +0.000 C 
ATOM     10  O   UNL     1       2.187  10.704  18.000  0.00  0.00    +0.000 OA
ENDROOT
BRANCH   1  14
ATOM     11  C   UNL     1       3.355   3.694  18.886  0.00  0.00    +0.000 A 
ATOM     12  C   UNL     1       4.160   4.742  19.338  0.00  0.00    +0.000 A 
ATOM     13  C   UNL     1       3.775   6.069  19.115  0.00  0.00    +0.000 A 
ATOM     14  C   UNL     1       2.574   6.360  18.453  0.00  0.00    +0.000 A 
ATOM     15  C   UNL     1       1.747   5.309  18.040  0.00  0.00    +0.000 A 
ATOM     16  C   UNL     1       2.139   3.980  18.251  0.00  0.00    +0.000 A 
BRANCH  11  19
ATOM     17  C   UNL     1       5.078   0.659  20.241  0.00  0.00    +0.000 C 
ATOM     18  N   UNL     1       4.662   2.032  19.997  0.00  0.00    +0.000 NA
ATOM     19  C   UNL     1       3.799   2.271  19.070  0.00  0.00    +0.000 C 
ATOM     20  N   UNL     1       3.264   1.332  18.216  0.00  0.00    +0.000 N 
ATOM     21  H   UNL     1       3.797   0.475  18.140  0.00  0.00    +0.000 HD
ATOM     22  H   UNL     1       2.992   1.682  17.304  0.00  0.00    +0.000 HD
ENDBRANCH  11  19
ENDBRANCH   1  14
BRANCH   8  23
ATOM     23  C   UNL     1      -2.250  10.440  17.924  0.00  0.00    +0.000 A 
ATOM     24  C   UNL     1      -3.167   9.439  17.586  0.00  0.00    +0.000 A 
ATOM     25  C   UNL     1      -4.542   9.699  17.630  0.00  0.00    +0.000 A 
ATOM     26  C   UNL     1      -5.007  10.964  18.011  0.00  0.00    +0.000 A 
ATOM     27  C   UNL     1      -4.090  11.971  18.328  0.00  0.00    +0.000 A 
ATOM     28  C   UNL     1      -2.717  11.708  18.287  0.00  0.00    +0.000 A 
BRANCH  26  29
ATOM     29  C   UNL     1      -6.472  11.229  18.074  0.00  0.00    +0.000 C 
ATOM     30  N   UNL     1      -7.282  10.549  18.822  0.00  0.00    +0.000 NA
ATOM     31  N   UNL     1      -7.031  12.222  17.325  0.00  0.00    +0.000 N 
ATOM     32  H   UNL     1      -6.795   9.790  19.307  0.00  0.00    +0.000 HD
ATOM     33  H   UNL     1      -6.483  13.065  17.220  0.00  0.00    +0.000 HD
ATOM     34  H   UNL     1      -7.983  12.410  17.627  0.00  0.00    +0.000 HD
ENDBRANCH  26  29
ENDBRANCH   8  23
TORSDOF 4
ENDMDL
MODEL 2
REMARK VINA RESULT:      -8.6      0.243      1.416
REMARK  Name = 
REMARK  5 active torsions:
REMARK  status: ('A' for Active; 'I' for Inactive)
REMARK    1  A    between atoms: C_1  and  N_2
REMARK    2  A    between atoms: C_3  and  C_5
REMARK    3  A    between atoms: C_8  and  C_9
REMARK    4  A    between atoms: C_16  and  C_17
REMARK    5  A    between atoms: C_20  and  C_21
REMARK                            x       y       z     vdW  Elec       q    Type
REMARK                         _______ _______ _______ _____ _____    ______ ____
ROOT
ATOM      1  C   UNL     1       2.223   7.974  18.198  0.00  0.00    +0.000 C 
ATOM      2  C   UNL     1       1.836   8.782  19.205  0.00  0.00    +0.000 C 
ATOM      3  C   UNL     1       1.838   8.459  20.672  0.00  0.00    +0.000 C 
ATOM      4  C   UNL     1       0.497   8.658  21.381  0.00  0.00    +0.000 C 
ATOM      5  C   UNL     1       0.198  10.135  21.639  0.00  0.00    +0.000 C 
ATOM      6  C   UNL     1      -0.429  10.889  20.466  0.00  0.00    +0.000 C 
ATOM      7  C   UNL     1      -0.033  10.462  19.083  0.00  0.00    +0.000 C 
ATOM      8  C   UNL     1      -0.859  10.328  18.027  0.00  0.00    +0.000 C 
ATOM      9  C   UNL     1       1.394  10.148  18.796  0.00  0.00    +0.000 C 
ATOM     10  O   UNL     1       2.121  10.922  18.186  0.00  0.00    +0.000 OA
ENDROOT
BRANCH   1  14
ATOM     11  C   UNL     1       3.292   3.860  18.698  0.00  0.00    +0.000 A 
ATOM     12  C   UNL     1       2.051   4.211  18.160  0.00  0.00    +0.000 A 
ATOM     13  C   UNL     1       1.714   5.559  17.997  0.00  0.00    +0.000 A 
ATOM     14  C   UNL     1       2.619   6.568  18.352  0.00  0.00    +0.000 A 
ATOM     15  C   UNL     1       3.879   6.214  18.850  0.00  0.00    +0.000 A 
ATOM     16  C   UNL     1       4.212   4.865  19.027  0.00  0.00    +0.000 A 
BRANCH  11  19
ATOM     17  C   UNL     1       4.912   0.766  20.047  0.00  0.00    +0.000 C 
ATOM     18  N   UNL     1       4.588   2.155  19.754  0.00  0.00    +0.000 NA
ATOM     19  C   UNL     1       3.630   2.416  18.933  0.00  0.00    +0.000 C 
ATOM     20  N   UNL     1       2.902   1.480  18.232  0.00  0.00    +0.000 N 
ATOM     21  H   UNL     1       3.342   0.572  18.154  0.00  0.00    +0.000 HD
ATOM     22  H   UNL     1       2.538   1.794  17.339  0.00  0.00    +0.000 HD
ENDBRANCH  11  19
ENDBRANCH   1  14
BRANCH   8  23
ATOM     23  C   UNL     1      -2.307  10.549  18.077  0.00  0.00    +0.000 A 
ATOM     24  C   UNL     1      -2.833  11.712  18.651  0.00  0.00    +0.000 A 
ATOM     25  C   UNL     1      -4.217  11.916  18.689  0.00  0.00    +0.000 A 
ATOM     26  C   UNL     1      -5.084  10.955  18.154  0.00  0.00    +0.000 A 
ATOM     27  C   UNL     1      -4.560   9.782  17.600  0.00  0.00    +0.000 A 
ATOM     28  C   UNL     1      -3.177   9.583  17.560  0.00  0.00    +0.000 A 
BRANCH  26  29
ATOM     29  C   UNL     1      -6.557  11.185  18.181  0.00  0.00    +0.000 C 
ATOM     30  N   UNL     1      -7.143  12.093  17.466  0.00  0.00    +0.000 NA
ATOM     31  N   UNL     1      -7.363  10.432  18.981  0.00  0.00    +0.000 N 
ATOM     32  H   UNL     1      -6.465  12.650  16.938  0.00  0.00    +0.000 HD
ATOM     33  H   UNL     1      -7.116   9.455  19.073  0.00  0.00    +0.000 HD
ATOM     34  H   UNL     1      -8.341  10.567  18.739  0.00  0.00    +0.000 HD
ENDBRANCH  26  29
ENDBRANCH   8  23
TORSDOF 4
ENDMDL
MODEL 3
REMARK VINA RESULT:      -8.6      1.111      1.493
REMARK  Name = 
REMARK  5 active torsions:
REMARK  status: ('A' for Active; 'I' for Inactive)
REMARK    1  A    between atoms: C_1  and  N_2
REMARK    2  A    between atoms: C_3  and  C_5
REMARK    3  A    between atoms: C_8  and  C_9
REMARK    4  A    between atoms: C_16  and  C_17
REMARK    5  A    between atoms: C_20  and  C_21
REMARK                            x       y       z     vdW  Elec       q    Type
REMARK                         _______ _______ _______ _____ _____    ______ ____
ROOT
ATOM      1  C   UNL     1       2.168   8.793  18.070  0.00  0.00    +0.000 C 
ATOM      2  C   UNL     1       1.700   9.319  19.220  0.00  0.00    +0.000 C 
ATOM      3  C   UNL     1       1.692   8.666  20.572  0.00  0.00    +0.000 C 
ATOM      4  C   UNL     1       0.323   8.606  21.255  0.00  0.00    +0.000 C 
ATOM      5  C   UNL     1      -0.089   9.960  21.833  0.00  0.00    +0.000 C 
ATOM      6  C   UNL     1      -0.742  10.922  20.840  0.00  0.00    +0.000 C 
ATOM      7  C   UNL     1      -0.284  10.854  19.412  0.00  0.00    +0.000 C 
ATOM      8  C   UNL     1      -1.073  10.914  18.322  0.00  0.00    +0.000 C 
ATOM      9  C   UNL     1       1.169  10.710  19.118  0.00  0.00    +0.000 C 
ATOM     10  O   UNL     1       1.851  11.650  18.731  0.00  0.00    +0.000 OA
ENDROOT
BRANCH   1  14
ATOM     11  C   UNL     1       3.573   4.768  17.704  0.00  0.00    +0.000 A 
ATOM     12  C   UNL     1       2.245   5.027  18.051  0.00  0.00    +0.000 A 
ATOM     13  C   UNL     1       1.795   6.348  18.163  0.00  0.00    +0.000 A 
ATOM     14  C   UNL     1       2.662   7.420  17.913  0.00  0.00    +0.000 A 
ATOM     15  C   UNL     1       3.981   7.157  17.523  0.00  0.00    +0.000 A 
ATOM     16  C   UNL     1       4.436   5.835  17.425  0.00  0.00    +0.000 A 
BRANCH  11  19
ATOM     17  C   UNL     1       3.900   1.089  18.321  0.00  0.00    +0.000 C 
ATOM     18  N   UNL     1       3.479   2.481  18.388  0.00  0.00    +0.000 NA
ATOM     19  C   UNL     1       4.073   3.352  17.646  0.00  0.00    +0.000 C 
ATOM     20  N   UNL     1       5.144   3.100  16.818  0.00  0.00    +0.000 N 
ATOM     21  H   UNL     1       5.654   2.251  17.031  0.00  0.00    +0.000 HD
ATOM     22  H   UNL     1       5.771   3.882  16.671  0.00  0.00    +0.000 HD
ENDBRANCH  11  19
ENDBRANCH   1  14
BRANCH   8  23
ATOM     23  C   UNL     1      -2.534  11.023  18.365  0.00  0.00    +0.000 A 
ATOM     24  C   UNL     1      -3.340  10.094  17.697  0.00  0.00    +0.000 A 
ATOM     25  C   UNL     1      -4.734  10.205  17.747  0.00  0.00    +0.000 A 
ATOM     26  C   UNL     1      -5.331  11.248  18.468  0.00  0.00    +0.000 A 
ATOM     27  C   UNL     1      -4.526  12.189  19.117  0.00  0.00    +0.000 A 
ATOM     28  C   UNL     1      -3.133  12.074  19.068  0.00  0.00    +0.000 A 
BRANCH  26  29
ATOM     29  C   UNL     1      -6.817  11.350  18.533  0.00  0.00    +0.000 C 
ATOM     30  N   UNL     1      -7.564  10.443  19.079  0.00  0.00    +0.000 NA
ATOM     31  N   UNL     1      -7.463  12.428  18.006  0.00  0.00    +0.000 N 
ATOM     32  H   UNL     1      -7.009   9.644  19.400  0.00  0.00    +0.000 HD
ATOM     33  H   UNL     1      -7.002  13.322  18.113  0.00  0.00    +0.000 HD
ATOM     34  H   UNL     1      -8.433  12.450  18.307  0.00  0.00    +0.000 HD
ENDBRANCH  26  29
ENDBRANCH   8  23
TORSDOF 4
ENDMDL
MODEL 4
REMARK VINA RESULT:      -8.3      1.074      1.502
REMARK  Name = 
REMARK  5 active torsions:
REMARK  status: ('A' for Active; 'I' for Inactive)
REMARK    1  A    between atoms: C_1  and  N_2
REMARK    2  A    between atoms: C_3  and  C_5
REMARK    3  A    between atoms: C_8  and  C_9
REMARK    4  A    between atoms: C_16  and  C_17
REMARK    5  A    between atoms: C_20  and  C_21
REMARK                            x       y       z     vdW  Elec       q    Type
REMARK                         _______ _______ _______ _____ _____    ______ ____
ROOT
ATOM      1  C   UNL     1       2.166   8.718  18.087  0.00  0.00    +0.000 C 
ATOM      2  C   UNL     1       1.724   9.332  19.203  0.00  0.00    +0.000 C 
ATOM      3  C   UNL     1       1.739   8.782  20.601  0.00  0.00    +0.000 C 
ATOM      4  C   UNL     1       0.384   8.785  21.312  0.00  0.00    +0.000 C 
ATOM      5  C   UNL     1      -0.008  10.181  21.795  0.00  0.00    +0.000 C 
ATOM      6  C   UNL     1      -0.674  11.072  20.745  0.00  0.00    +0.000 C 
ATOM      7  C   UNL     1      -0.246  10.893  19.318  0.00  0.00    +0.000 C 
ATOM      8  C   UNL     1      -1.056  10.877  18.242  0.00  0.00    +0.000 C 
ATOM      9  C   UNL     1       1.200  10.715  19.007  0.00  0.00    +0.000 C 
ATOM     10  O   UNL     1       1.880  11.619  18.537  0.00  0.00    +0.000 OA
ENDROOT
BRANCH   1  14
ATOM     11  C   UNL     1       3.609   4.698  17.814  0.00  0.00    +0.000 A 
ATOM     12  C   UNL     1       4.463   5.777  17.573  0.00  0.00    +0.000 A 
ATOM     13  C   UNL     1       3.982   7.088  17.670  0.00  0.00    +0.000 A 
ATOM     14  C   UNL     1       2.648   7.333  18.024  0.00  0.00    +0.000 A 
ATOM     15  C   UNL     1       1.806   6.251  18.308  0.00  0.00    +0.000 A 
ATOM     16  C   UNL     1       2.283   4.939  18.197  0.00  0.00    +0.000 A 
BRANCH  11  19
ATOM     17  C   UNL     1       3.981   0.994  18.207  0.00  0.00    +0.000 C 
ATOM     18  N   UNL     1       3.561   2.378  18.375  0.00  0.00    +0.000 NA
ATOM     19  C   UNL     1       4.108   3.291  17.649  0.00  0.00    +0.000 C 
ATOM     20  N   UNL     1       5.130   3.091  16.748  0.00  0.00    +0.000 N 
ATOM     21  H   UNL     1       5.654   2.235  16.884  0.00  0.00    +0.000 HD
ATOM     22  H   UNL     1       5.745   3.884  16.608  0.00  0.00    +0.000 HD
ENDBRANCH  11  19
ENDBRANCH   1  14
BRANCH   8  23
ATOM     23  C   UNL     1      -2.515  11.000  18.305  0.00  0.00    +0.000 A 
ATOM     24  C   UNL     1      -3.115  12.053  19.004  0.00  0.00    +0.000 A 
ATOM     25  C   UNL     1      -4.509  12.163  19.053  0.00  0.00    +0.000 A 
ATOM     26  C   UNL     1      -5.313  11.217  18.404  0.00  0.00    +0.000 A 
ATOM     27  C   UNL     1      -4.715  10.151  17.724  0.00  0.00    +0.000 A 
ATOM     28  C   UNL     1      -3.321  10.046  17.673  0.00  0.00    +0.000 A 
BRANCH  26  29
ATOM     29  C   UNL     1      -6.797  11.349  18.445  0.00  0.00    +0.000 C 
ATOM     30  N   UNL     1      -7.568  10.480  19.018  0.00  0.00    +0.000 NA
ATOM     31  N   UNL     1      -7.416  12.416  17.865  0.00  0.00    +0.000 N 
ATOM     32  H   UNL     1      -7.033   9.685  19.378  0.00  0.00    +0.000 HD
ATOM     33  H   UNL     1      -6.940  13.305  17.941  0.00  0.00    +0.000 HD
ATOM     34  H   UNL     1      -8.390  12.469  18.151  0.00  0.00    +0.000 HD
ENDBRANCH  26  29
ENDBRANCH   8  23
TORSDOF 4
ENDMDL
MODEL 5
REMARK VINA RESULT:      -7.9      1.169      1.796
REMARK  Name = 
REMARK  5 active torsions:
REMARK  status: ('A' for Active; 'I' for Inactive)
REMARK    1  A    between atoms: C_1  and  N_2
REMARK    2  A    between atoms: C_3  and  C_5
REMARK    3  A    between atoms: C_8  and  C_9
REMARK    4  A    between atoms: C_16  and  C_17
REMARK    5  A    between atoms: C_20  and  C_21
REMARK                            x       y       z     vdW  Elec       q    Type
REMARK                         _______ _______ _______ _____ _____    ______ ____
ROOT
ATOM      1  C   UNL     1       2.100   8.951  18.656  0.00  0.00    +0.000 C 
ATOM      2  C   UNL     1       1.555   9.560  19.728  0.00  0.00    +0.000 C 
ATOM      3  C   UNL     1       1.410   8.993  21.111  0.00  0.00    +0.000 C 
ATOM      4  C   UNL     1      -0.013   9.016  21.675  0.00  0.00    +0.000 C 
ATOM      5  C   UNL     1      -0.426  10.414  22.134  0.00  0.00    +0.000 C 
ATOM      6  C   UNL     1      -0.959  11.332  21.033  0.00  0.00    +0.000 C 
ATOM      7  C   UNL     1      -0.384  11.162  19.657  0.00  0.00    +0.000 C 
ATOM      8  C   UNL     1      -1.076  11.177  18.501  0.00  0.00    +0.000 C 
ATOM      9  C   UNL     1       1.082  10.957  19.498  0.00  0.00    +0.000 C 
ATOM     10  O   UNL     1       1.826  11.852  19.117  0.00  0.00    +0.000 OA
ENDROOT
BRANCH   1  14
ATOM     11  C   UNL     1       3.464   4.895  18.660  0.00  0.00    +0.000 A 
ATOM     12  C   UNL     1       2.577   5.347  19.641  0.00  0.00    +0.000 A 
ATOM     13  C   UNL     1       2.134   6.674  19.627  0.00  0.00    +0.000 A 
ATOM     14  C   UNL     1       2.559   7.557  18.625  0.00  0.00    +0.000 A 
ATOM     15  C   UNL     1       3.412   7.090  17.618  0.00  0.00    +0.000 A 
ATOM     16  C   UNL     1       3.868   5.765  17.639  0.00  0.00    +0.000 A 
BRANCH  11  19
ATOM     17  C   UNL     1       3.656   1.165  18.400  0.00  0.00    +0.000 C 
ATOM     18  N   UNL     1       3.171   2.538  18.413  0.00  0.00    +0.000 NA
ATOM     19  C   UNL     1       3.989   3.488  18.711  0.00  0.00    +0.000 C 
ATOM     20  N   UNL     1       5.301   3.323  19.095  0.00  0.00    +0.000 N 
ATOM     21  H   UNL     1       5.531   2.395  19.429  0.00  0.00    +0.000 HD
ATOM     22  H   UNL     1       5.665   4.040  19.713  0.00  0.00    +0.000 HD
ENDBRANCH  11  19
ENDBRANCH   1  14
BRANCH   8  23
ATOM     23  C   UNL     1      -2.531  11.330  18.410  0.00  0.00    +0.000 A 
ATOM     24  C   UNL     1      -3.227  12.114  19.338  0.00  0.00    +0.000 A 
ATOM     25  C   UNL     1      -4.615  12.256  19.239  0.00  0.00    +0.000 A 
ATOM     26  C   UNL     1      -5.317  11.615  18.210  0.00  0.00    +0.000 A 
ATOM     27  C   UNL     1      -4.625  10.814  17.296  0.00  0.00    +0.000 A 
ATOM     28  C   UNL     1      -3.237  10.676  17.395  0.00  0.00    +0.000 A 
BRANCH  26  29
ATOM     29  C   UNL     1      -6.794  11.785  18.099  0.00  0.00    +0.000 C 
ATOM     30  N   UNL     1      -7.354  12.515  17.187  0.00  0.00    +0.000 NA
ATOM     31  N   UNL     1      -7.632  11.166  18.977  0.00  0.00    +0.000 N 
ATOM     32  H   UNL     1      -6.656  12.988  16.606  0.00  0.00    +0.000 HD
ATOM     33  H   UNL     1      -7.365  10.235  19.270  0.00  0.00    +0.000 HD
ATOM     34  H   UNL     1      -8.594  11.212  18.651  0.00  0.00    +0.000 HD
ENDBRANCH  26  29
ENDBRANCH   8  23
TORSDOF 4
ENDMDL
MODEL 6
REMARK VINA RESULT:      -7.8      3.262      4.340
REMARK  Name = 
REMARK  5 active torsions:
REMARK  status: ('A' for Active; 'I' for Inactive)
REMARK    1  A    between atoms: C_1  and  N_2
REMARK    2  A    between atoms: C_3  and  C_5
REMARK    3  A    between atoms: C_8  and  C_9
REMARK    4  A    between atoms: C_16  and  C_17
REMARK    5  A    between atoms: C_20  and  C_21
REMARK                            x       y       z     vdW  Elec       q    Type
REMARK                         _______ _______ _______ _____ _____    ______ ____
ROOT
ATOM      1  C   UNL     1       0.209  10.533  18.577  0.00  0.00    +0.000 C 
ATOM      2  C   UNL     1       0.312  11.724  19.201  0.00  0.00    +0.000 C 
ATOM      3  C   UNL     1       1.339  12.121  20.222  0.00  0.00    +0.000 C 
ATOM      4  C   UNL     1       0.769  12.651  21.541  0.00  0.00    +0.000 C 
ATOM      5  C   UNL     1       0.252  14.083  21.407  0.00  0.00    +0.000 C 
ATOM      6  C   UNL     1      -1.170  14.215  20.861  0.00  0.00    +0.000 C 
ATOM      7  C   UNL     1      -1.624  13.186  19.867  0.00  0.00    +0.000 C 
ATOM      8  C   UNL     1      -2.832  12.590  19.838  0.00  0.00    +0.000 C 
ATOM      9  C   UNL     1      -0.692  12.749  18.791  0.00  0.00    +0.000 C 
ATOM     10  O   UNL     1      -0.805  13.137  17.635  0.00  0.00    +0.000 OA
ENDROOT
BRANCH   1  14
ATOM     11  C   UNL     1       2.572   7.053  19.364  0.00  0.00    +0.000 A 
ATOM     12  C   UNL     1       2.589   7.651  18.102  0.00  0.00    +0.000 A 
ATOM     13  C   UNL     1       1.816   8.792  17.857  0.00  0.00    +0.000 A 
ATOM     14  C   UNL     1       1.033   9.354  18.875  0.00  0.00    +0.000 A 
ATOM     15  C   UNL     1       1.052   8.778  20.151  0.00  0.00    +0.000 A 
ATOM     16  C   UNL     1       1.815   7.628  20.393  0.00  0.00    +0.000 A 
BRANCH  11  19
ATOM     17  C   UNL     1       5.171   4.372  19.078  0.00  0.00    +0.000 C 
ATOM     18  N   UNL     1       4.358   5.557  18.840  0.00  0.00    +0.000 NA
ATOM     19  C   UNL     1       3.352   5.792  19.610  0.00  0.00    +0.000 C 
ATOM     20  N   UNL     1       2.916   4.974  20.627  0.00  0.00    +0.000 N 
ATOM     21  H   UNL     1       3.236   4.015  20.567  0.00  0.00    +0.000 HD
ATOM     22  H   UNL     1       1.923   5.021  20.826  0.00  0.00    +0.000 HD
ENDBRANCH  11  19
ENDBRANCH   1  14
BRANCH   8  23
ATOM     23  C   UNL     1      -3.899  12.835  20.812  0.00  0.00    +0.000 A 
ATOM     24  C   UNL     1      -5.135  13.350  20.406  0.00  0.00    +0.000 A 
ATOM     25  C   UNL     1      -6.147  13.576  21.345  0.00  0.00    +0.000 A 
ATOM     26  C   UNL     1      -5.929  13.288  22.698  0.00  0.00    +0.000 A 
ATOM     27  C   UNL     1      -4.686  12.794  23.109  0.00  0.00    +0.000 A 
ATOM     28  C   UNL     1      -3.678  12.566  22.168  0.00  0.00    +0.000 A 
BRANCH  26  29
ATOM     29  C   UNL     1      -7.018  13.514  23.691  0.00  0.00    +0.000 C 
ATOM     30  N   UNL     1      -7.914  12.621  23.972  0.00  0.00    +0.000 NA
ATOM     31  N   UNL     1      -7.116  14.699  24.357  0.00  0.00    +0.000 N 
ATOM     32  H   UNL     1      -7.804  11.785  23.392  0.00  0.00    +0.000 HD
ATOM     33  H   UNL     1      -6.243  15.136  24.625  0.00  0.00    +0.000 HD
ATOM     34  H   UNL     1      -7.769  14.625  25.132  0.00  0.00    +0.000 HD
ENDBRANCH  26  29
ENDBRANCH   8  23
TORSDOF 4
ENDMDL
MODEL 7
REMARK VINA RESULT:      -7.7      3.150      9.842
REMARK  Name = 
REMARK  5 active torsions:
REMARK  status: ('A' for Active; 'I' for Inactive)
REMARK    1  A    between atoms: C_1  and  N_2
REMARK    2  A    between atoms: C_3  and  C_5
REMARK    3  A    between atoms: C_8  and  C_9
REMARK    4  A    between atoms: C_16  and  C_17
REMARK    5  A    between atoms: C_20  and  C_21
REMARK                            x       y       z     vdW  Elec       q    Type
REMARK                         _______ _______ _______ _____ _____    ______ ____
ROOT
ATOM      1  C   UNL     1      -0.926  12.130  20.924  0.00  0.00    +0.000 C 
ATOM      2  C   UNL     1      -0.888  11.648  19.665  0.00  0.00    +0.000 C 
ATOM      3  C   UNL     1      -2.059  11.390  18.762  0.00  0.00    +0.000 C 
ATOM      4  C   UNL     1      -2.140   9.970  18.195  0.00  0.00    +0.000 C 
ATOM      5  C   UNL     1      -1.135   9.746  17.066  0.00  0.00    +0.000 C 
ATOM      6  C   UNL     1       0.279   9.375  17.513  0.00  0.00    +0.000 C 
ATOM      7  C   UNL     1       0.765   9.956  18.809  0.00  0.00    +0.000 C 
ATOM      8  C   UNL     1       1.464   9.303  19.758  0.00  0.00    +0.000 C 
ATOM      9  C   UNL     1       0.478  11.382  19.124  0.00  0.00    +0.000 C 
ATOM     10  O   UNL     1       1.332  12.254  19.031  0.00  0.00    +0.000 OA
ENDROOT
BRANCH   1  14
ATOM     11  C   UNL     1      -4.503  12.788  23.179  0.00  0.00    +0.000 A 
ATOM     12  C   UNL     1      -3.388  12.193  23.774  0.00  0.00    +0.000 A 
ATOM     13  C   UNL     1      -2.222  11.987  23.029  0.00  0.00    +0.000 A 
ATOM     14  C   UNL     1      -2.153  12.389  21.688  0.00  0.00    +0.000 A 
ATOM     15  C   UNL     1      -3.256  13.024  21.106  0.00  0.00    +0.000 A 
ATOM     16  C   UNL     1      -4.429  13.218  21.848  0.00  0.00    +0.000 A 
BRANCH  11  19
ATOM     17  C   UNL     1      -7.814  14.096  24.339  0.00  0.00    +0.000 C 
ATOM     18  N   UNL     1      -6.547  13.934  23.640  0.00  0.00    +0.000 NA
ATOM     19  C   UNL     1      -5.776  12.952  23.960  0.00  0.00    +0.000 C 
ATOM     20  N   UNL     1      -6.009  12.051  24.974  0.00  0.00    +0.000 N 
ATOM     21  H   UNL     1      -6.675  12.359  25.672  0.00  0.00    +0.000 HD
ATOM     22  H   UNL     1      -5.179  11.657  25.404  0.00  0.00    +0.000 HD
ENDBRANCH  11  19
ENDBRANCH   1  14
BRANCH   8  23
ATOM     23  C   UNL     1       1.835   7.887  19.684  0.00  0.00    +0.000 A 
ATOM     24  C   UNL     1       1.465   6.996  20.698  0.00  0.00    +0.000 A 
ATOM     25  C   UNL     1       1.821   5.645  20.615  0.00  0.00    +0.000 A 
ATOM     26  C   UNL     1       2.551   5.177  19.515  0.00  0.00    +0.000 A 
ATOM     27  C   UNL     1       2.940   6.070  18.512  0.00  0.00    +0.000 A 
ATOM     28  C   UNL     1       2.580   7.419  18.596  0.00  0.00    +0.000 A 
BRANCH  26  29
ATOM     29  C   UNL     1       2.911   3.733  19.423  0.00  0.00    +0.000 C 
ATOM     30  N   UNL     1       2.179   2.789  19.925  0.00  0.00    +0.000 NA
ATOM     31  N   UNL     1       4.054   3.341  18.793  0.00  0.00    +0.000 N 
ATOM     32  H   UNL     1       1.372   3.168  20.427  0.00  0.00    +0.000 HD
ATOM     33  H   UNL     1       4.311   3.864  17.966  0.00  0.00    +0.000 HD
ATOM     34  H   UNL     1       4.054   2.337  18.636  0.00  0.00    +0.000 HD
ENDBRANCH  26  29
ENDBRANCH   8  23
TORSDOF 4
ENDMDL
MODEL 8
REMARK VINA RESULT:      -7.6      1.625      2.194
REMARK  Name = 
REMARK  5 active torsions:
REMARK  status: ('A' for Active; 'I' for Inactive)
REMARK    1  A    between atoms: C_1  and  N_2
REMARK    2  A    between atoms: C_3  and  C_5
REMARK    3  A    between atoms: C_8  and  C_9
REMARK    4  A    between atoms: C_16  and  C_17
REMARK    5  A    between atoms: C_20  and  C_21
REMARK                            x       y       z     vdW  Elec       q    Type
REMARK                         _______ _______ _______ _____ _____    ______ ____
ROOT
ATOM      1  C   UNL     1       1.544   9.007  19.588  0.00  0.00    +0.000 C 
ATOM      2  C   UNL     1       1.060   9.674  20.655  0.00  0.00    +0.000 C 
ATOM      3  C   UNL     1       0.837   9.126  22.036  0.00  0.00    +0.000 C 
ATOM      4  C   UNL     1      -0.580   9.310  22.585  0.00  0.00    +0.000 C 
ATOM      5  C   UNL     1      -0.836  10.746  23.041  0.00  0.00    +0.000 C 
ATOM      6  C   UNL     1      -1.251  11.718  21.936  0.00  0.00    +0.000 C 
ATOM      7  C   UNL     1      -0.685  11.484  20.566  0.00  0.00    +0.000 C 
ATOM      8  C   UNL     1      -1.358  11.578  19.403  0.00  0.00    +0.000 C 
ATOM      9  C   UNL     1       0.750  11.115  20.422  0.00  0.00    +0.000 C 
ATOM     10  O   UNL     1       1.595  11.919  20.049  0.00  0.00    +0.000 OA
ENDROOT
BRANCH   1  14
ATOM     11  C   UNL     1       2.363   4.810  19.418  0.00  0.00    +0.000 A 
ATOM     12  C   UNL     1       2.676   5.639  18.338  0.00  0.00    +0.000 A 
ATOM     13  C   UNL     1       2.409   7.011  18.406  0.00  0.00    +0.000 A 
ATOM     14  C   UNL     1       1.842   7.569  19.559  0.00  0.00    +0.000 A 
ATOM     15  C   UNL     1       1.569   6.744  20.657  0.00  0.00    +0.000 A 
ATOM     16  C   UNL     1       1.824   5.368  20.584  0.00  0.00    +0.000 A 
BRANCH  11  19
ATOM     17  C   UNL     1       3.659   1.484  18.289  0.00  0.00    +0.000 C 
ATOM     18  N   UNL     1       3.370   2.907  18.384  0.00  0.00    +0.000 NA
ATOM     19  C   UNL     1       2.592   3.328  19.321  0.00  0.00    +0.000 C 
ATOM     20  N   UNL     1       1.932   2.532  20.230  0.00  0.00    +0.000 N 
ATOM     21  H   UNL     1       1.840   1.561  19.955  0.00  0.00    +0.000 HD
ATOM     22  H   UNL     1       1.055   2.904  20.575  0.00  0.00    +0.000 HD
ENDBRANCH  11  19
ENDBRANCH   1  14
BRANCH   8  23
ATOM     23  C   UNL     1      -2.785  11.895  19.297  0.00  0.00    +0.000 A 
ATOM     24  C   UNL     1      -3.569  11.335  18.283  0.00  0.00    +0.000 A 
ATOM     25  C   UNL     1      -4.932  11.641  18.194  0.00  0.00    +0.000 A 
ATOM     26  C   UNL     1      -5.519  12.512  19.121  0.00  0.00    +0.000 A 
ATOM     27  C   UNL     1      -4.731  13.090  20.122  0.00  0.00    +0.000 A 
ATOM     28  C   UNL     1      -3.371  12.779  20.210  0.00  0.00    +0.000 A 
BRANCH  26  29
ATOM     29  C   UNL     1      -6.975  12.820  19.033  0.00  0.00    +0.000 C 
ATOM     30  N   UNL     1      -7.600  12.961  17.906  0.00  0.00    +0.000 NA
ATOM     31  N   UNL     1      -7.722  12.972  20.162  0.00  0.00    +0.000 N 
ATOM     32  H   UNL     1      -6.960  12.888  17.111  0.00  0.00    +0.000 HD
ATOM     33  H   UNL     1      -7.497  12.358  20.934  0.00  0.00    +0.000 HD
ATOM     34  H   UNL     1      -8.715  12.973  19.941  0.00  0.00    +0.000 HD
ENDBRANCH  26  29
ENDBRANCH   8  23
TORSDOF 4
ENDMDL
MODEL 9
REMARK VINA RESULT:      -7.6      1.449      2.017
REMARK  Name = 
REMARK  5 active torsions:
REMARK  status: ('A' for Active; 'I' for Inactive)
REMARK    1  A    between atoms: C_1  and  N_2
REMARK    2  A    between atoms: C_3  and  C_5
REMARK    3  A    between atoms: C_8  and  C_9
REMARK    4  A    between atoms: C_16  and  C_17
REMARK    5  A    between atoms: C_20  and  C_21
REMARK                            x       y       z     vdW  Elec       q    Type
REMARK                         _______ _______ _______ _____ _____    ______ ____
ROOT
ATOM      1  C   UNL     1       1.891   9.272  19.118  0.00  0.00    +0.000 C 
ATOM      2  C   UNL     1       1.331   9.729  20.257  0.00  0.00    +0.000 C 
ATOM      3  C   UNL     1       1.156   8.972  21.542  0.00  0.00    +0.000 C 
ATOM      4  C   UNL     1      -0.277   8.931  22.079  0.00  0.00    +0.000 C 
ATOM      5  C   UNL     1      -0.685  10.255  22.726  0.00  0.00    +0.000 C 
ATOM      6  C   UNL     1      -1.190  11.326  21.758  0.00  0.00    +0.000 C 
ATOM      7  C   UNL     1      -0.591  11.347  20.382  0.00  0.00    +0.000 C 
ATOM      8  C   UNL     1      -1.261  11.535  19.228  0.00  0.00    +0.000 C 
ATOM      9  C   UNL     1       0.876  11.150  20.220  0.00  0.00    +0.000 C 
ATOM     10  O   UNL     1       1.635  12.080  19.983  0.00  0.00    +0.000 OA
ENDROOT
BRANCH   1  14
ATOM     11  C   UNL     1       3.224   5.243  18.565  0.00  0.00    +0.000 A 
ATOM     12  C   UNL     1       2.405   5.578  19.646  0.00  0.00    +0.000 A 
ATOM     13  C   UNL     1       1.971   6.898  19.815  0.00  0.00    +0.000 A 
ATOM     14  C   UNL     1       2.337   7.891  18.896  0.00  0.00    +0.000 A 
ATOM     15  C   UNL     1       3.121   7.545  17.790  0.00  0.00    +0.000 A 
ATOM     16  C   UNL     1       3.567   6.226  17.628  0.00  0.00    +0.000 A 
BRANCH  11  19
ATOM     17  C   UNL     1       3.379   1.503  18.514  0.00  0.00    +0.000 C 
ATOM     18  N   UNL     1       2.931   2.877  18.694  0.00  0.00    +0.000 NA
ATOM     19  C   UNL     1       3.742   3.841  18.419  0.00  0.00    +0.000 C 
ATOM     20  N   UNL     1       5.052   3.695  18.023  0.00  0.00    +0.000 N 
ATOM     21  H   UNL     1       5.463   2.795  18.239  0.00  0.00    +0.000 HD
ATOM     22  H   UNL     1       5.670   4.456  18.282  0.00  0.00    +0.000 HD
ENDBRANCH  11  19
ENDBRANCH   1  14
BRANCH   8  23
ATOM     23  C   UNL     1      -2.712  11.717  19.136  0.00  0.00    +0.000 A 
ATOM     24  C   UNL     1      -3.456  11.049  18.156  0.00  0.00    +0.000 A 
ATOM     25  C   UNL     1      -4.842  11.227  18.079  0.00  0.00    +0.000 A 
ATOM     26  C   UNL     1      -5.493  12.076  18.983  0.00  0.00    +0.000 A 
ATOM     27  C   UNL     1      -4.748  12.761  19.949  0.00  0.00    +0.000 A 
ATOM     28  C   UNL     1      -3.364  12.578  20.025  0.00  0.00    +0.000 A 
BRANCH  26  29
ATOM     29  C   UNL     1      -6.972  12.247  18.909  0.00  0.00    +0.000 C 
ATOM     30  N   UNL     1      -7.569  12.801  17.901  0.00  0.00    +0.000 NA
ATOM     31  N   UNL     1      -7.773  11.819  19.925  0.00  0.00    +0.000 N 
ATOM     32  H   UNL     1      -6.896  13.144  17.209  0.00  0.00    +0.000 HD
ATOM     33  H   UNL     1      -7.500  10.957  20.377  0.00  0.00    +0.000 HD
ATOM     34  H   UNL     1      -8.749  11.819  19.640  0.00  0.00    +0.000 HD
ENDBRANCH  26  29
ENDBRANCH   8  23
TORSDOF 4
ENDMDL
