MODEL 1
REMARK VINA RESULT:      -7.8      0.000      0.000
REMARK  Name = 
REMARK  5 active torsions:
REMARK  status: ('A' for Active; 'I' for Inactive)
REMARK    1  A    between atoms: C_1  and  N_2
REMARK    2  A    between atoms: C_3  and  C_4
REMARK    3  A    between atoms: C_7  and  C_8
REMARK    4  A    between atoms: N_9  and  N_10
REMARK    5  A    between atoms: C_13  and  N_14
REMARK                            x       y       z     vdW  Elec       q    Type
REMARK                         _______ _______ _______ _____ _____    ______ ____
ROOT
ATOM      1  C   UNL     1       0.752   9.732  19.752  0.00  0.00    +0.000 A 
ATOM      2  C   UNL     1       1.189   9.896  18.440  0.00  0.00    +0.000 A 
ATOM      3  C   UNL     1       2.008   8.933  17.850  0.00  0.00    +0.000 A 
ATOM      4  C   UNL     1       2.396   7.803  18.581  0.00  0.00    +0.000 A 
ATOM      5  C   UNL     1       1.999   7.656  19.910  0.00  0.00    +0.000 A 
ATOM      6  C   UNL     1       1.186   8.629  20.502  0.00  0.00    +0.000 A 
ENDROOT
BRANCH   1   9
ATOM      7  C   UNL     1      -1.920  11.137  18.518  0.00  0.00    +0.000 C 
ATOM      8  N   UNL     1      -1.349  11.323  19.840  0.00  0.00    +0.000 N 
ATOM      9  C   UNL     1      -0.178  10.734  20.371  0.00  0.00    +0.000 A 
ATOM     10  C   UNL     1      -0.059  11.250  21.651  0.00  0.00    +0.000 A 
ATOM     11  N   UNL     1      -1.118  12.103  21.865  0.00  0.00    +0.000 N 
ATOM     12  C   UNL     1      -1.356  12.884  22.977  0.00  0.00    +0.000 A 
ATOM     13  C   UNL     1      -2.474  13.631  22.979  0.00  0.00    +0.000 A 
ATOM     14  C   UNL     1      -3.413  13.644  21.860  0.00  0.00    +0.000 A 
ATOM     15  C   UNL     1      -3.140  12.937  20.751  0.00  0.00    +0.000 A 
ATOM     16  C   UNL     1      -1.885  12.126  20.768  0.00  0.00    +0.000 A 
ENDBRANCH   1   9
BRANCH   4  17
ATOM     17  C   UNL     1       3.198   6.746  17.935  0.00  0.00    +0.000 C 
ATOM     18  N   UNL     1       3.206   5.550  18.421  0.00  0.00    +0.000 NA
BRANCH  18  19
ATOM     19  N   UNL     1       4.048   4.659  17.823  0.00  0.00    +0.000 N 
ATOM     20  C   UNL     1       5.379   4.686  18.074  0.00  0.00    +0.000 A 
ATOM     21  C   UNL     1       5.945   5.170  19.278  0.00  0.00    +0.000 A 
ATOM     22  C   UNL     1       7.300   5.083  19.105  0.00  0.00    +0.000 A 
ATOM     23  N   UNL     1       7.472   4.558  17.852  0.00  0.00    +0.000 N 
ATOM     24  N   UNL     1       6.319   4.277  17.214  0.00  0.00    +0.000 NA
ATOM     25  H   UNL     1       3.808   4.323  16.891  0.00  0.00    +0.000 HD
ATOM     26  H   UNL     1       8.344   4.374  17.377  0.00  0.00    +0.000 HD
BRANCH  22  27
ATOM     27  N   UNL     1       8.326   5.419  19.908  0.00  0.00    +0.000 N 
ATOM     28  H   UNL     1       9.076   6.015  19.562  0.00  0.00    +0.000 HD
ATOM     29  H   UNL     1       8.327   5.293  20.915  0.00  0.00    +0.000 HD
ENDBRANCH  22  27
ENDBRANCH  18  19
ENDBRANCH   4  17
TORSDOF 4
ENDMDL
MODEL 2
REMARK VINA RESULT:      -7.8      0.799      1.514
REMARK  Name = 
REMARK  5 active torsions:
REMARK  status: ('A' for Active; 'I' for Inactive)
REMARK    1  A    between atoms: C_1  and  N_2
REMARK    2  A    between atoms: C_3  and  C_4
REMARK    3  A    between atoms: C_7  and  C_8
REMARK    4  A    between atoms: N_9  and  N_10
REMARK    5  A    between atoms: C_13  and  N_14
REMARK                            x       y       z     vdW  Elec       q    Type
REMARK                         _______ _______ _______ _____ _____    ______ ____
ROOT
ATOM      1  C   UNL     1       0.740   9.457  19.661  0.00  0.00    +0.000 A 
ATOM      2  C   UNL     1       1.048   9.626  18.313  0.00  0.00    +0.000 A 
ATOM      3  C   UNL     1       1.913   8.734  17.677  0.00  0.00    +0.000 A 
ATOM      4  C   UNL     1       2.475   7.673  18.396  0.00  0.00    +0.000 A 
ATOM      5  C   UNL     1       2.207   7.526  19.757  0.00  0.00    +0.000 A 
ATOM      6  C   UNL     1       1.348   8.427  20.395  0.00  0.00    +0.000 A 
ENDROOT
BRANCH   1   9
ATOM      7  C   UNL     1      -0.209   9.567  22.779  0.00  0.00    +0.000 C 
ATOM      8  N   UNL     1      -0.626  10.436  21.693  0.00  0.00    +0.000 N 
ATOM      9  C   UNL     1      -0.235  10.377  20.335  0.00  0.00    +0.000 A 
ATOM     10  C   UNL     1      -0.926  11.404  19.713  0.00  0.00    +0.000 A 
ATOM     11  N   UNL     1      -1.687  12.042  20.665  0.00  0.00    +0.000 N 
ATOM     12  C   UNL     1      -2.580  13.076  20.473  0.00  0.00    +0.000 A 
ATOM     13  C   UNL     1      -3.202  13.565  21.560  0.00  0.00    +0.000 A 
ATOM     14  C   UNL     1      -2.971  13.037  22.903  0.00  0.00    +0.000 A 
ATOM     15  C   UNL     1      -2.154  11.984  23.075  0.00  0.00    +0.000 A 
ATOM     16  C   UNL     1      -1.486  11.450  21.850  0.00  0.00    +0.000 A 
ENDBRANCH   1   9
BRANCH   4  17
ATOM     17  C   UNL     1       3.327   6.685  17.707  0.00  0.00    +0.000 C 
ATOM     18  N   UNL     1       3.400   5.473  18.146  0.00  0.00    +0.000 NA
BRANCH  18  19
ATOM     19  N   UNL     1       4.283   4.650  17.511  0.00  0.00    +0.000 N 
ATOM     20  C   UNL     1       5.608   4.708  17.790  0.00  0.00    +0.000 A 
ATOM     21  C   UNL     1       6.135   5.134  19.032  0.00  0.00    +0.000 A 
ATOM     22  C   UNL     1       7.495   5.105  18.883  0.00  0.00    +0.000 A 
ATOM     23  N   UNL     1       7.708   4.666  17.603  0.00  0.00    +0.000 N 
ATOM     24  N   UNL     1       6.578   4.386  16.926  0.00  0.00    +0.000 NA
ATOM     25  H   UNL     1       4.072   4.366  16.556  0.00  0.00    +0.000 HD
ATOM     26  H   UNL     1       8.595   4.542  17.136  0.00  0.00    +0.000 HD
BRANCH  22  27
ATOM     27  N   UNL     1       8.494   5.425  19.725  0.00  0.00    +0.000 N 
ATOM     28  H   UNL     1       8.821   6.387  19.792  0.00  0.00    +0.000 HD
ATOM     29  H   UNL     1       8.830   4.820  20.466  0.00  0.00    +0.000 HD
ENDBRANCH  22  27
ENDBRANCH  18  19
ENDBRANCH   4  17
TORSDOF 4
ENDMDL
MODEL 3
REMARK VINA RESULT:      -7.8      1.772      2.164
REMARK  Name = 
REMARK  5 active torsions:
REMARK  status: ('A' for Active; 'I' for Inactive)
REMARK    1  A    between atoms: C_1  and  N_2
REMARK    2  A    between atoms: C_3  and  C_4
REMARK    3  A    between atoms: C_7  and  C_8
REMARK    4  A    between atoms: N_9  and  N_10
REMARK    5  A    between atoms: C_13  and  N_14
REMARK                            x       y       z     vdW  Elec       q    Type
REMARK                         _______ _______ _______ _____ _____    ______ ____
ROOT
ATOM      1  C   UNL     1       1.182   9.186  19.613  0.00  0.00    +0.000 A 
ATOM      2  C   UNL     1       1.704   9.078  18.327  0.00  0.00    +0.000 A 
ATOM      3  C   UNL     1       2.409   7.932  17.953  0.00  0.00    +0.000 A 
ATOM      4  C   UNL     1       2.596   6.895  18.874  0.00  0.00    +0.000 A 
ATOM      5  C   UNL     1       2.115   7.018  20.177  0.00  0.00    +0.000 A 
ATOM      6  C   UNL     1       1.418   8.171  20.553  0.00  0.00    +0.000 A 
ENDROOT
BRANCH   1   9
ATOM      7  C   UNL     1      -1.648  10.272  18.410  0.00  0.00    +0.000 C 
ATOM      8  N   UNL     1      -0.867  10.842  19.493  0.00  0.00    +0.000 N 
ATOM      9  C   UNL     1       0.373  10.388  20.002  0.00  0.00    +0.000 A 
ATOM     10  C   UNL     1       0.703  11.284  21.006  0.00  0.00    +0.000 A 
ATOM     11  N   UNL     1      -0.301  12.221  21.087  0.00  0.00    +0.000 N 
ATOM     12  C   UNL     1      -0.348  13.333  21.902  0.00  0.00    +0.000 A 
ATOM     13  C   UNL     1      -1.446  14.106  21.829  0.00  0.00    +0.000 A 
ATOM     14  C   UNL     1      -2.556  13.812  20.927  0.00  0.00    +0.000 A 
ATOM     15  C   UNL     1      -2.474  12.768  20.084  0.00  0.00    +0.000 A 
ATOM     16  C   UNL     1      -1.238  11.933  20.175  0.00  0.00    +0.000 A 
ENDBRANCH   1   9
BRANCH   4  17
ATOM     17  C   UNL     1       3.272   5.651  18.457  0.00  0.00    +0.000 C 
ATOM     18  N   UNL     1       4.128   5.672  17.491  0.00  0.00    +0.000 NA
BRANCH  18  19
ATOM     19  N   UNL     1       4.634   4.466  17.104  0.00  0.00    +0.000 N 
ATOM     20  C   UNL     1       5.493   4.378  16.060  0.00  0.00    +0.000 A 
ATOM     21  C   UNL     1       6.350   5.428  15.652  0.00  0.00    +0.000 A 
ATOM     22  C   UNL     1       6.997   4.961  14.539  0.00  0.00    +0.000 A 
ATOM     23  N   UNL     1       6.519   3.692  14.350  0.00  0.00    +0.000 N 
ATOM     24  N   UNL     1       5.626   3.299  15.279  0.00  0.00    +0.000 NA
ATOM     25  H   UNL     1       4.056   3.638  17.237  0.00  0.00    +0.000 HD
ATOM     26  H   UNL     1       6.758   3.050  13.607  0.00  0.00    +0.000 HD
BRANCH  22  27
ATOM     27  N   UNL     1       7.904   5.533  13.728  0.00  0.00    +0.000 N 
ATOM     28  H   UNL     1       8.733   5.016  13.439  0.00  0.00    +0.000 HD
ATOM     29  H   UNL     1       7.742   6.385  13.201  0.00  0.00    +0.000 HD
ENDBRANCH  22  27
ENDBRANCH  18  19
ENDBRANCH   4  17
TORSDOF 4
ENDMDL
MODEL 4
REMARK VINA RESULT:      -7.7      3.655      5.430
REMARK  Name = 
REMARK  5 active torsions:
REMARK  status: ('A' for Active; 'I' for Inactive)
REMARK    1  A    between atoms: C_1  and  N_2
REMARK    2  A    between atoms: C_3  and  C_4
REMARK    3  A    between atoms: C_7  and  C_8
REMARK    4  A    between atoms: N_9  and  N_10
REMARK    5  A    between atoms: C_13  and  N_14
REMARK                            x       y       z     vdW  Elec       q    Type
REMARK                         _______ _______ _______ _____ _____    ______ ____
ROOT
ATOM      1  C   UNL     1       3.142   6.683  18.282  0.00  0.00    +0.000 A 
ATOM      2  C   UNL     1       4.268   7.190  17.636  0.00  0.00    +0.000 A 
ATOM      3  C   UNL     1       5.015   6.372  16.788  0.00  0.00    +0.000 A 
ATOM      4  C   UNL     1       4.638   5.038  16.592  0.00  0.00    +0.000 A 
ATOM      5  C   UNL     1       3.539   4.512  17.271  0.00  0.00    +0.000 A 
ATOM      6  C   UNL     1       2.797   5.331  18.129  0.00  0.00    +0.000 A 
ENDROOT
BRANCH   1   9
ATOM      7  C   UNL     1       1.823   9.590  17.619  0.00  0.00    +0.000 C 
ATOM      8  N   UNL     1       1.710   8.824  18.846  0.00  0.00    +0.000 N 
ATOM      9  C   UNL     1       2.301   7.574  19.147  0.00  0.00    +0.000 A 
ATOM     10  C   UNL     1       1.907   7.288  20.444  0.00  0.00    +0.000 A 
ATOM     11  N   UNL     1       1.116   8.324  20.886  0.00  0.00    +0.000 N 
ATOM     12  C   UNL     1       0.566   8.484  22.141  0.00  0.00    +0.000 A 
ATOM     13  C   UNL     1      -0.199   9.572  22.345  0.00  0.00    +0.000 A 
ATOM     14  C   UNL     1      -0.447  10.566  21.304  0.00  0.00    +0.000 A 
ATOM     15  C   UNL     1       0.148  10.441  20.105  0.00  0.00    +0.000 A 
ATOM     16  C   UNL     1       1.004   9.232  19.908  0.00  0.00    +0.000 A 
ENDBRANCH   1   9
BRANCH   4  17
ATOM     17  C   UNL     1       5.381   4.194  15.636  0.00  0.00    +0.000 C 
ATOM     18  N   UNL     1       5.903   4.719  14.578  0.00  0.00    +0.000 NA
BRANCH  18  19
ATOM     19  N   UNL     1       6.488   3.855  13.700  0.00  0.00    +0.000 N 
ATOM     20  C   UNL     1       5.786   3.342  12.661  0.00  0.00    +0.000 A 
ATOM     21  C   UNL     1       4.682   3.990  12.057  0.00  0.00    +0.000 A 
ATOM     22  C   UNL     1       4.225   3.122  11.102  0.00  0.00    +0.000 A 
ATOM     23  N   UNL     1       5.058   2.037  11.173  0.00  0.00    +0.000 N 
ATOM     24  N   UNL     1       6.036   2.157  12.091  0.00  0.00    +0.000 NA
ATOM     25  H   UNL     1       7.223   3.242  14.047  0.00  0.00    +0.000 HD
ATOM     26  H   UNL     1       5.007   1.187  10.629  0.00  0.00    +0.000 HD
BRANCH  22  27
ATOM     27  N   UNL     1       3.194   3.203  10.242  0.00  0.00    +0.000 N 
ATOM     28  H   UNL     1       3.302   3.695   9.356  0.00  0.00    +0.000 HD
ATOM     29  H   UNL     1       2.355   2.636  10.302  0.00  0.00    +0.000 HD
ENDBRANCH  22  27
ENDBRANCH  18  19
ENDBRANCH   4  17
TORSDOF 4
ENDMDL
MODEL 5
REMARK VINA RESULT:      -7.6      0.883      1.307
REMARK  Name = 
REMARK  5 active torsions:
REMARK  status: ('A' for Active; 'I' for Inactive)
REMARK    1  A    between atoms: C_1  and  N_2
REMARK    2  A    between atoms: C_3  and  C_4
REMARK    3  A    between atoms: C_7  and  C_8
REMARK    4  A    between atoms: N_9  and  N_10
REMARK    5  A    between atoms: C_13  and  N_14
REMARK                            x       y       z     vdW  Elec       q    Type
REMARK                         _______ _______ _______ _____ _____    ______ ____
ROOT
ATOM      1  C   UNL     1       0.845   9.777  19.600  0.00  0.00    +0.000 A 
ATOM      2  C   UNL     1       1.115   8.729  20.477  0.00  0.00    +0.000 A 
ATOM      3  C   UNL     1       1.871   7.637  20.050  0.00  0.00    +0.000 A 
ATOM      4  C   UNL     1       2.353   7.591  18.737  0.00  0.00    +0.000 A 
ATOM      5  C   UNL     1       2.047   8.615  17.840  0.00  0.00    +0.000 A 
ATOM      6  C   UNL     1       1.280   9.704  18.268  0.00  0.00    +0.000 A 
ENDROOT
BRANCH   1   9
ATOM      7  C   UNL     1      -2.045  10.928  18.624  0.00  0.00    +0.000 C 
ATOM      8  N   UNL     1      -1.181  11.463  19.661  0.00  0.00    +0.000 N 
ATOM      9  C   UNL     1       0.084  10.981  20.071  0.00  0.00    +0.000 A 
ATOM     10  C   UNL     1       0.498  11.849  21.068  0.00  0.00    +0.000 A 
ATOM     11  N   UNL     1      -0.483  12.798  21.240  0.00  0.00    +0.000 N 
ATOM     12  C   UNL     1      -0.455  13.892  22.080  0.00  0.00    +0.000 A 
ATOM     13  C   UNL     1      -1.545  14.680  22.102  0.00  0.00    +0.000 A 
ATOM     14  C   UNL     1      -2.720  14.422  21.275  0.00  0.00    +0.000 A 
ATOM     15  C   UNL     1      -2.713  13.396  20.407  0.00  0.00    +0.000 A 
ATOM     16  C   UNL     1      -1.487  12.543  20.391  0.00  0.00    +0.000 A 
ENDBRANCH   1   9
BRANCH   4  17
ATOM     17  C   UNL     1       3.218   6.475  18.307  0.00  0.00    +0.000 C 
ATOM     18  N   UNL     1       4.246   6.703  17.559  0.00  0.00    +0.000 NA
BRANCH  18  19
ATOM     19  N   UNL     1       4.935   5.608  17.127  0.00  0.00    +0.000 N 
ATOM     20  C   UNL     1       6.123   5.273  17.685  0.00  0.00    +0.000 A 
ATOM     21  C   UNL     1       6.492   5.597  19.012  0.00  0.00    +0.000 A 
ATOM     22  C   UNL     1       7.774   5.141  19.158  0.00  0.00    +0.000 A 
ATOM     23  N   UNL     1       8.095   4.573  17.953  0.00  0.00    +0.000 N 
ATOM     24  N   UNL     1       7.097   4.611  17.048  0.00  0.00    +0.000 NA
ATOM     25  H   UNL     1       4.845   5.339  16.149  0.00  0.00    +0.000 HD
ATOM     26  H   UNL     1       8.973   4.152  17.687  0.00  0.00    +0.000 HD
BRANCH  22  27
ATOM     27  N   UNL     1       8.629   5.192  20.195  0.00  0.00    +0.000 N 
ATOM     28  H   UNL     1       8.300   5.473  21.118  0.00  0.00    +0.000 HD
ATOM     29  H   UNL     1       9.554   4.777  20.193  0.00  0.00    +0.000 HD
ENDBRANCH  22  27
ENDBRANCH  18  19
ENDBRANCH   4  17
TORSDOF 4
ENDMDL
MODEL 6
REMARK VINA RESULT:      -7.6      2.081      9.987
REMARK  Name = 
REMARK  5 active torsions:
REMARK  status: ('A' for Active; 'I' for Inactive)
REMARK    1  A    between atoms: C_1  and  N_2
REMARK    2  A    between atoms: C_3  and  C_4
REMARK    3  A    between atoms: C_7  and  C_8
REMARK    4  A    between atoms: N_9  and  N_10
REMARK    5  A    between atoms: C_13  and  N_14
REMARK                            x       y       z     vdW  Elec       q    Type
REMARK                         _______ _______ _______ _____ _____    ______ ____
ROOT
ATOM      1  C   UNL     1       1.709   8.231  19.770  0.00  0.00    +0.000 A 
ATOM      2  C   UNL     1       1.286   9.298  18.979  0.00  0.00    +0.000 A 
ATOM      3  C   UNL     1       0.696  10.415  19.571  0.00  0.00    +0.000 A 
ATOM      4  C   UNL     1       0.521  10.460  20.960  0.00  0.00    +0.000 A 
ATOM      5  C   UNL     1       0.900   9.376  21.751  0.00  0.00    +0.000 A 
ATOM      6  C   UNL     1       1.482   8.253  21.154  0.00  0.00    +0.000 A 
ENDROOT
BRANCH   1   9
ATOM      7  C   UNL     1       1.537   5.067  20.537  0.00  0.00    +0.000 C 
ATOM      8  N   UNL     1       2.302   5.680  19.466  0.00  0.00    +0.000 N 
ATOM      9  C   UNL     1       2.398   7.054  19.145  0.00  0.00    +0.000 A 
ATOM     10  C   UNL     1       3.264   7.116  18.065  0.00  0.00    +0.000 A 
ATOM     11  N   UNL     1       3.656   5.832  17.761  0.00  0.00    +0.000 N 
ATOM     12  C   UNL     1       4.565   5.436  16.802  0.00  0.00    +0.000 A 
ATOM     13  C   UNL     1       4.780   4.116  16.663  0.00  0.00    +0.000 A 
ATOM     14  C   UNL     1       4.103   3.118  17.487  0.00  0.00    +0.000 A 
ATOM     15  C   UNL     1       3.273   3.512  18.467  0.00  0.00    +0.000 A 
ATOM     16  C   UNL     1       3.061   4.984  18.610  0.00  0.00    +0.000 A 
ENDBRANCH   1   9
BRANCH   4  17
ATOM     17  C   UNL     1      -0.032  11.673  21.594  0.00  0.00    +0.000 C 
ATOM     18  N   UNL     1      -1.202  12.103  21.259  0.00  0.00    +0.000 NA
BRANCH  18  19
ATOM     19  N   UNL     1      -1.597  13.282  21.820  0.00  0.00    +0.000 N 
ATOM     20  C   UNL     1      -2.657  13.326  22.664  0.00  0.00    +0.000 A 
ATOM     21  C   UNL     1      -3.081  12.234  23.457  0.00  0.00    +0.000 A 
ATOM     22  C   UNL     1      -4.204  12.667  24.107  0.00  0.00    +0.000 A 
ATOM     23  N   UNL     1      -4.385  13.960  23.693  0.00  0.00    +0.000 N 
ATOM     24  N   UNL     1      -3.439  14.398  22.838  0.00  0.00    +0.000 NA
ATOM     25  H   UNL     1      -1.454  14.139  21.288  0.00  0.00    +0.000 HD
ATOM     26  H   UNL     1      -5.132  14.589  23.951  0.00  0.00    +0.000 HD
BRANCH  22  27
ATOM     27  N   UNL     1      -5.032  12.050  24.969  0.00  0.00    +0.000 N 
ATOM     28  H   UNL     1      -5.217  11.052  24.878  0.00  0.00    +0.000 HD
ATOM     29  H   UNL     1      -5.346  12.452  25.846  0.00  0.00    +0.000 HD
ENDBRANCH  22  27
ENDBRANCH  18  19
ENDBRANCH   4  17
TORSDOF 4
ENDMDL
MODEL 7
REMARK VINA RESULT:      -7.6      1.210      1.777
REMARK  Name = 
REMARK  5 active torsions:
REMARK  status: ('A' for Active; 'I' for Inactive)
REMARK    1  A    between atoms: C_1  and  N_2
REMARK    2  A    between atoms: C_3  and  C_4
REMARK    3  A    between atoms: C_7  and  C_8
REMARK    4  A    between atoms: N_9  and  N_10
REMARK    5  A    between atoms: C_13  and  N_14
REMARK                            x       y       z     vdW  Elec       q    Type
REMARK                         _______ _______ _______ _____ _____    ______ ____
ROOT
ATOM      1  C   UNL     1       0.847   9.911  20.239  0.00  0.00    +0.000 A 
ATOM      2  C   UNL     1       1.235   8.711  20.830  0.00  0.00    +0.000 A 
ATOM      3  C   UNL     1       1.915   7.750  20.079  0.00  0.00    +0.000 A 
ATOM      4  C   UNL     1       2.200   7.991  18.730  0.00  0.00    +0.000 A 
ATOM      5  C   UNL     1       1.773   9.171  18.121  0.00  0.00    +0.000 A 
ATOM      6  C   UNL     1       1.083  10.128  18.873  0.00  0.00    +0.000 A 
ENDROOT
BRANCH   1   9
ATOM      7  C   UNL     1       1.671  13.033  20.697  0.00  0.00    +0.000 C 
ATOM      8  N   UNL     1       0.518  12.331  21.232  0.00  0.00    +0.000 N 
ATOM      9  C   UNL     1       0.170  10.971  21.056  0.00  0.00    +0.000 A 
ATOM     10  C   UNL     1      -0.996  10.797  21.784  0.00  0.00    +0.000 A 
ATOM     11  N   UNL     1      -1.321  12.003  22.360  0.00  0.00    +0.000 N 
ATOM     12  C   UNL     1      -2.366  12.267  23.223  0.00  0.00    +0.000 A 
ATOM     13  C   UNL     1      -2.508  13.535  23.649  0.00  0.00    +0.000 A 
ATOM     14  C   UNL     1      -1.605  14.608  23.242  0.00  0.00    +0.000 A 
ATOM     15  C   UNL     1      -0.548  14.332  22.459  0.00  0.00    +0.000 A 
ATOM     16  C   UNL     1      -0.404  12.914  22.010  0.00  0.00    +0.000 A 
ENDBRANCH   1   9
BRANCH   4  17
ATOM     17  C   UNL     1       2.986   7.010  17.956  0.00  0.00    +0.000 C 
ATOM     18  N   UNL     1       3.243   5.847  18.454  0.00  0.00    +0.000 NA
BRANCH  18  19
ATOM     19  N   UNL     1       4.055   5.038  17.717  0.00  0.00    +0.000 N 
ATOM     20  C   UNL     1       5.390   5.001  17.947  0.00  0.00    +0.000 A 
ATOM     21  C   UNL     1       5.983   5.288  19.199  0.00  0.00    +0.000 A 
ATOM     22  C   UNL     1       7.334   5.200  18.994  0.00  0.00    +0.000 A 
ATOM     23  N   UNL     1       7.477   4.864  17.674  0.00  0.00    +0.000 N 
ATOM     24  N   UNL     1       6.309   4.705  17.020  0.00  0.00    +0.000 NA
ATOM     25  H   UNL     1       3.796   4.850  16.749  0.00  0.00    +0.000 HD
ATOM     26  H   UNL     1       8.338   4.735  17.163  0.00  0.00    +0.000 HD
BRANCH  22  27
ATOM     27  N   UNL     1       8.378   5.392  19.820  0.00  0.00    +0.000 N 
ATOM     28  H   UNL     1       9.329   5.246  19.488  0.00  0.00    +0.000 HD
ATOM     29  H   UNL     1       8.318   5.871  20.712  0.00  0.00    +0.000 HD
ENDBRANCH  22  27
ENDBRANCH  18  19
ENDBRANCH   4  17
TORSDOF 4
ENDMDL
MODEL 8
REMARK VINA RESULT:      -7.5      1.994      2.514
REMARK  Name = 
REMARK  5 active torsions:
REMARK  status: ('A' for Active; 'I' for Inactive)
REMARK    1  A    between atoms: C_1  and  N_2
REMARK    2  A    between atoms: C_3  and  C_4
REMARK    3  A    between atoms: C_7  and  C_8
REMARK    4  A    between atoms: N_9  and  N_10
REMARK    5  A    between atoms: C_13  and  N_14
REMARK                            x       y       z     vdW  Elec       q    Type
REMARK                         _______ _______ _______ _____ _____    ______ ____
ROOT
ATOM      1  C   UNL     1       1.458   8.924  19.763  0.00  0.00    +0.000 A 
ATOM      2  C   UNL     1       1.800   8.927  18.413  0.00  0.00    +0.000 A 
ATOM      3  C   UNL     1       2.336   7.781  17.825  0.00  0.00    +0.000 A 
ATOM      4  C   UNL     1       2.537   6.629  18.595  0.00  0.00    +0.000 A 
ATOM      5  C   UNL     1       2.240   6.635  19.958  0.00  0.00    +0.000 A 
ATOM      6  C   UNL     1       1.712   7.788  20.547  0.00  0.00    +0.000 A 
ENDROOT
BRANCH   1   9
ATOM      7  C   UNL     1      -0.473   9.152  22.380  0.00  0.00    +0.000 C 
ATOM      8  N   UNL     1       0.008  10.230  21.536  0.00  0.00    +0.000 N 
ATOM      9  C   UNL     1       0.826  10.133  20.386  0.00  0.00    +0.000 A 
ATOM     10  C   UNL     1       0.976  11.435  19.937  0.00  0.00    +0.000 A 
ATOM     11  N   UNL     1       0.281  12.262  20.788  0.00  0.00    +0.000 N 
ATOM     12  C   UNL     1       0.104  13.626  20.677  0.00  0.00    +0.000 A 
ATOM     13  C   UNL     1      -0.601  14.238  21.645  0.00  0.00    +0.000 A 
ATOM     14  C   UNL     1      -1.178  13.515  22.775  0.00  0.00    +0.000 A 
ATOM     15  C   UNL     1      -1.063  12.177  22.841  0.00  0.00    +0.000 A 
ATOM     16  C   UNL     1      -0.288  11.519  21.747  0.00  0.00    +0.000 A 
ENDBRANCH   1   9
BRANCH   4  17
ATOM     17  C   UNL     1       3.032   5.393  17.958  0.00  0.00    +0.000 C 
ATOM     18  N   UNL     1       4.239   4.991  18.174  0.00  0.00    +0.000 NA
BRANCH  18  19
ATOM     19  N   UNL     1       4.647   3.895  17.472  0.00  0.00    +0.000 N 
ATOM     20  C   UNL     1       5.477   4.023  16.409  0.00  0.00    +0.000 A 
ATOM     21  C   UNL     1       6.401   5.083  16.252  0.00  0.00    +0.000 A 
ATOM     22  C   UNL     1       6.990   4.878  15.033  0.00  0.00    +0.000 A 
ATOM     23  N   UNL     1       6.416   3.736  14.542  0.00  0.00    +0.000 N 
ATOM     24  N   UNL     1       5.515   3.176  15.373  0.00  0.00    +0.000 NA
ATOM     25  H   UNL     1       4.012   3.100  17.410  0.00  0.00    +0.000 HD
ATOM     26  H   UNL     1       6.592   3.294  13.651  0.00  0.00    +0.000 HD
BRANCH  22  27
ATOM     27  N   UNL     1       7.921   5.579  14.362  0.00  0.00    +0.000 N 
ATOM     28  H   UNL     1       7.866   6.595  14.317  0.00  0.00    +0.000 HD
ATOM     29  H   UNL     1       8.808   5.198  14.052  0.00  0.00    +0.000 HD
ENDBRANCH  22  27
ENDBRANCH  18  19
ENDBRANCH   4  17
TORSDOF 4
ENDMDL
MODEL 9
REMARK VINA RESULT:      -7.5      1.431      1.962
REMARK  Name = 
REMARK  5 active torsions:
REMARK  status: ('A' for Active; 'I' for Inactive)
REMARK    1  A    between atoms: C_1  and  N_2
REMARK    2  A    between atoms: C_3  and  C_4
REMARK    3  A    between atoms: C_7  and  C_8
REMARK    4  A    between atoms: N_9  and  N_10
REMARK    5  A    between atoms: C_13  and  N_14
REMARK                            x       y       z     vdW  Elec       q    Type
REMARK                         _______ _______ _______ _____ _____    ______ ____
ROOT
ATOM      1  C   UNL     1       0.812  10.009  19.473  0.00  0.00    +0.000 A 
ATOM      2  C   UNL     1       1.050   9.041  20.446  0.00  0.00    +0.000 A 
ATOM      3  C   UNL     1       1.755   7.881  20.121  0.00  0.00    +0.000 A 
ATOM      4  C   UNL     1       2.216   7.687  18.813  0.00  0.00    +0.000 A 
ATOM      5  C   UNL     1       1.940   8.631  17.824  0.00  0.00    +0.000 A 
ATOM      6  C   UNL     1       1.224   9.788  18.150  0.00  0.00    +0.000 A 
ENDROOT
BRANCH   1   9
ATOM      7  C   UNL     1       1.953  13.062  19.575  0.00  0.00    +0.000 C 
ATOM      8  N   UNL     1       0.601  12.610  19.850  0.00  0.00    +0.000 N 
ATOM      9  C   UNL     1       0.108  11.284  19.831  0.00  0.00    +0.000 A 
ATOM     10  C   UNL     1      -1.228  11.388  20.185  0.00  0.00    +0.000 A 
ATOM     11  N   UNL     1      -1.509  12.718  20.399  0.00  0.00    +0.000 N 
ATOM     12  C   UNL     1      -2.698  13.266  20.834  0.00  0.00    +0.000 A 
ATOM     13  C   UNL     1      -2.753  14.604  20.953  0.00  0.00    +0.000 A 
ATOM     14  C   UNL     1      -1.616  15.469  20.652  0.00  0.00    +0.000 A 
ATOM     15  C   UNL     1      -0.439  14.925  20.297  0.00  0.00    +0.000 A 
ATOM     16  C   UNL     1      -0.399  13.436  20.185  0.00  0.00    +0.000 A 
ENDBRANCH   1   9
BRANCH   4  17
ATOM     17  C   UNL     1       3.027   6.499  18.487  0.00  0.00    +0.000 C 
ATOM     18  N   UNL     1       3.942   6.569  17.578  0.00  0.00    +0.000 NA
BRANCH  18  19
ATOM     19  N   UNL     1       4.579   5.403  17.269  0.00  0.00    +0.000 N 
ATOM     20  C   UNL     1       5.804   5.127  17.777  0.00  0.00    +0.000 A 
ATOM     21  C   UNL     1       6.284   5.643  19.004  0.00  0.00    +0.000 A 
ATOM     22  C   UNL     1       7.568   5.181  19.119  0.00  0.00    +0.000 A 
ATOM     23  N   UNL     1       7.782   4.427  17.995  0.00  0.00    +0.000 N 
ATOM     24  N   UNL     1       6.714   4.350  17.177  0.00  0.00    +0.000 NA
ATOM     25  H   UNL     1       4.406   4.989  16.354  0.00  0.00    +0.000 HD
ATOM     26  H   UNL     1       8.630   3.947  17.730  0.00  0.00    +0.000 HD
BRANCH  22  27
ATOM     27  N   UNL     1       8.504   5.370  20.066  0.00  0.00    +0.000 N 
ATOM     28  H   UNL     1       8.241   5.717  20.986  0.00  0.00    +0.000 HD
ATOM     29  H   UNL     1       9.448   5.004  20.015  0.00  0.00    +0.000 HD
ENDBRANCH  22  27
ENDBRANCH  18  19
ENDBRANCH   4  17
TORSDOF 4
ENDMDL
