MODEL 1
REMARK VINA RESULT:      -7.1      0.000      0.000
REMARK  Name = 
REMARK  14 active torsions:
REMARK  status: ('A' for Active; 'I' for Inactive)
REMARK    1  A    between atoms: C_1  and  C_2
REMARK    2  A    between atoms: C_2  and  C_3
REMARK    3  A    between atoms: C_3  and  O_4
REMARK    4  A    between atoms: O_4  and  C_5
REMARK    5  A    between atoms: C_5  and  C_6
REMARK    6  A    between atoms: C_6  and  N_7
REMARK    7  A    between atoms: N_11  and  CA_12
REMARK    8  A    between atoms: CA_12  and  C_13
REMARK    9  A    between atoms: CA_12  and  C_15
REMARK   10  A    between atoms: C_13  and  C_14
REMARK   11  A    between atoms: C_15  and  O_16
REMARK   12  A    between atoms: C_21  and  C_22
REMARK   13  A    between atoms: C_25  and  O_26
REMARK   14  A    between atoms: O_26  and  C_27
REMARK                            x       y       z     vdW  Elec       q    Type
REMARK                         _______ _______ _______ _____ _____    ______ ____
ROOT
ATOM      1  N   UNL     1       2.739   6.020  19.779  0.00  0.00    +0.000 N 
ATOM      2  C   UNL     1       3.725   5.249  19.183  0.00  0.00    +0.000 A 
ATOM      3  O   UNL     1       4.219   4.221  19.642  0.00  0.00    +0.000 OA
ATOM      4  C   UNL     1       4.238   5.720  17.807  0.00  0.00    +0.000 A 
ATOM      5  N   UNL     1       5.031   4.813  17.130  0.00  0.00    +0.000 N 
ATOM      6  N   UNL     1       3.939   6.894  17.325  0.00  0.00    +0.000 NA
ATOM      7  C   UNL     1       3.060   7.712  18.063  0.00  0.00    +0.000 A 
ATOM      8  C   UNL     1       2.711   8.970  17.579  0.00  0.00    +0.000 A 
ATOM      9  N   UNL     1       1.808   9.809  18.153  0.00  0.00    +0.000 NA
ATOM     10  C   UNL     1       1.219   9.395  19.295  0.00  0.00    +0.000 A 
ATOM     11  C   UNL     1       1.569   8.186  19.894  0.00  0.00    +0.000 A 
ATOM     12  C   UNL     1       2.450   7.308  19.255  0.00  0.00    +0.000 A 
ATOM     13  H   UNL     1       5.335   4.031  17.713  0.00  0.00    +0.000 HD
ENDROOT
BRANCH  10  14
ATOM     14  C   UNL     1       0.131  10.236  19.828  0.00  0.00    +0.000 A 
ATOM     15  C   UNL     1       0.038  10.605  21.176  0.00  0.00    +0.000 A 
ATOM     16  C   UNL     1      -1.009  11.422  21.615  0.00  0.00    +0.000 A 
ATOM     17  C   UNL     1      -1.946  11.857  20.686  0.00  0.00    +0.000 A 
ATOM     18  N   UNL     1      -1.895  11.536  19.381  0.00  0.00    +0.000 NA
ATOM     19  C   UNL     1      -0.862  10.756  18.992  0.00  0.00    +0.000 A 
BRANCH  17  20
ATOM     20  O   UNL     1      -2.952  12.677  21.146  0.00  0.00    +0.000 OA
ATOM     21  C   UNL     1      -2.653  13.261  22.411  0.00  0.00    +0.000 C 
ENDBRANCH  17  20
ENDBRANCH  10  14
BRANCH   1  22
ATOM     22  C   UNL     1       2.000   5.444  20.903  0.00  0.00    +0.000 C 
BRANCH  22  23
ATOM     23  C   UNL     1       0.930   4.413  20.500  0.00  0.00    +0.000 C 
BRANCH  23  24
ATOM     24  O   UNL     1       1.129   3.149  21.140  0.00  0.00    +0.000 OA
BRANCH  24  25
ATOM     25  C   UNL     1       1.697   2.210  20.221  0.00  0.00    +0.000 C 
BRANCH  25  27
ATOM     26  C   UNL     1       2.240   2.209  17.775  0.00  0.00    +0.000 C 
ATOM     27  C   UNL     1       1.162   2.459  18.818  0.00  0.00    +0.000 C 
ENDBRANCH  25  27
ENDBRANCH  24  25
ENDBRANCH  23  24
ENDBRANCH  22  23
ENDBRANCH   1  22
BRANCH   5  28
ATOM     28  CA  UNL     1       5.851   5.116  15.968  0.00  0.00    +0.000 C 
BRANCH  28  29
ATOM     29  C   UNL     1       6.124   3.823  15.176  0.00  0.00    +0.000 C 
ATOM     30  C   UNL     1       5.941   3.961  13.670  0.00  0.00    +0.000 C 
ENDBRANCH  28  29
BRANCH  28  31
ATOM     31  C   UNL     1       7.200   5.728  16.416  0.00  0.00    +0.000 C 
BRANCH  31  32
ATOM     32  O   UNL     1       7.132   7.127  16.683  0.00  0.00    +0.000 OA
ATOM     33  H   UNL     1       7.675   7.587  16.011  0.00  0.00    +0.000 HD
ENDBRANCH  31  32
ENDBRANCH  28  31
ENDBRANCH   5  28
TORSDOF 11
ENDMDL
MODEL 2
REMARK VINA RESULT:      -7.0      0.951      1.004
REMARK  Name = 
REMARK  14 active torsions:
REMARK  status: ('A' for Active; 'I' for Inactive)
REMARK    1  A    between atoms: C_1  and  C_2
REMARK    2  A    between atoms: C_2  and  C_3
REMARK    3  A    between atoms: C_3  and  O_4
REMARK    4  A    between atoms: O_4  and  C_5
REMARK    5  A    between atoms: C_5  and  C_6
REMARK    6  A    between atoms: C_6  and  N_7
REMARK    7  A    between atoms: N_11  and  CA_12
REMARK    8  A    between atoms: CA_12  and  C_13
REMARK    9  A    between atoms: CA_12  and  C_15
REMARK   10  A    between atoms: C_13  and  C_14
REMARK   11  A    between atoms: C_15  and  O_16
REMARK   12  A    between atoms: C_21  and  C_22
REMARK   13  A    between atoms: C_25  and  O_26
REMARK   14  A    between atoms: O_26  and  C_27
REMARK                            x       y       z     vdW  Elec       q    Type
REMARK                         _______ _______ _______ _____ _____    ______ ____
ROOT
ATOM      1  N   UNL     1       3.000   5.600  19.874  0.00  0.00    +0.000 N 
ATOM      2  C   UNL     1       3.884   4.913  19.057  0.00  0.00    +0.000 A 
ATOM      3  O   UNL     1       4.461   3.864  19.333  0.00  0.00    +0.000 OA
ATOM      4  C   UNL     1       4.157   5.519  17.665  0.00  0.00    +0.000 A 
ATOM      5  N   UNL     1       4.839   4.698  16.787  0.00  0.00    +0.000 N 
ATOM      6  N   UNL     1       3.768   6.723  17.348  0.00  0.00    +0.000 NA
ATOM      7  C   UNL     1       3.011   7.446  18.292  0.00  0.00    +0.000 A 
ATOM      8  C   UNL     1       2.571   8.732  17.988  0.00  0.00    +0.000 A 
ATOM      9  N   UNL     1       1.763   9.491  18.777  0.00  0.00    +0.000 NA
ATOM     10  C   UNL     1       1.376   8.961  19.957  0.00  0.00    +0.000 A 
ATOM     11  C   UNL     1       1.836   7.714  20.377  0.00  0.00    +0.000 A 
ATOM     12  C   UNL     1       2.611   6.922  19.524  0.00  0.00    +0.000 A 
ATOM     13  H   UNL     1       5.246   3.877  17.238  0.00  0.00    +0.000 HD
ENDROOT
BRANCH  10  14
ATOM     14  C   UNL     1       0.380   9.720  20.735  0.00  0.00    +0.000 A 
ATOM     15  C   UNL     1       0.096   9.457  22.081  0.00  0.00    +0.000 A 
ATOM     16  C   UNL     1      -0.846  10.228  22.769  0.00  0.00    +0.000 A 
ATOM     17  C   UNL     1      -1.488  11.255  22.090  0.00  0.00    +0.000 A 
ATOM     18  N   UNL     1      -1.244  11.552  20.801  0.00  0.00    +0.000 NA
ATOM     19  C   UNL     1      -0.318  10.793  20.172  0.00  0.00    +0.000 A 
BRANCH  17  20
ATOM     20  O   UNL     1      -2.395  12.008  22.801  0.00  0.00    +0.000 OA
ATOM     21  C   UNL     1      -1.996  13.370  22.935  0.00  0.00    +0.000 C 
ENDBRANCH  17  20
ENDBRANCH  10  14
BRANCH   1  22
ATOM     22  C   UNL     1       2.464   4.907  21.045  0.00  0.00    +0.000 C 
BRANCH  22  23
ATOM     23  C   UNL     1       1.290   3.958  20.742  0.00  0.00    +0.000 C 
BRANCH  23  24
ATOM     24  O   UNL     1       1.617   2.591  21.006  0.00  0.00    +0.000 OA
BRANCH  24  25
ATOM     25  C   UNL     1       1.423   1.796  19.831  0.00  0.00    +0.000 C 
BRANCH  25  27
ATOM     26  C   UNL     1       2.102   2.379  17.490  0.00  0.00    +0.000 C 
ATOM     27  C   UNL     1       1.146   2.692  18.632  0.00  0.00    +0.000 C 
ENDBRANCH  25  27
ENDBRANCH  24  25
ENDBRANCH  23  24
ENDBRANCH  22  23
ENDBRANCH   1  22
BRANCH   5  28
ATOM     28  CA  UNL     1       5.453   5.127  15.540  0.00  0.00    +0.000 C 
BRANCH  28  29
ATOM     29  C   UNL     1       5.355   3.994  14.500  0.00  0.00    +0.000 C 
ATOM     30  C   UNL     1       6.417   4.051  13.410  0.00  0.00    +0.000 C 
ENDBRANCH  28  29
BRANCH  28  31
ATOM     31  C   UNL     1       6.943   5.471  15.773  0.00  0.00    +0.000 C 
BRANCH  31  32
ATOM     32  O   UNL     1       7.597   4.588  16.682  0.00  0.00    +0.000 OA
ATOM     33  H   UNL     1       8.040   3.890  16.156  0.00  0.00    +0.000 HD
ENDBRANCH  31  32
ENDBRANCH  28  31
ENDBRANCH   5  28
TORSDOF 11
ENDMDL
MODEL 3
REMARK VINA RESULT:      -6.7      1.207      1.542
REMARK  Name = 
REMARK  14 active torsions:
REMARK  status: ('A' for Active; 'I' for Inactive)
REMARK    1  A    between atoms: C_1  and  C_2
REMARK    2  A    between atoms: C_2  and  C_3
REMARK    3  A    between atoms: C_3  and  O_4
REMARK    4  A    between atoms: O_4  and  C_5
REMARK    5  A    between atoms: C_5  and  C_6
REMARK    6  A    between atoms: C_6  and  N_7
REMARK    7  A    between atoms: N_11  and  CA_12
REMARK    8  A    between atoms: CA_12  and  C_13
REMARK    9  A    between atoms: CA_12  and  C_15
REMARK   10  A    between atoms: C_13  and  C_14
REMARK   11  A    between atoms: C_15  and  O_16
REMARK   12  A    between atoms: C_21  and  C_22
REMARK   13  A    between atoms: C_25  and  O_26
REMARK   14  A    between atoms: O_26  and  C_27
REMARK                            x       y       z     vdW  Elec       q    Type
REMARK                         _______ _______ _______ _____ _____    ______ ____
ROOT
ATOM      1  N   UNL     1       2.674   5.955  19.802  0.00  0.00    +0.000 N 
ATOM      2  C   UNL     1       3.775   5.167  19.506  0.00  0.00    +0.000 A 
ATOM      3  O   UNL     1       4.172   4.201  20.153  0.00  0.00    +0.000 OA
ATOM      4  C   UNL     1       4.569   5.534  18.235  0.00  0.00    +0.000 A 
ATOM      5  N   UNL     1       5.502   4.597  17.830  0.00  0.00    +0.000 N 
ATOM      6  N   UNL     1       4.367   6.651  17.593  0.00  0.00    +0.000 NA
ATOM      7  C   UNL     1       3.337   7.500  18.046  0.00  0.00    +0.000 A 
ATOM      8  C   UNL     1       3.086   8.699  17.384  0.00  0.00    +0.000 A 
ATOM      9  N   UNL     1       2.069   9.555  17.670  0.00  0.00    +0.000 NA
ATOM     10  C   UNL     1       1.251   9.224  18.692  0.00  0.00    +0.000 A 
ATOM     11  C   UNL     1       1.478   8.084  19.462  0.00  0.00    +0.000 A 
ATOM     12  C   UNL     1       2.489   7.183  19.111  0.00  0.00    +0.000 A 
ATOM     13  H   UNL     1       5.683   3.880  18.535  0.00  0.00    +0.000 HD
ENDROOT
BRANCH  10  14
ATOM     14  C   UNL     1       0.063  10.072  18.899  0.00  0.00    +0.000 A 
ATOM     15  C   UNL     1      -0.999  10.138  17.989  0.00  0.00    +0.000 A 
ATOM     16  C   UNL     1      -2.109  10.948  18.255  0.00  0.00    +0.000 A 
ATOM     17  C   UNL     1      -2.131  11.678  19.436  0.00  0.00    +0.000 A 
ATOM     18  N   UNL     1      -1.139  11.642  20.344  0.00  0.00    +0.000 NA
ATOM     19  C   UNL     1      -0.090  10.838  20.059  0.00  0.00    +0.000 A 
BRANCH  17  20
ATOM     20  O   UNL     1      -3.245  12.449  19.677  0.00  0.00    +0.000 OA
ATOM     21  C   UNL     1      -4.380  12.029  18.925  0.00  0.00    +0.000 C 
ENDBRANCH  17  20
ENDBRANCH  10  14
BRANCH   1  22
ATOM     22  C   UNL     1       1.716   5.456  20.789  0.00  0.00    +0.000 C 
BRANCH  22  23
ATOM     23  C   UNL     1       0.699   4.442  20.233  0.00  0.00    +0.000 C 
BRANCH  23  24
ATOM     24  O   UNL     1       1.187   3.099  20.292  0.00  0.00    +0.000 OA
BRANCH  24  25
ATOM     25  C   UNL     1       0.847   2.392  19.094  0.00  0.00    +0.000 C 
BRANCH  25  27
ATOM     26  C   UNL     1       2.363   2.986  17.189  0.00  0.00    +0.000 C 
ATOM     27  C   UNL     1       2.109   2.014  18.332  0.00  0.00    +0.000 C 
ENDBRANCH  25  27
ENDBRANCH  24  25
ENDBRANCH  23  24
ENDBRANCH  22  23
ENDBRANCH   1  22
BRANCH   5  28
ATOM     28  CA  UNL     1       6.551   4.825  16.849  0.00  0.00    +0.000 C 
BRANCH  28  29
ATOM     29  C   UNL     1       6.324   3.911  15.629  0.00  0.00    +0.000 C 
ATOM     30  C   UNL     1       5.344   4.468  14.604  0.00  0.00    +0.000 C 
ENDBRANCH  28  29
BRANCH  28  31
ATOM     31  C   UNL     1       7.933   4.508  17.467  0.00  0.00    +0.000 C 
BRANCH  31  32
ATOM     32  O   UNL     1       8.068   4.945  18.818  0.00  0.00    +0.000 OA
ATOM     33  H   UNL     1       7.609   5.805  18.902  0.00  0.00    +0.000 HD
ENDBRANCH  31  32
ENDBRANCH  28  31
ENDBRANCH   5  28
TORSDOF 11
ENDMDL
MODEL 4
REMARK VINA RESULT:      -6.7      1.558      1.847
REMARK  Name = 
REMARK  14 active torsions:
REMARK  status: ('A' for Active; 'I' for Inactive)
REMARK    1  A    between atoms: C_1  and  C_2
REMARK    2  A    between atoms: C_2  and  C_3
REMARK    3  A    between atoms: C_3  and  O_4
REMARK    4  A    between atoms: O_4  and  C_5
REMARK    5  A    between atoms: C_5  and  C_6
REMARK    6  A    between atoms: C_6  and  N_7
REMARK    7  A    between atoms: N_11  and  CA_12
REMARK    8  A    between atoms: CA_12  and  C_13
REMARK    9  A    between atoms: CA_12  and  C_15
REMARK   10  A    between atoms: C_13  and  C_14
REMARK   11  A    between atoms: C_15  and  O_16
REMARK   12  A    between atoms: C_21  and  C_22
REMARK   13  A    between atoms: C_25  and  O_26
REMARK   14  A    between atoms: O_26  and  C_27
REMARK                            x       y       z     vdW  Elec       q    Type
REMARK                         _______ _______ _______ _____ _____    ______ ____
ROOT
ATOM      1  N   UNL     1       3.733   5.072  19.507  0.00  0.00    +0.000 N 
ATOM      2  C   UNL     1       4.553   4.431  18.592  0.00  0.00    +0.000 A 
ATOM      3  O   UNL     1       5.221   3.421  18.799  0.00  0.00    +0.000 OA
ATOM      4  C   UNL     1       4.621   5.039  17.176  0.00  0.00    +0.000 A 
ATOM      5  N   UNL     1       5.242   4.251  16.224  0.00  0.00    +0.000 N 
ATOM      6  N   UNL     1       4.124   6.214  16.905  0.00  0.00    +0.000 NA
ATOM      7  C   UNL     1       3.443   6.900  17.930  0.00  0.00    +0.000 A 
ATOM      8  C   UNL     1       2.893   8.154  17.679  0.00  0.00    +0.000 A 
ATOM      9  N   UNL     1       2.141   8.871  18.556  0.00  0.00    +0.000 NA
ATOM     10  C   UNL     1       1.930   8.331  19.775  0.00  0.00    +0.000 A 
ATOM     11  C   UNL     1       2.512   7.117  20.141  0.00  0.00    +0.000 A 
ATOM     12  C   UNL     1       3.226   6.365  19.203  0.00  0.00    +0.000 A 
ATOM     13  H   UNL     1       5.749   3.461  16.625  0.00  0.00    +0.000 HD
ENDROOT
BRANCH  10  14
ATOM     14  C   UNL     1       0.990   9.036  20.666  0.00  0.00    +0.000 A 
ATOM     15  C   UNL     1       0.018   9.931  20.200  0.00  0.00    +0.000 A 
ATOM     16  C   UNL     1      -0.857  10.553  21.096  0.00  0.00    +0.000 A 
ATOM     17  C   UNL     1      -0.741  10.262  22.449  0.00  0.00    +0.000 A 
ATOM     18  N   UNL     1       0.170   9.405  22.943  0.00  0.00    +0.000 NA
ATOM     19  C   UNL     1       0.990   8.814  22.046  0.00  0.00    +0.000 A 
BRANCH  17  20
ATOM     20  O   UNL     1      -1.631  10.875  23.302  0.00  0.00    +0.000 OA
ATOM     21  C   UNL     1      -1.868  12.239  22.965  0.00  0.00    +0.000 C 
ENDBRANCH  17  20
ENDBRANCH  10  14
BRANCH   1  22
ATOM     22  C   UNL     1       3.383   4.359  20.736  0.00  0.00    +0.000 C 
BRANCH  22  23
ATOM     23  C   UNL     1       2.986   2.886  20.526  0.00  0.00    +0.000 C 
BRANCH  23  24
ATOM     24  O   UNL     1       1.627   2.635  20.895  0.00  0.00    +0.000 OA
BRANCH  24  25
ATOM     25  C   UNL     1       0.735   3.304  19.996  0.00  0.00    +0.000 C 
BRANCH  25  27
ATOM     26  C   UNL     1       1.165   3.876  17.594  0.00  0.00    +0.000 C 
ATOM     27  C   UNL     1       0.902   2.753  18.587  0.00  0.00    +0.000 C 
ENDBRANCH  25  27
ENDBRANCH  24  25
ENDBRANCH  23  24
ENDBRANCH  22  23
ENDBRANCH   1  22
BRANCH   5  28
ATOM     28  CA  UNL     1       5.675   4.704  14.912  0.00  0.00    +0.000 C 
BRANCH  28  29
ATOM     29  C   UNL     1       5.355   3.623  13.861  0.00  0.00    +0.000 C 
ATOM     30  C   UNL     1       6.261   3.652  12.637  0.00  0.00    +0.000 C 
ENDBRANCH  28  29
BRANCH  28  31
ATOM     31  C   UNL     1       7.200   4.966  14.918  0.00  0.00    +0.000 C 
BRANCH  31  32
ATOM     32  O   UNL     1       7.605   5.960  15.857  0.00  0.00    +0.000 OA
ATOM     33  H   UNL     1       7.237   5.715  16.730  0.00  0.00    +0.000 HD
ENDBRANCH  31  32
ENDBRANCH  28  31
ENDBRANCH   5  28
TORSDOF 11
ENDMDL
MODEL 5
REMARK VINA RESULT:      -6.6      0.972      1.347
REMARK  Name = 
REMARK  14 active torsions:
REMARK  status: ('A' for Active; 'I' for Inactive)
REMARK    1  A    between atoms: C_1  and  C_2
REMARK    2  A    between atoms: C_2  and  C_3
REMARK    3  A    between atoms: C_3  and  O_4
REMARK    4  A    between atoms: O_4  and  C_5
REMARK    5  A    between atoms: C_5  and  C_6
REMARK    6  A    between atoms: C_6  and  N_7
REMARK    7  A    between atoms: N_11  and  CA_12
REMARK    8  A    between atoms: CA_12  and  C_13
REMARK    9  A    between atoms: CA_12  and  C_15
REMARK   10  A    between atoms: C_13  and  C_14
REMARK   11  A    between atoms: C_15  and  O_16
REMARK   12  A    between atoms: C_21  and  C_22
REMARK   13  A    between atoms: C_25  and  O_26
REMARK   14  A    between atoms: O_26  and  C_27
REMARK                            x       y       z     vdW  Elec       q    Type
REMARK                         _______ _______ _______ _____ _____    ______ ____
ROOT
ATOM      1  N   UNL     1       2.541   6.304  19.757  0.00  0.00    +0.000 N 
ATOM      2  C   UNL     1       3.632   5.567  19.325  0.00  0.00    +0.000 A 
ATOM      3  O   UNL     1       4.101   4.574  19.876  0.00  0.00    +0.000 OA
ATOM      4  C   UNL     1       4.310   6.031  18.019  0.00  0.00    +0.000 A 
ATOM      5  N   UNL     1       5.227   5.146  17.483  0.00  0.00    +0.000 N 
ATOM      6  N   UNL     1       4.031   7.180  17.468  0.00  0.00    +0.000 NA
ATOM      7  C   UNL     1       3.024   7.971  18.055  0.00  0.00    +0.000 A 
ATOM      8  C   UNL     1       2.692   9.201  17.492  0.00  0.00    +0.000 A 
ATOM      9  N   UNL     1       1.683  10.010  17.913  0.00  0.00    +0.000 NA
ATOM     10  C   UNL     1       0.960   9.595  18.974  0.00  0.00    +0.000 A 
ATOM     11  C   UNL     1       1.275   8.416  19.650  0.00  0.00    +0.000 A 
ATOM     12  C   UNL     1       2.273   7.567  19.162  0.00  0.00    +0.000 A 
ATOM     13  H   UNL     1       5.481   4.393  18.124  0.00  0.00    +0.000 HD
ENDROOT
BRANCH  10  14
ATOM     14  C   UNL     1      -0.226  10.396  19.329  0.00  0.00    +0.000 A 
ATOM     15  C   UNL     1      -1.279  10.642  18.440  0.00  0.00    +0.000 A 
ATOM     16  C   UNL     1      -2.387  11.394  18.846  0.00  0.00    +0.000 A 
ATOM     17  C   UNL     1      -2.416  11.885  20.144  0.00  0.00    +0.000 A 
ATOM     18  N   UNL     1      -1.434  11.669  21.037  0.00  0.00    +0.000 NA
ATOM     19  C   UNL     1      -0.386  10.928  20.613  0.00  0.00    +0.000 A 
BRANCH  17  20
ATOM     20  O   UNL     1      -3.529  12.604  20.519  0.00  0.00    +0.000 OA
ATOM     21  C   UNL     1      -4.615  12.453  19.609  0.00  0.00    +0.000 C 
ENDBRANCH  17  20
ENDBRANCH  10  14
BRANCH   1  22
ATOM     22  C   UNL     1       1.679   5.720  20.785  0.00  0.00    +0.000 C 
BRANCH  22  23
ATOM     23  C   UNL     1       1.158   4.309  20.452  0.00  0.00    +0.000 C 
BRANCH  23  24
ATOM     24  O   UNL     1       1.027   4.101  19.043  0.00  0.00    +0.000 OA
BRANCH  24  25
ATOM     25  C   UNL     1       1.227   2.719  18.724  0.00  0.00    +0.000 C 
BRANCH  25  27
ATOM     26  C   UNL     1       3.438   1.700  18.129  0.00  0.00    +0.000 C 
ATOM     27  C   UNL     1       2.294   2.579  17.647  0.00  0.00    +0.000 C 
ENDBRANCH  25  27
ENDBRANCH  24  25
ENDBRANCH  23  24
ENDBRANCH  22  23
ENDBRANCH   1  22
BRANCH   5  28
ATOM     28  CA  UNL     1       6.187   5.462  16.437  0.00  0.00    +0.000 C 
BRANCH  28  29
ATOM     29  C   UNL     1       6.700   4.158  15.797  0.00  0.00    +0.000 C 
ATOM     30  C   UNL     1       6.013   3.790  14.488  0.00  0.00    +0.000 C 
ENDBRANCH  28  29
BRANCH  28  31
ATOM     31  C   UNL     1       7.385   6.238  17.033  0.00  0.00    +0.000 C 
BRANCH  31  32
ATOM     32  O   UNL     1       7.225   7.655  16.991  0.00  0.00    +0.000 OA
ATOM     33  H   UNL     1       6.803   7.884  16.138  0.00  0.00    +0.000 HD
ENDBRANCH  31  32
ENDBRANCH  28  31
ENDBRANCH   5  28
TORSDOF 11
ENDMDL
MODEL 6
REMARK VINA RESULT:      -6.6      0.973      1.696
REMARK  Name = 
REMARK  14 active torsions:
REMARK  status: ('A' for Active; 'I' for Inactive)
REMARK    1  A    between atoms: C_1  and  C_2
REMARK    2  A    between atoms: C_2  and  C_3
REMARK    3  A    between atoms: C_3  and  O_4
REMARK    4  A    between atoms: O_4  and  C_5
REMARK    5  A    between atoms: C_5  and  C_6
REMARK    6  A    between atoms: C_6  and  N_7
REMARK    7  A    between atoms: N_11  and  CA_12
REMARK    8  A    between atoms: CA_12  and  C_13
REMARK    9  A    between atoms: CA_12  and  C_15
REMARK   10  A    between atoms: C_13  and  C_14
REMARK   11  A    between atoms: C_15  and  O_16
REMARK   12  A    between atoms: C_21  and  C_22
REMARK   13  A    between atoms: C_25  and  O_26
REMARK   14  A    between atoms: O_26  and  C_27
REMARK                            x       y       z     vdW  Elec       q    Type
REMARK                         _______ _______ _______ _____ _____    ______ ____
ROOT
ATOM      1  N   UNL     1       2.654   6.081  19.805  0.00  0.00    +0.000 N 
ATOM      2  C   UNL     1       3.754   5.302  19.481  0.00  0.00    +0.000 A 
ATOM      3  O   UNL     1       4.175   4.340  20.119  0.00  0.00    +0.000 OA
ATOM      4  C   UNL     1       4.510   5.673  18.188  0.00  0.00    +0.000 A 
ATOM      5  N   UNL     1       5.440   4.743  17.760  0.00  0.00    +0.000 N 
ATOM      6  N   UNL     1       4.282   6.787  17.551  0.00  0.00    +0.000 NA
ATOM      7  C   UNL     1       3.257   7.629  18.030  0.00  0.00    +0.000 A 
ATOM      8  C   UNL     1       2.978   8.824  17.373  0.00  0.00    +0.000 A 
ATOM      9  N   UNL     1       1.962   9.672  17.686  0.00  0.00    +0.000 NA
ATOM     10  C   UNL     1       1.175   9.336  18.729  0.00  0.00    +0.000 A 
ATOM     11  C   UNL     1       1.432   8.199  19.495  0.00  0.00    +0.000 A 
ATOM     12  C   UNL     1       2.440   7.306  19.117  0.00  0.00    +0.000 A 
ATOM     13  H   UNL     1       5.645   4.029  18.461  0.00  0.00    +0.000 HD
ENDROOT
BRANCH  10  14
ATOM     14  C   UNL     1      -0.015  10.174  18.967  0.00  0.00    +0.000 A 
ATOM     15  C   UNL     1      -1.102  10.230  18.086  0.00  0.00    +0.000 A 
ATOM     16  C   UNL     1      -2.210  11.031  18.380  0.00  0.00    +0.000 A 
ATOM     17  C   UNL     1      -2.206  11.763  19.560  0.00  0.00    +0.000 A 
ATOM     18  N   UNL     1      -1.190  11.737  20.441  0.00  0.00    +0.000 NA
ATOM     19  C   UNL     1      -0.143  10.942  20.129  0.00  0.00    +0.000 A 
BRANCH  17  20
ATOM     20  O   UNL     1      -3.321  12.525  19.830  0.00  0.00    +0.000 OA
ATOM     21  C   UNL     1      -3.451  12.840  21.214  0.00  0.00    +0.000 C 
ENDBRANCH  17  20
ENDBRANCH  10  14
BRANCH   1  22
ATOM     22  C   UNL     1       1.727   5.575  20.818  0.00  0.00    +0.000 C 
BRANCH  22  23
ATOM     23  C   UNL     1       0.862   4.389  20.354  0.00  0.00    +0.000 C 
BRANCH  23  24
ATOM     24  O   UNL     1       1.304   3.147  20.911  0.00  0.00    +0.000 OA
BRANCH  24  25
ATOM     25  C   UNL     1       1.298   2.123  19.911  0.00  0.00    +0.000 C 
BRANCH  25  27
ATOM     26  C   UNL     1       2.464   2.307  17.700  0.00  0.00    +0.000 C 
ATOM     27  C   UNL     1       1.261   2.746  18.522  0.00  0.00    +0.000 C 
ENDBRANCH  25  27
ENDBRANCH  24  25
ENDBRANCH  23  24
ENDBRANCH  22  23
ENDBRANCH   1  22
BRANCH   5  28
ATOM     28  CA  UNL     1       6.460   4.978  16.752  0.00  0.00    +0.000 C 
BRANCH  28  29
ATOM     29  C   UNL     1       7.245   6.257  17.100  0.00  0.00    +0.000 C 
ATOM     30  C   UNL     1       7.791   6.290  18.522  0.00  0.00    +0.000 C 
ENDBRANCH  28  29
BRANCH  28  31
ATOM     31  C   UNL     1       5.802   5.152  15.362  0.00  0.00    +0.000 C 
BRANCH  31  32
ATOM     32  O   UNL     1       5.515   6.510  15.033  0.00  0.00    +0.000 OA
ATOM     33  H   UNL     1       6.367   6.973  14.901  0.00  0.00    +0.000 HD
ENDBRANCH  31  32
ENDBRANCH  28  31
ENDBRANCH   5  28
TORSDOF 11
ENDMDL
MODEL 7
REMARK VINA RESULT:      -6.5      2.623      9.993
REMARK  Name = 
REMARK  14 active torsions:
REMARK  status: ('A' for Active; 'I' for Inactive)
REMARK    1  A    between atoms: C_1  and  C_2
REMARK    2  A    between atoms: C_2  and  C_3
REMARK    3  A    between atoms: C_3  and  O_4
REMARK    4  A    between atoms: O_4  and  C_5
REMARK    5  A    between atoms: C_5  and  C_6
REMARK    6  A    between atoms: C_6  and  N_7
REMARK    7  A    between atoms: N_11  and  CA_12
REMARK    8  A    between atoms: CA_12  and  C_13
REMARK    9  A    between atoms: CA_12  and  C_15
REMARK   10  A    between atoms: C_13  and  C_14
REMARK   11  A    between atoms: C_15  and  O_16
REMARK   12  A    between atoms: C_21  and  C_22
REMARK   13  A    between atoms: C_25  and  O_26
REMARK   14  A    between atoms: O_26  and  C_27
REMARK                            x       y       z     vdW  Elec       q    Type
REMARK                         _______ _______ _______ _____ _____    ______ ____
ROOT
ATOM      1  N   UNL     1      -1.220  11.687  20.069  0.00  0.00    +0.000 N 
ATOM      2  C   UNL     1      -1.956  12.609  20.797  0.00  0.00    +0.000 A 
ATOM      3  O   UNL     1      -2.480  13.630  20.357  0.00  0.00    +0.000 OA
ATOM      4  C   UNL     1      -2.143  12.316  22.300  0.00  0.00    +0.000 A 
ATOM      5  N   UNL     1      -3.076  13.108  22.945  0.00  0.00    +0.000 N 
ATOM      6  N   UNL     1      -1.466  11.384  22.911  0.00  0.00    +0.000 NA
ATOM      7  C   UNL     1      -0.597  10.583  22.143  0.00  0.00    +0.000 A 
ATOM      8  C   UNL     1       0.139   9.573  22.758  0.00  0.00    +0.000 A 
ATOM      9  N   UNL     1       0.938   8.681  22.113  0.00  0.00    +0.000 NA
ATOM     10  C   UNL     1       1.041   8.801  20.772  0.00  0.00    +0.000 A 
ATOM     11  C   UNL     1       0.404   9.833  20.085  0.00  0.00    +0.000 A 
ATOM     12  C   UNL     1      -0.466  10.699  20.757  0.00  0.00    +0.000 A 
ATOM     13  H   UNL     1      -3.373  13.912  22.389  0.00  0.00    +0.000 HD
ENDROOT
BRANCH  10  14
ATOM     14  C   UNL     1       1.782   7.742  20.062  0.00  0.00    +0.000 A 
ATOM     15  C   UNL     1       1.956   6.451  20.576  0.00  0.00    +0.000 A 
ATOM     16  C   UNL     1       2.653   5.485  19.842  0.00  0.00    +0.000 A 
ATOM     17  C   UNL     1       3.163   5.836  18.600  0.00  0.00    +0.000 A 
ATOM     18  N   UNL     1       3.016   7.059  18.060  0.00  0.00    +0.000 NA
ATOM     19  C   UNL     1       2.326   7.962  18.792  0.00  0.00    +0.000 A 
BRANCH  17  20
ATOM     20  O   UNL     1       3.826   4.857  17.894  0.00  0.00    +0.000 OA
ATOM     21  C   UNL     1       4.330   3.820  18.730  0.00  0.00    +0.000 C 
ENDBRANCH  17  20
ENDBRANCH  10  14
BRANCH   1  22
ATOM     22  C   UNL     1      -1.294  11.747  18.609  0.00  0.00    +0.000 C 
BRANCH  22  23
ATOM     23  C   UNL     1      -2.410  10.882  17.993  0.00  0.00    +0.000 C 
BRANCH  23  24
ATOM     24  O   UNL     1      -3.540  11.663  17.594  0.00  0.00    +0.000 OA
BRANCH  24  25
ATOM     25  C   UNL     1      -4.042  11.206  16.334  0.00  0.00    +0.000 C 
BRANCH  25  27
ATOM     26  C   UNL     1      -3.429  10.067  14.187  0.00  0.00    +0.000 C 
ATOM     27  C   UNL     1      -2.900  10.684  15.473  0.00  0.00    +0.000 C 
ENDBRANCH  25  27
ENDBRANCH  24  25
ENDBRANCH  23  24
ENDBRANCH  22  23
ENDBRANCH   1  22
BRANCH   5  28
ATOM     28  CA  UNL     1      -3.231  13.219  24.386  0.00  0.00    +0.000 C 
BRANCH  28  29
ATOM     29  C   UNL     1      -4.536  12.523  24.820  0.00  0.00    +0.000 C 
ATOM     30  C   UNL     1      -5.735  12.831  23.932  0.00  0.00    +0.000 C 
ENDBRANCH  28  29
BRANCH  28  31
ATOM     31  C   UNL     1      -3.291  14.708  24.800  0.00  0.00    +0.000 C 
BRANCH  31  32
ATOM     32  O   UNL     1      -2.315  15.069  25.775  0.00  0.00    +0.000 OA
ATOM     33  H   UNL     1      -1.732  14.296  25.917  0.00  0.00    +0.000 HD
ENDBRANCH  31  32
ENDBRANCH  28  31
ENDBRANCH   5  28
TORSDOF 11
ENDMDL
MODEL 8
REMARK VINA RESULT:      -6.5      1.323      1.785
REMARK  Name = 
REMARK  14 active torsions:
REMARK  status: ('A' for Active; 'I' for Inactive)
REMARK    1  A    between atoms: C_1  and  C_2
REMARK    2  A    between atoms: C_2  and  C_3
REMARK    3  A    between atoms: C_3  and  O_4
REMARK    4  A    between atoms: O_4  and  C_5
REMARK    5  A    between atoms: C_5  and  C_6
REMARK    6  A    between atoms: C_6  and  N_7
REMARK    7  A    between atoms: N_11  and  CA_12
REMARK    8  A    between atoms: CA_12  and  C_13
REMARK    9  A    between atoms: CA_12  and  C_15
REMARK   10  A    between atoms: C_13  and  C_14
REMARK   11  A    between atoms: C_15  and  O_16
REMARK   12  A    between atoms: C_21  and  C_22
REMARK   13  A    between atoms: C_25  and  O_26
REMARK   14  A    between atoms: O_26  and  C_27
REMARK                            x       y       z     vdW  Elec       q    Type
REMARK                         _______ _______ _______ _____ _____    ______ ____
ROOT
ATOM      1  N   UNL     1       3.310   5.054  19.948  0.00  0.00    +0.000 N 
ATOM      2  C   UNL     1       4.210   4.214  19.312  0.00  0.00    +0.000 A 
ATOM      3  O   UNL     1       4.708   3.194  19.782  0.00  0.00    +0.000 OA
ATOM      4  C   UNL     1       4.613   4.592  17.871  0.00  0.00    +0.000 A 
ATOM      5  N   UNL     1       5.309   3.619  17.178  0.00  0.00    +0.000 N 
ATOM      6  N   UNL     1       4.313   5.750  17.352  0.00  0.00    +0.000 NA
ATOM      7  C   UNL     1       3.533   6.639  18.118  0.00  0.00    +0.000 A 
ATOM      8  C   UNL     1       3.186   7.883  17.597  0.00  0.00    +0.000 A 
ATOM      9  N   UNL     1       2.368   8.787  18.201  0.00  0.00    +0.000 NA
ATOM     10  C   UNL     1       1.871   8.457  19.412  0.00  0.00    +0.000 A 
ATOM     11  C   UNL     1       2.232   7.269  20.045  0.00  0.00    +0.000 A 
ATOM     12  C   UNL     1       3.020   6.324  19.380  0.00  0.00    +0.000 A 
ATOM     13  H   UNL     1       5.637   2.858  17.775  0.00  0.00    +0.000 HD
ENDROOT
BRANCH  10  14
ATOM     14  C   UNL     1       0.866   9.368  19.992  0.00  0.00    +0.000 A 
ATOM     15  C   UNL     1      -0.011  10.135  19.216  0.00  0.00    +0.000 A 
ATOM     16  C   UNL     1      -0.956  10.965  19.828  0.00  0.00    +0.000 A 
ATOM     17  C   UNL     1      -1.003  11.007  21.215  0.00  0.00    +0.000 A 
ATOM     18  N   UNL     1      -0.188  10.283  22.003  0.00  0.00    +0.000 NA
ATOM     19  C   UNL     1       0.703   9.484  21.376  0.00  0.00    +0.000 A 
BRANCH  17  20
ATOM     20  O   UNL     1      -1.958  11.818  21.787  0.00  0.00    +0.000 OA
ATOM     21  C   UNL     1      -1.501  12.451  22.979  0.00  0.00    +0.000 C 
ENDBRANCH  17  20
ENDBRANCH  10  14
BRANCH   1  22
ATOM     22  C   UNL     1       2.656   4.568  21.164  0.00  0.00    +0.000 C 
BRANCH  22  23
ATOM     23  C   UNL     1       1.365   3.768  20.915  0.00  0.00    +0.000 C 
BRANCH  23  24
ATOM     24  O   UNL     1       1.616   2.365  20.783  0.00  0.00    +0.000 OA
BRANCH  24  25
ATOM     25  C   UNL     1       1.536   1.973  19.408  0.00  0.00    +0.000 C 
BRANCH  25  27
ATOM     26  C   UNL     1       1.228   3.622  17.547  0.00  0.00    +0.000 C 
ATOM     27  C   UNL     1       0.541   2.855  18.668  0.00  0.00    +0.000 C 
ENDBRANCH  25  27
ENDBRANCH  24  25
ENDBRANCH  23  24
ENDBRANCH  22  23
ENDBRANCH   1  22
BRANCH   5  28
ATOM     28  CA  UNL     1       6.031   3.828  15.933  0.00  0.00    +0.000 C 
BRANCH  28  29
ATOM     29  C   UNL     1       7.354   4.563  16.221  0.00  0.00    +0.000 C 
ATOM     30  C   UNL     1       7.749   4.588  17.692  0.00  0.00    +0.000 C 
ENDBRANCH  28  29
BRANCH  28  31
ATOM     31  C   UNL     1       5.180   4.682  14.964  0.00  0.00    +0.000 C 
BRANCH  31  32
ATOM     32  O   UNL     1       5.611   6.039  14.870  0.00  0.00    +0.000 OA
ATOM     33  H   UNL     1       5.147   6.550  15.564  0.00  0.00    +0.000 HD
ENDBRANCH  31  32
ENDBRANCH  28  31
ENDBRANCH   5  28
TORSDOF 11
ENDMDL
MODEL 9
REMARK VINA RESULT:      -6.5      2.661      9.968
REMARK  Name = 
REMARK  14 active torsions:
REMARK  status: ('A' for Active; 'I' for Inactive)
REMARK    1  A    between atoms: C_1  and  C_2
REMARK    2  A    between atoms: C_2  and  C_3
REMARK    3  A    between atoms: C_3  and  O_4
REMARK    4  A    between atoms: O_4  and  C_5
REMARK    5  A    between atoms: C_5  and  C_6
REMARK    6  A    between atoms: C_6  and  N_7
REMARK    7  A    between atoms: N_11  and  CA_12
REMARK    8  A    between atoms: CA_12  and  C_13
REMARK    9  A    between atoms: CA_12  and  C_15
REMARK   10  A    between atoms: C_13  and  C_14
REMARK   11  A    between atoms: C_15  and  O_16
REMARK   12  A    between atoms: C_21  and  C_22
REMARK   13  A    between atoms: C_25  and  O_26
REMARK   14  A    between atoms: O_26  and  C_27
REMARK                            x       y       z     vdW  Elec       q    Type
REMARK                         _______ _______ _______ _____ _____    ______ ____
ROOT
ATOM      1  N   UNL     1      -1.454  11.725  19.908  0.00  0.00    +0.000 N 
ATOM      2  C   UNL     1      -2.222  12.589  20.672  0.00  0.00    +0.000 A 
ATOM      3  O   UNL     1      -2.838  13.569  20.261  0.00  0.00    +0.000 OA
ATOM      4  C   UNL     1      -2.322  12.278  22.180  0.00  0.00    +0.000 A 
ATOM      5  N   UNL     1      -3.281  12.999  22.869  0.00  0.00    +0.000 N 
ATOM      6  N   UNL     1      -1.553  11.397  22.756  0.00  0.00    +0.000 NA
ATOM      7  C   UNL     1      -0.662  10.663  21.947  0.00  0.00    +0.000 A 
ATOM      8  C   UNL     1       0.172   9.708  22.523  0.00  0.00    +0.000 A 
ATOM      9  N   UNL     1       1.005   8.879  21.839  0.00  0.00    +0.000 NA
ATOM     10  C   UNL     1       1.040   9.009  20.496  0.00  0.00    +0.000 A 
ATOM     11  C   UNL     1       0.300   9.994  19.842  0.00  0.00    +0.000 A 
ATOM     12  C   UNL     1      -0.600  10.792  20.556  0.00  0.00    +0.000 A 
ATOM     13  H   UNL     1      -3.659  13.781  22.332  0.00  0.00    +0.000 HD
ENDROOT
BRANCH  10  14
ATOM     14  C   UNL     1       1.824   8.009  19.748  0.00  0.00    +0.000 A 
ATOM     15  C   UNL     1       2.343   8.242  18.469  0.00  0.00    +0.000 A 
ATOM     16  C   UNL     1       3.097   7.258  17.821  0.00  0.00    +0.000 A 
ATOM     17  C   UNL     1       3.318   6.053  18.475  0.00  0.00    +0.000 A 
ATOM     18  N   UNL     1       2.847   5.784  19.706  0.00  0.00    +0.000 NA
ATOM     19  C   UNL     1       2.134   6.764  20.305  0.00  0.00    +0.000 A 
BRANCH  17  20
ATOM     20  O   UNL     1       4.081   5.113  17.819  0.00  0.00    +0.000 OA
ATOM     21  C   UNL     1       4.301   3.940  18.598  0.00  0.00    +0.000 C 
ENDBRANCH  17  20
ENDBRANCH  10  14
BRANCH   1  22
ATOM     22  C   UNL     1      -1.595  11.782  18.453  0.00  0.00    +0.000 C 
BRANCH  22  23
ATOM     23  C   UNL     1      -2.963  11.309  17.928  0.00  0.00    +0.000 C 
BRANCH  23  24
ATOM     24  O   UNL     1      -2.938   9.942  17.508  0.00  0.00    +0.000 OA
BRANCH  24  25
ATOM     25  C   UNL     1      -2.384   9.835  16.192  0.00  0.00    +0.000 C 
BRANCH  25  27
ATOM     26  C   UNL     1      -3.591  10.013  14.003  0.00  0.00    +0.000 C 
ATOM     27  C   UNL     1      -3.117  10.766  15.237  0.00  0.00    +0.000 C 
ENDBRANCH  25  27
ENDBRANCH  24  25
ENDBRANCH  23  24
ENDBRANCH  22  23
ENDBRANCH   1  22
BRANCH   5  28
ATOM     28  CA  UNL     1      -3.380  13.095  24.316  0.00  0.00    +0.000 C 
BRANCH  28  29
ATOM     29  C   UNL     1      -4.653  12.370  24.795  0.00  0.00    +0.000 C 
ATOM     30  C   UNL     1      -5.923  12.785  24.063  0.00  0.00    +0.000 C 
ENDBRANCH  28  29
BRANCH  28  31
ATOM     31  C   UNL     1      -3.453  14.579  24.746  0.00  0.00    +0.000 C 
BRANCH  31  32
ATOM     32  O   UNL     1      -2.974  14.814  26.068  0.00  0.00    +0.000 OA
ATOM     33  H   UNL     1      -2.019  14.598  26.084  0.00  0.00    +0.000 HD
ENDBRANCH  31  32
ENDBRANCH  28  31
ENDBRANCH   5  28
TORSDOF 11
ENDMDL
