MODEL 1
REMARK VINA RESULT:      -7.8      0.000      0.000
REMARK  Name = 
REMARK  6 active torsions:
REMARK  status: ('A' for Active; 'I' for Inactive)
REMARK    1  A    between atoms: C_1  and  C_2
REMARK    2  A    between atoms: C_2  and  C_3
REMARK    3  A    between atoms: C_2  and  C_4
REMARK    4  A    between atoms: C_4  and  C_5
REMARK    5  A    between atoms: C_10  and  C_12
REMARK    6  A    between atoms: C_17  and  C_19
REMARK                            x       y       z     vdW  Elec       q    Type
REMARK                         _______ _______ _______ _____ _____    ______ ____
ROOT
ATOM      1  C   UNL     1       3.007   2.236  19.270  0.00  0.00    +0.000 C 
ATOM      2  C   UNL     1       1.476   2.048  19.317  0.00  0.00    +0.000 C 
ATOM      3  C   UNL     1       0.721   3.379  19.293  0.00  0.00    +0.000 C 
ATOM      4  C   UNL     1       1.247   4.301  20.390  0.00  0.00    +0.000 C 
ATOM      5  N   UNL     1       2.674   4.535  20.171  0.00  0.00    +0.000 N 
ATOM      6  C   UNL     1       3.311   5.754  19.904  0.00  0.00    +0.000 C 
ATOM      7  O   UNL     1       4.540   5.884  19.969  0.00  0.00    +0.000 OA
ATOM      8  C   UNL     1       3.485   3.317  20.261  0.00  0.00    +0.000 C 
ENDROOT
BRANCH   1  14
ATOM      9  C   UNL     1       6.191   4.124  14.534  0.00  0.00    +0.000 A 
ATOM     10  N   UNL     1       6.782   4.852  15.460  0.00  0.00    +0.000 NA
ATOM     11  N   UNL     1       6.289   4.580  16.723  0.00  0.00    +0.000 NA
ATOM     12  C   UNL     1       5.328   3.684  16.696  0.00  0.00    +0.000 A 
ATOM     13  N   UNL     1       4.663   3.279  17.829  0.00  0.00    +0.000 N 
ATOM     14  C   UNL     1       3.498   2.539  17.851  0.00  0.00    +0.000 C 
ATOM     15  O   UNL     1       2.875   2.177  16.861  0.00  0.00    +0.000 OA
ATOM     16  S   UNL     1       5.032   3.024  15.152  0.00  0.00    +0.000 S 
ATOM     17  H   UNL     1       5.011   3.705  18.676  0.00  0.00    +0.000 HD
BRANCH   9  18
ATOM     18  C   UNL     1       6.456   4.221  13.064  0.00  0.00    +0.000 C 
BRANCH  18  20
ATOM     19  C   UNL     1       4.639   3.388  11.486  0.00  0.00    +0.000 C 
ATOM     20  C   UNL     1       5.894   3.017  12.281  0.00  0.00    +0.000 C 
ATOM     21  C   UNL     1       6.952   2.457  11.327  0.00  0.00    +0.000 C 
ENDBRANCH  18  20
ENDBRANCH   9  18
ENDBRANCH   1  14
BRANCH   6  22
ATOM     22  C   UNL     1       2.515   6.976  19.561  0.00  0.00    +0.000 A 
ATOM     23  C   UNL     1       2.501   7.415  18.229  0.00  0.00    +0.000 A 
ATOM     24  C   UNL     1       1.834   8.595  17.877  0.00  0.00    +0.000 A 
ATOM     25  C   UNL     1       1.192   9.348  18.857  0.00  0.00    +0.000 A 
ATOM     26 CL   UNL     1       0.435  10.837  18.451  0.00  0.00    +0.000 Cl
ATOM     27  C   UNL     1       1.143   8.892  20.169  0.00  0.00    +0.000 A 
ATOM     28  C   UNL     1       1.752   7.679  20.500  0.00  0.00    +0.000 A 
ENDBRANCH   6  22
TORSDOF 4
ENDMDL
MODEL 2
REMARK VINA RESULT:      -6.6      4.671      7.187
REMARK  Name = 
REMARK  6 active torsions:
REMARK  status: ('A' for Active; 'I' for Inactive)
REMARK    1  A    between atoms: C_1  and  C_2
REMARK    2  A    between atoms: C_2  and  C_3
REMARK    3  A    between atoms: C_2  and  C_4
REMARK    4  A    between atoms: C_4  and  C_5
REMARK    5  A    between atoms: C_10  and  C_12
REMARK    6  A    between atoms: C_17  and  C_19
REMARK                            x       y       z     vdW  Elec       q    Type
REMARK                         _______ _______ _______ _____ _____    ______ ____
ROOT
ATOM      1  C   UNL     1      -0.127   9.996  20.235  0.00  0.00    +0.000 C 
ATOM      2  C   UNL     1      -1.271  10.413  19.286  0.00  0.00    +0.000 C 
ATOM      3  C   UNL     1      -1.010  11.761  18.609  0.00  0.00    +0.000 C 
ATOM      4  C   UNL     1      -0.681  12.820  19.658  0.00  0.00    +0.000 C 
ATOM      5  N   UNL     1       0.504  12.400  20.404  0.00  0.00    +0.000 N 
ATOM      6  C   UNL     1       1.746  13.046  20.473  0.00  0.00    +0.000 C 
ATOM      7  O   UNL     1       2.602  12.741  21.313  0.00  0.00    +0.000 OA
ATOM      8  C   UNL     1       0.311  11.155  21.153  0.00  0.00    +0.000 C 
ENDROOT
BRANCH   1  14
ATOM      9  C   UNL     1       4.171   6.393  18.074  0.00  0.00    +0.000 A 
ATOM     10  N   UNL     1       3.830   5.670  19.122  0.00  0.00    +0.000 NA
ATOM     11  N   UNL     1       2.773   6.233  19.815  0.00  0.00    +0.000 NA
ATOM     12  C   UNL     1       2.381   7.368  19.281  0.00  0.00    +0.000 A 
ATOM     13  N   UNL     1       1.368   8.126  19.817  0.00  0.00    +0.000 N 
ATOM     14  C   UNL     1       1.068   9.426  19.465  0.00  0.00    +0.000 C 
ATOM     15  O   UNL     1       1.693  10.097  18.653  0.00  0.00    +0.000 OA
ATOM     16  S   UNL     1       3.191   7.778  17.837  0.00  0.00    +0.000 S 
ATOM     17  H   UNL     1       0.935   7.707  20.628  0.00  0.00    +0.000 HD
BRANCH   9  18
ATOM     18  C   UNL     1       5.312   6.088  17.153  0.00  0.00    +0.000 C 
BRANCH  18  20
ATOM     19  C   UNL     1       7.474   4.801  17.548  0.00  0.00    +0.000 C 
ATOM     20  C   UNL     1       6.670   6.061  17.883  0.00  0.00    +0.000 C 
ATOM     21  C   UNL     1       7.495   7.300  17.525  0.00  0.00    +0.000 C 
ENDBRANCH  18  20
ENDBRANCH   9  18
ENDBRANCH   1  14
BRANCH   6  22
ATOM     22  C   UNL     1       2.077  14.175  19.545  0.00  0.00    +0.000 A 
ATOM     23  C   UNL     1       1.484  15.425  19.772  0.00  0.00    +0.000 A 
ATOM     24  C   UNL     1       1.705  16.488  18.886  0.00  0.00    +0.000 A 
ATOM     25  C   UNL     1       2.507  16.299  17.764  0.00  0.00    +0.000 A 
ATOM     26 CL   UNL     1       2.724  17.572  16.628  0.00  0.00    +0.000 Cl
ATOM     27  C   UNL     1       3.151  15.085  17.561  0.00  0.00    +0.000 A 
ATOM     28  C   UNL     1       2.981  14.051  18.485  0.00  0.00    +0.000 A 
ENDBRANCH   6  22
TORSDOF 4
ENDMDL
MODEL 3
REMARK VINA RESULT:      -6.5      5.267      8.425
REMARK  Name = 
REMARK  6 active torsions:
REMARK  status: ('A' for Active; 'I' for Inactive)
REMARK    1  A    between atoms: C_1  and  C_2
REMARK    2  A    between atoms: C_2  and  C_3
REMARK    3  A    between atoms: C_2  and  C_4
REMARK    4  A    between atoms: C_4  and  C_5
REMARK    5  A    between atoms: C_10  and  C_12
REMARK    6  A    between atoms: C_17  and  C_19
REMARK                            x       y       z     vdW  Elec       q    Type
REMARK                         _______ _______ _______ _____ _____    ______ ____
ROOT
ATOM      1  C   UNL     1       1.078  12.181  18.276  0.00  0.00    +0.000 C 
ATOM      2  C   UNL     1       1.823  13.184  19.183  0.00  0.00    +0.000 C 
ATOM      3  C   UNL     1       1.020  13.553  20.432  0.00  0.00    +0.000 C 
ATOM      4  C   UNL     1      -0.378  14.022  20.038  0.00  0.00    +0.000 C 
ATOM      5  N   UNL     1      -1.054  12.948  19.312  0.00  0.00    +0.000 N 
ATOM      6  C   UNL     1      -2.221  12.267  19.682  0.00  0.00    +0.000 C 
ATOM      7  O   UNL     1      -2.841  11.543  18.893  0.00  0.00    +0.000 OA
ATOM      8  C   UNL     1      -0.393  12.588  18.054  0.00  0.00    +0.000 C 
ENDROOT
BRANCH   1  14
ATOM      9  C   UNL     1       2.627   6.450  19.215  0.00  0.00    +0.000 A 
ATOM     10  N   UNL     1       3.182   6.602  18.029  0.00  0.00    +0.000 NA
ATOM     11  N   UNL     1       3.044   7.895  17.557  0.00  0.00    +0.000 NA
ATOM     12  C   UNL     1       2.367   8.655  18.389  0.00  0.00    +0.000 A 
ATOM     13  N   UNL     1       2.075   9.970  18.117  0.00  0.00    +0.000 N 
ATOM     14  C   UNL     1       1.174  10.750  18.814  0.00  0.00    +0.000 C 
ATOM     15  O   UNL     1       0.481  10.362  19.746  0.00  0.00    +0.000 OA
ATOM     16  S   UNL     1       1.947   7.887  19.852  0.00  0.00    +0.000 S 
ATOM     17  H   UNL     1       2.463  10.299  17.245  0.00  0.00    +0.000 HD
BRANCH   9  18
ATOM     18  C   UNL     1       2.554   5.159  19.970  0.00  0.00    +0.000 C 
BRANCH  18  20
ATOM     19  C   UNL     1       1.299   3.741  18.267  0.00  0.00    +0.000 C 
ATOM     20  C   UNL     1       1.267   4.367  19.664  0.00  0.00    +0.000 C 
ATOM     21  C   UNL     1       1.054   3.267  20.709  0.00  0.00    +0.000 C 
ENDBRANCH  18  20
ENDBRANCH   9  18
ENDBRANCH   1  14
BRANCH   6  22
ATOM     22  C   UNL     1      -2.795  12.419  21.057  0.00  0.00    +0.000 A 
ATOM     23  C   UNL     1      -2.045  11.966  22.152  0.00  0.00    +0.000 A 
ATOM     24  C   UNL     1      -2.574  12.018  23.447  0.00  0.00    +0.000 A 
ATOM     25  C   UNL     1      -3.860  12.511  23.651  0.00  0.00    +0.000 A 
ATOM     26 CL   UNL     1      -4.550  12.509  25.226  0.00  0.00    +0.000 Cl
ATOM     27  C   UNL     1      -4.590  13.022  22.586  0.00  0.00    +0.000 A 
ATOM     28  C   UNL     1      -4.029  13.030  21.306  0.00  0.00    +0.000 A 
ENDBRANCH   6  22
TORSDOF 4
ENDMDL
MODEL 4
REMARK VINA RESULT:      -6.4      4.119      6.672
REMARK  Name = 
REMARK  6 active torsions:
REMARK  status: ('A' for Active; 'I' for Inactive)
REMARK    1  A    between atoms: C_1  and  C_2
REMARK    2  A    between atoms: C_2  and  C_3
REMARK    3  A    between atoms: C_2  and  C_4
REMARK    4  A    between atoms: C_4  and  C_5
REMARK    5  A    between atoms: C_10  and  C_12
REMARK    6  A    between atoms: C_17  and  C_19
REMARK                            x       y       z     vdW  Elec       q    Type
REMARK                         _______ _______ _______ _____ _____    ______ ____
ROOT
ATOM      1  C   UNL     1       1.427   9.370  22.028  0.00  0.00    +0.000 C 
ATOM      2  C   UNL     1       0.380   9.433  23.161  0.00  0.00    +0.000 C 
ATOM      3  C   UNL     1      -1.008   9.832  22.655  0.00  0.00    +0.000 C 
ATOM      4  C   UNL     1      -0.920  11.121  21.843  0.00  0.00    +0.000 C 
ATOM      5  N   UNL     1      -0.020  10.912  20.711  0.00  0.00    +0.000 N 
ATOM      6  C   UNL     1      -0.330  10.978  19.346  0.00  0.00    +0.000 C 
ATOM      7  O   UNL     1       0.545  11.019  18.472  0.00  0.00    +0.000 OA
ATOM      8  C   UNL     1       1.357  10.606  21.110  0.00  0.00    +0.000 C 
ENDROOT
BRANCH   1  14
ATOM      9  C   UNL     1       2.354   4.864  18.159  0.00  0.00    +0.000 A 
ATOM     10  N   UNL     1       3.182   5.741  17.627  0.00  0.00    +0.000 NA
ATOM     11  N   UNL     1       3.239   6.910  18.366  0.00  0.00    +0.000 NA
ATOM     12  C   UNL     1       2.433   6.879  19.403  0.00  0.00    +0.000 A 
ATOM     13  N   UNL     1       2.294   7.942  20.263  0.00  0.00    +0.000 N 
ATOM     14  C   UNL     1       1.305   8.077  21.215  0.00  0.00    +0.000 C 
ATOM     15  O   UNL     1       0.388   7.285  21.395  0.00  0.00    +0.000 OA
ATOM     16  S   UNL     1       1.632   5.389  19.621  0.00  0.00    +0.000 S 
ATOM     17  H   UNL     1       2.898   8.721  20.043  0.00  0.00    +0.000 HD
BRANCH   9  18
ATOM     18  C   UNL     1       2.025   3.527  17.572  0.00  0.00    +0.000 C 
BRANCH  18  20
ATOM     19  C   UNL     1       4.057   2.705  18.869  0.00  0.00    +0.000 C 
ATOM     20  C   UNL     1       2.652   2.363  18.366  0.00  0.00    +0.000 C 
ATOM     21  C   UNL     1       1.763   1.985  19.554  0.00  0.00    +0.000 C 
ENDBRANCH  18  20
ENDBRANCH   9  18
ENDBRANCH   1  14
BRANCH   6  22
ATOM     22  C   UNL     1      -1.754  11.041  18.885  0.00  0.00    +0.000 A 
ATOM     23  C   UNL     1      -2.561  12.093  19.342  0.00  0.00    +0.000 A 
ATOM     24  C   UNL     1      -3.918  12.149  18.999  0.00  0.00    +0.000 A 
ATOM     25  C   UNL     1      -4.475  11.147  18.208  0.00  0.00    +0.000 A 
ATOM     26 CL   UNL     1      -6.155  11.164  17.842  0.00  0.00    +0.000 Cl
ATOM     27  C   UNL     1      -3.674  10.135  17.695  0.00  0.00    +0.000 A 
ATOM     28  C   UNL     1      -2.307  10.123  17.986  0.00  0.00    +0.000 A 
ENDBRANCH   6  22
TORSDOF 4
ENDMDL
MODEL 5
REMARK VINA RESULT:      -6.3      4.199      6.740
REMARK  Name = 
REMARK  6 active torsions:
REMARK  status: ('A' for Active; 'I' for Inactive)
REMARK    1  A    between atoms: C_1  and  C_2
REMARK    2  A    between atoms: C_2  and  C_3
REMARK    3  A    between atoms: C_2  and  C_4
REMARK    4  A    between atoms: C_4  and  C_5
REMARK    5  A    between atoms: C_10  and  C_12
REMARK    6  A    between atoms: C_17  and  C_19
REMARK                            x       y       z     vdW  Elec       q    Type
REMARK                         _______ _______ _______ _____ _____    ______ ____
ROOT
ATOM      1  C   UNL     1       1.351   9.550  22.201  0.00  0.00    +0.000 C 
ATOM      2  C   UNL     1       0.303   9.566  23.334  0.00  0.00    +0.000 C 
ATOM      3  C   UNL     1      -1.094   9.942  22.835  0.00  0.00    +0.000 C 
ATOM      4  C   UNL     1      -1.036  11.249  22.049  0.00  0.00    +0.000 C 
ATOM      5  N   UNL     1      -0.131  11.084  20.913  0.00  0.00    +0.000 N 
ATOM      6  C   UNL     1      -0.442  11.169  19.550  0.00  0.00    +0.000 C 
ATOM      7  O   UNL     1       0.432  11.248  18.677  0.00  0.00    +0.000 OA
ATOM      8  C   UNL     1       1.253  10.803  21.307  0.00  0.00    +0.000 C 
ENDROOT
BRANCH   1  14
ATOM      9  C   UNL     1       2.342   5.183  18.192  0.00  0.00    +0.000 A 
ATOM     10  N   UNL     1       3.105   6.111  17.650  0.00  0.00    +0.000 NA
ATOM     11  N   UNL     1       3.134   7.264  18.413  0.00  0.00    +0.000 NA
ATOM     12  C   UNL     1       2.372   7.171  19.480  0.00  0.00    +0.000 A 
ATOM     13  N   UNL     1       2.217   8.206  20.370  0.00  0.00    +0.000 N 
ATOM     14  C   UNL     1       1.260   8.271  21.362  0.00  0.00    +0.000 C 
ATOM     15  O   UNL     1       0.390   7.432  21.558  0.00  0.00    +0.000 OA
ATOM     16  S   UNL     1       1.654   5.639  19.693  0.00  0.00    +0.000 S 
ATOM     17  H   UNL     1       2.773   9.019  20.146  0.00  0.00    +0.000 HD
BRANCH   9  18
ATOM     18  C   UNL     1       2.055   3.844  17.586  0.00  0.00    +0.000 C 
BRANCH  18  20
ATOM     19  C   UNL     1       0.779   2.016  18.819  0.00  0.00    +0.000 C 
ATOM     20  C   UNL     1       2.134   2.699  18.617  0.00  0.00    +0.000 C 
ATOM     21  C   UNL     1       3.168   1.657  18.180  0.00  0.00    +0.000 C 
ENDBRANCH  18  20
ENDBRANCH   9  18
ENDBRANCH   1  14
BRANCH   6  22
ATOM     22  C   UNL     1      -1.867  11.209  19.089  0.00  0.00    +0.000 A 
ATOM     23  C   UNL     1      -2.299  10.249  18.162  0.00  0.00    +0.000 A 
ATOM     24  C   UNL     1      -3.600  10.294  17.646  0.00  0.00    +0.000 A 
ATOM     25  C   UNL     1      -4.469  11.307  18.045  0.00  0.00    +0.000 A 
ATOM     26 CL   UNL     1      -6.044  11.418  17.362  0.00  0.00    +0.000 Cl
ATOM     27  C   UNL     1      -4.077  12.225  19.011  0.00  0.00    +0.000 A 
ATOM     28  C   UNL     1      -2.800  12.133  19.572  0.00  0.00    +0.000 A 
ENDBRANCH   6  22
TORSDOF 4
ENDMDL
MODEL 6
REMARK VINA RESULT:      -6.3      0.760      1.378
REMARK  Name = 
REMARK  6 active torsions:
REMARK  status: ('A' for Active; 'I' for Inactive)
REMARK    1  A    between atoms: C_1  and  C_2
REMARK    2  A    between atoms: C_2  and  C_3
REMARK    3  A    between atoms: C_2  and  C_4
REMARK    4  A    between atoms: C_4  and  C_5
REMARK    5  A    between atoms: C_10  and  C_12
REMARK    6  A    between atoms: C_17  and  C_19
REMARK                            x       y       z     vdW  Elec       q    Type
REMARK                         _______ _______ _______ _____ _____    ______ ____
ROOT
ATOM      1  C   UNL     1       3.370   2.473  18.523  0.00  0.00    +0.000 C 
ATOM      2  C   UNL     1       1.849   2.220  18.459  0.00  0.00    +0.000 C 
ATOM      3  C   UNL     1       1.035   3.512  18.566  0.00  0.00    +0.000 C 
ATOM      4  C   UNL     1       1.463   4.301  19.800  0.00  0.00    +0.000 C 
ATOM      5  N   UNL     1       2.886   4.618  19.694  0.00  0.00    +0.000 N 
ATOM      6  C   UNL     1       3.479   5.885  19.622  0.00  0.00    +0.000 C 
ATOM      7  O   UNL     1       4.696   6.055  19.772  0.00  0.00    +0.000 OA
ATOM      8  C   UNL     1       3.748   3.432  19.670  0.00  0.00    +0.000 C 
ENDROOT
BRANCH   1  14
ATOM      9  C   UNL     1       6.909   4.622  14.165  0.00  0.00    +0.000 A 
ATOM     10  N   UNL     1       7.662   4.949  15.196  0.00  0.00    +0.000 NA
ATOM     11  N   UNL     1       7.119   4.509  16.391  0.00  0.00    +0.000 NA
ATOM     12  C   UNL     1       5.969   3.899  16.216  0.00  0.00    +0.000 A 
ATOM     13  N   UNL     1       5.227   3.406  17.263  0.00  0.00    +0.000 N 
ATOM     14  C   UNL     1       3.918   2.979  17.185  0.00  0.00    +0.000 C 
ATOM     15  O   UNL     1       3.223   3.020  16.177  0.00  0.00    +0.000 OA
ATOM     16  S   UNL     1       5.517   3.714  14.582  0.00  0.00    +0.000 S 
ATOM     17  H   UNL     1       5.671   3.523  18.163  0.00  0.00    +0.000 HD
BRANCH   9  18
ATOM     18  C   UNL     1       7.187   5.000  12.743  0.00  0.00    +0.000 C 
BRANCH  18  20
ATOM     19  C   UNL     1       7.516   2.673  11.761  0.00  0.00    +0.000 C 
ATOM     20  C   UNL     1       6.669   3.949  11.741  0.00  0.00    +0.000 C 
ATOM     21  C   UNL     1       5.210   3.595  12.041  0.00  0.00    +0.000 C 
ENDBRANCH  18  20
ENDBRANCH   9  18
ENDBRANCH   1  14
BRANCH   6  22
ATOM     22  C   UNL     1       2.646   7.110  19.396  0.00  0.00    +0.000 A 
ATOM     23  C   UNL     1       1.948   7.656  20.483  0.00  0.00    +0.000 A 
ATOM     24  C   UNL     1       1.097   8.754  20.302  0.00  0.00    +0.000 A 
ATOM     25  C   UNL     1       0.932   9.301  19.032  0.00  0.00    +0.000 A 
ATOM     26 CL   UNL     1      -0.167  10.600  18.782  0.00  0.00    +0.000 Cl
ATOM     27  C   UNL     1       1.666   8.811  17.959  0.00  0.00    +0.000 A 
ATOM     28  C   UNL     1       2.564   7.760  18.160  0.00  0.00    +0.000 A 
ENDBRANCH   6  22
TORSDOF 4
ENDMDL
MODEL 7
REMARK VINA RESULT:      -6.2      3.975      6.622
REMARK  Name = 
REMARK  6 active torsions:
REMARK  status: ('A' for Active; 'I' for Inactive)
REMARK    1  A    between atoms: C_1  and  C_2
REMARK    2  A    between atoms: C_2  and  C_3
REMARK    3  A    between atoms: C_2  and  C_4
REMARK    4  A    between atoms: C_4  and  C_5
REMARK    5  A    between atoms: C_10  and  C_12
REMARK    6  A    between atoms: C_17  and  C_19
REMARK                            x       y       z     vdW  Elec       q    Type
REMARK                         _______ _______ _______ _____ _____    ______ ____
ROOT
ATOM      1  C   UNL     1       1.726   9.419  21.643  0.00  0.00    +0.000 C 
ATOM      2  C   UNL     1       0.715   9.161  22.780  0.00  0.00    +0.000 C 
ATOM      3  C   UNL     1      -0.729   9.442  22.356  0.00  0.00    +0.000 C 
ATOM      4  C   UNL     1      -0.838  10.843  21.760  0.00  0.00    +0.000 C 
ATOM      5  N   UNL     1       0.048  10.938  20.601  0.00  0.00    +0.000 N 
ATOM      6  C   UNL     1      -0.309  11.175  19.267  0.00  0.00    +0.000 C 
ATOM      7  O   UNL     1       0.525  11.471  18.403  0.00  0.00    +0.000 OA
ATOM      8  C   UNL     1       1.465  10.763  20.934  0.00  0.00    +0.000 C 
ENDROOT
BRANCH   1  14
ATOM      9  C   UNL     1       1.781   3.984  19.077  0.00  0.00    +0.000 A 
ATOM     10  N   UNL     1       2.096   3.616  20.303  0.00  0.00    +0.000 NA
ATOM     11  N   UNL     1       2.099   4.687  21.178  0.00  0.00    +0.000 NA
ATOM     12  C   UNL     1       1.818   5.819  20.574  0.00  0.00    +0.000 A 
ATOM     13  N   UNL     1       1.796   7.024  21.235  0.00  0.00    +0.000 N 
ATOM     14  C   UNL     1       1.752   8.266  20.635  0.00  0.00    +0.000 C 
ATOM     15  O   UNL     1       1.769   8.464  19.427  0.00  0.00    +0.000 OA
ATOM     16  S   UNL     1       1.418   5.651  18.925  0.00  0.00    +0.000 S 
ATOM     17  H   UNL     1       1.975   6.945  22.226  0.00  0.00    +0.000 HD
BRANCH   9  18
ATOM     18  C   UNL     1       1.745   3.074  17.888  0.00  0.00    +0.000 C 
BRANCH  18  20
ATOM     19  C   UNL     1       4.169   3.748  17.490  0.00  0.00    +0.000 C 
ATOM     20  C   UNL     1       3.151   2.605  17.461  0.00  0.00    +0.000 C 
ATOM     21  C   UNL     1       3.634   1.469  18.367  0.00  0.00    +0.000 C 
ENDBRANCH  18  20
ENDBRANCH   9  18
ENDBRANCH   1  14
BRANCH   6  22
ATOM     22  C   UNL     1      -1.743  11.116  18.835  0.00  0.00    +0.000 A 
ATOM     23  C   UNL     1      -2.614  12.127  19.262  0.00  0.00    +0.000 A 
ATOM     24  C   UNL     1      -3.978  12.072  18.946  0.00  0.00    +0.000 A 
ATOM     25  C   UNL     1      -4.476  10.997  18.213  0.00  0.00    +0.000 A 
ATOM     26 CL   UNL     1      -6.159  10.878  17.883  0.00  0.00    +0.000 Cl
ATOM     27  C   UNL     1      -3.614  10.022  17.729  0.00  0.00    +0.000 A 
ATOM     28  C   UNL     1      -2.245  10.120  17.990  0.00  0.00    +0.000 A 
ENDBRANCH   6  22
TORSDOF 4
ENDMDL
MODEL 8
REMARK VINA RESULT:      -6.2      6.970      8.475
REMARK  Name = 
REMARK  6 active torsions:
REMARK  status: ('A' for Active; 'I' for Inactive)
REMARK    1  A    between atoms: C_1  and  C_2
REMARK    2  A    between atoms: C_2  and  C_3
REMARK    3  A    between atoms: C_2  and  C_4
REMARK    4  A    between atoms: C_4  and  C_5
REMARK    5  A    between atoms: C_10  and  C_12
REMARK    6  A    between atoms: C_17  and  C_19
REMARK                            x       y       z     vdW  Elec       q    Type
REMARK                         _______ _______ _______ _____ _____    ______ ____
ROOT
ATOM      1  C   UNL     1      10.061  11.010  19.821  0.00  0.00    +0.000 C 
ATOM      2  C   UNL     1       9.431  11.117  21.226  0.00  0.00    +0.000 C 
ATOM      3  C   UNL     1       8.323  12.171  21.293  0.00  0.00    +0.000 C 
ATOM      4  C   UNL     1       8.835  13.506  20.759  0.00  0.00    +0.000 C 
ATOM      5  N   UNL     1       9.271  13.330  19.375  0.00  0.00    +0.000 N 
ATOM      6  C   UNL     1       8.751  13.944  18.228  0.00  0.00    +0.000 C 
ATOM      7  O   UNL     1       9.336  13.912  17.138  0.00  0.00    +0.000 OA
ATOM      8  C   UNL     1      10.391  12.395  19.230  0.00  0.00    +0.000 C 
ENDROOT
BRANCH   1  14
ATOM      9  C   UNL     1       6.822   6.668  17.215  0.00  0.00    +0.000 A 
ATOM     10  N   UNL     1       7.480   5.919  18.076  0.00  0.00    +0.000 NA
ATOM     11  N   UNL     1       8.295   6.676  18.899  0.00  0.00    +0.000 NA
ATOM     12  C   UNL     1       8.243   7.955  18.606  0.00  0.00    +0.000 A 
ATOM     13  N   UNL     1       8.994   8.897  19.268  0.00  0.00    +0.000 N 
ATOM     14  C   UNL     1       9.177  10.203  18.864  0.00  0.00    +0.000 C 
ATOM     15  O   UNL     1       8.727  10.691  17.835  0.00  0.00    +0.000 OA
ATOM     16  S   UNL     1       7.116   8.347  17.387  0.00  0.00    +0.000 S 
ATOM     17  H   UNL     1       9.552   8.514  20.019  0.00  0.00    +0.000 HD
BRANCH   9  18
ATOM     18  C   UNL     1       5.903   6.151  16.151  0.00  0.00    +0.000 C 
BRANCH  18  20
ATOM     19  C   UNL     1       4.636   3.979  16.554  0.00  0.00    +0.000 C 
ATOM     20  C   UNL     1       5.932   4.613  16.042  0.00  0.00    +0.000 C 
ATOM     21  C   UNL     1       6.170   4.184  14.591  0.00  0.00    +0.000 C 
ENDBRANCH  18  20
ENDBRANCH   9  18
ENDBRANCH   1  14
BRANCH   6  22
ATOM     22  C   UNL     1       7.464  14.709  18.285  0.00  0.00    +0.000 A 
ATOM     23  C   UNL     1       7.475  16.001  18.829  0.00  0.00    +0.000 A 
ATOM     24  C   UNL     1       6.283  16.723  18.972  0.00  0.00    +0.000 A 
ATOM     25  C   UNL     1       5.075  16.149  18.584  0.00  0.00    +0.000 A 
ATOM     26 CL   UNL     1       3.596  16.994  18.824  0.00  0.00    +0.000 Cl
ATOM     27  C   UNL     1       5.056  14.896  17.984  0.00  0.00    +0.000 A 
ATOM     28  C   UNL     1       6.257  14.211  17.782  0.00  0.00    +0.000 A 
ENDBRANCH   6  22
TORSDOF 4
ENDMDL
MODEL 9
REMARK VINA RESULT:      -6.2      5.601      8.800
REMARK  Name = 
REMARK  6 active torsions:
REMARK  status: ('A' for Active; 'I' for Inactive)
REMARK    1  A    between atoms: C_1  and  C_2
REMARK    2  A    between atoms: C_2  and  C_3
REMARK    3  A    between atoms: C_2  and  C_4
REMARK    4  A    between atoms: C_4  and  C_5
REMARK    5  A    between atoms: C_10  and  C_12
REMARK    6  A    between atoms: C_17  and  C_19
REMARK                            x       y       z     vdW  Elec       q    Type
REMARK                         _______ _______ _______ _____ _____    ______ ____
ROOT
ATOM      1  C   UNL     1       0.980  12.412  18.795  0.00  0.00    +0.000 C 
ATOM      2  C   UNL     1       1.475  13.457  19.818  0.00  0.00    +0.000 C 
ATOM      3  C   UNL     1       0.406  13.818  20.851  0.00  0.00    +0.000 C 
ATOM      4  C   UNL     1      -0.885  14.228  20.148  0.00  0.00    +0.000 C 
ATOM      5  N   UNL     1      -1.351  13.117  19.319  0.00  0.00    +0.000 N 
ATOM      6  C   UNL     1      -2.548  12.400  19.442  0.00  0.00    +0.000 C 
ATOM      7  O   UNL     1      -2.956  11.640  18.554  0.00  0.00    +0.000 OA
ATOM      8  C   UNL     1      -0.418  12.760  18.246  0.00  0.00    +0.000 C 
ENDROOT
BRANCH   1  14
ATOM      9  C   UNL     1       2.068   6.582  19.779  0.00  0.00    +0.000 A 
ATOM     10  N   UNL     1       2.485   6.643  18.530  0.00  0.00    +0.000 NA
ATOM     11  N   UNL     1       2.417   7.929  18.025  0.00  0.00    +0.000 NA
ATOM     12  C   UNL     1       1.924   8.778  18.899  0.00  0.00    +0.000 A 
ATOM     13  N   UNL     1       1.730  10.107  18.610  0.00  0.00    +0.000 N 
ATOM     14  C   UNL     1       1.002  10.995  19.376  0.00  0.00    +0.000 C 
ATOM     15  O   UNL     1       0.394  10.707  20.399  0.00  0.00    +0.000 OA
ATOM     16  S   UNL     1       1.614   8.099  20.433  0.00  0.00    +0.000 S 
ATOM     17  H   UNL     1       2.039  10.369  17.685  0.00  0.00    +0.000 HD
BRANCH   9  18
ATOM     18  C   UNL     1       1.963   5.329  20.591  0.00  0.00    +0.000 C 
BRANCH  18  20
ATOM     19  C   UNL     1       3.320   3.274  19.940  0.00  0.00    +0.000 C 
ATOM     20  C   UNL     1       2.021   4.056  19.723  0.00  0.00    +0.000 C 
ATOM     21  C   UNL     1       0.825   3.148  20.023  0.00  0.00    +0.000 C 
ENDBRANCH  18  20
ENDBRANCH   9  18
ENDBRANCH   1  14
BRANCH   6  22
ATOM     22  C   UNL     1      -3.415  12.555  20.654  0.00  0.00    +0.000 A 
ATOM     23  C   UNL     1      -4.775  12.843  20.473  0.00  0.00    +0.000 A 
ATOM     24  C   UNL     1      -5.606  13.071  21.577  0.00  0.00    +0.000 A 
ATOM     25  C   UNL     1      -5.077  13.026  22.864  0.00  0.00    +0.000 A 
ATOM     26 CL   UNL     1      -6.069  13.379  24.224  0.00  0.00    +0.000 Cl
ATOM     27  C   UNL     1      -3.746  12.678  23.062  0.00  0.00    +0.000 A 
ATOM     28  C   UNL     1      -2.940  12.385  21.959  0.00  0.00    +0.000 A 
ENDBRANCH   6  22
TORSDOF 4
ENDMDL
