MODEL 1
REMARK VINA RESULT:      -8.4      0.000      0.000
REMARK  Name = 
REMARK  1 active torsions:
REMARK  status: ('A' for Active; 'I' for Inactive)
REMARK    1  A    between atoms: C_12  and  C_13
REMARK                            x       y       z     vdW  Elec       q    Type
REMARK                         _______ _______ _______ _____ _____    ______ ____
ROOT
ATOM      1  O   UNL     1       1.017  11.533  18.622  0.00  0.00    +0.000 OA
ATOM      2  C   UNL     1       1.082  10.451  19.195  0.00  0.00    +0.000 C 
ATOM      3  C   UNL     1       0.507  10.291  20.567  0.00  0.00    +0.000 A 
ATOM      4  C   UNL     1      -0.090  11.391  21.198  0.00  0.00    +0.000 A 
ATOM      5  C   UNL     1      -0.619  11.259  22.485  0.00  0.00    +0.000 A 
ATOM      6  C   UNL     1      -0.553  10.036  23.150  0.00  0.00    +0.000 A 
ATOM      7  C   UNL     1       0.034   8.935  22.531  0.00  0.00    +0.000 A 
ATOM      8  C   UNL     1       0.564   9.055  21.237  0.00  0.00    +0.000 A 
ATOM      9  C   UNL     1       1.177   7.849  20.607  0.00  0.00    +0.000 C 
ATOM     10  O   UNL     1       1.152   6.776  21.199  0.00  0.00    +0.000 OA
ATOM     11  C   UNL     1       1.775   8.039  19.304  0.00  0.00    +0.000 A 
ATOM     12  C   UNL     1       2.497   7.181  18.421  0.00  0.00    +0.000 A 
ATOM     13  C   UNL     1       2.758   7.945  17.299  0.00  0.00    +0.000 A 
ATOM     14  O   UNL     1       2.281   9.214  17.451  0.00  0.00    +0.000 OA
ATOM     15  C   UNL     1       1.693   9.260  18.673  0.00  0.00    +0.000 A 
ENDROOT
BRANCH  12  16
ATOM     16  C   UNL     1       2.908   5.797  18.592  0.00  0.00    +0.000 A 
ATOM     17  C   UNL     1       1.975   4.766  18.387  0.00  0.00    +0.000 A 
ATOM     18  C   UNL     1       2.359   3.414  18.399  0.00  0.00    +0.000 A 
ATOM     19  C   UNL     1       3.682   3.064  18.651  0.00  0.00    +0.000 A 
ATOM     20  C   UNL     1       4.577   4.083  18.902  0.00  0.00    +0.000 A 
ATOM     21  C   UNL     1       4.208   5.414  18.883  0.00  0.00    +0.000 A 
ATOM     22  O   UNL     1       5.272   6.230  19.140  0.00  0.00    +0.000 OA
ATOM     23  C   UNL     1       6.344   5.272  19.248  0.00  0.00    +0.000 C 
ATOM     24  O   UNL     1       5.901   3.906  19.164  0.00  0.00    +0.000 OA
ENDBRANCH  12  16
TORSDOF 1
ENDMDL
MODEL 2
REMARK VINA RESULT:      -8.4      1.291      1.992
REMARK  Name = 
REMARK  1 active torsions:
REMARK  status: ('A' for Active; 'I' for Inactive)
REMARK    1  A    between atoms: C_12  and  C_13
REMARK                            x       y       z     vdW  Elec       q    Type
REMARK                         _______ _______ _______ _____ _____    ______ ____
ROOT
ATOM      1  O   UNL     1       0.880  11.261  18.425  0.00  0.00    +0.000 OA
ATOM      2  C   UNL     1       1.070  10.216  19.038  0.00  0.00    +0.000 C 
ATOM      3  C   UNL     1       0.529  10.047  20.423  0.00  0.00    +0.000 A 
ATOM      4  C   UNL     1      -0.181  11.098  21.020  0.00  0.00    +0.000 A 
ATOM      5  C   UNL     1      -0.679  10.960  22.318  0.00  0.00    +0.000 A 
ATOM      6  C   UNL     1      -0.471   9.779  23.029  0.00  0.00    +0.000 A 
ATOM      7  C   UNL     1       0.230   8.726  22.444  0.00  0.00    +0.000 A 
ATOM      8  C   UNL     1       0.730   8.852  21.139  0.00  0.00    +0.000 A 
ATOM      9  C   UNL     1       1.468   7.698  20.547  0.00  0.00    +0.000 C 
ATOM     10  O   UNL     1       1.568   6.654  21.180  0.00  0.00    +0.000 OA
ATOM     11  C   UNL     1       2.028   7.902  19.230  0.00  0.00    +0.000 A 
ATOM     12  C   UNL     1       2.833   7.095  18.370  0.00  0.00    +0.000 A 
ATOM     13  C   UNL     1       2.996   7.839  17.216  0.00  0.00    +0.000 A 
ATOM     14  O   UNL     1       2.382   9.052  17.326  0.00  0.00    +0.000 OA
ATOM     15  C   UNL     1       1.805   9.081  18.553  0.00  0.00    +0.000 A 
ENDROOT
BRANCH  12  16
ATOM     16  C   UNL     1       3.397   5.773  18.588  0.00  0.00    +0.000 A 
ATOM     17  C   UNL     1       4.761   5.646  18.905  0.00  0.00    +0.000 A 
ATOM     18  C   UNL     1       5.320   4.408  19.265  0.00  0.00    +0.000 A 
ATOM     19  C   UNL     1       4.530   3.262  19.283  0.00  0.00    +0.000 A 
ATOM     20  C   UNL     1       3.206   3.392  18.920  0.00  0.00    +0.000 A 
ATOM     21  C   UNL     1       2.648   4.607  18.574  0.00  0.00    +0.000 A 
ATOM     22  O   UNL     1       1.322   4.481  18.277  0.00  0.00    +0.000 OA
ATOM     23  C   UNL     1       1.104   3.082  18.543  0.00  0.00    +0.000 C 
ATOM     24  O   UNL     1       2.306   2.370  18.889  0.00  0.00    +0.000 OA
ENDBRANCH  12  16
TORSDOF 1
ENDMDL
MODEL 3
REMARK VINA RESULT:      -7.9      1.794      3.273
REMARK  Name = 
REMARK  1 active torsions:
REMARK  status: ('A' for Active; 'I' for Inactive)
REMARK    1  A    between atoms: C_12  and  C_13
REMARK                            x       y       z     vdW  Elec       q    Type
REMARK                         _______ _______ _______ _____ _____    ______ ____
ROOT
ATOM      1  O   UNL     1       0.302   7.643  21.784  0.00  0.00    +0.000 OA
ATOM      2  C   UNL     1       1.025   7.683  20.795  0.00  0.00    +0.000 C 
ATOM      3  C   UNL     1       1.032   8.895  19.917  0.00  0.00    +0.000 A 
ATOM      4  C   UNL     1       0.194   9.976  20.225  0.00  0.00    +0.000 A 
ATOM      5  C   UNL     1       0.180  11.108  19.406  0.00  0.00    +0.000 A 
ATOM      6  C   UNL     1       0.996  11.169  18.277  0.00  0.00    +0.000 A 
ATOM      7  C   UNL     1       1.836  10.102  17.964  0.00  0.00    +0.000 A 
ATOM      8  C   UNL     1       1.862   8.963  18.782  0.00  0.00    +0.000 A 
ATOM      9  C   UNL     1       2.781   7.846  18.415  0.00  0.00    +0.000 C 
ATOM     10  O   UNL     1       3.532   7.970  17.454  0.00  0.00    +0.000 OA
ATOM     11  C   UNL     1       2.719   6.664  19.245  0.00  0.00    +0.000 A 
ATOM     12  C   UNL     1       3.368   5.394  19.193  0.00  0.00    +0.000 A 
ATOM     13  C   UNL     1       2.921   4.708  20.308  0.00  0.00    +0.000 A 
ATOM     14  O   UNL     1       2.021   5.454  21.011  0.00  0.00    +0.000 OA
ATOM     15  C   UNL     1       1.902   6.634  20.354  0.00  0.00    +0.000 A 
ENDROOT
BRANCH  12  16
ATOM     16  C   UNL     1       4.302   4.861  18.215  0.00  0.00    +0.000 A 
ATOM     17  C   UNL     1       3.811   4.234  17.057  0.00  0.00    +0.000 A 
ATOM     18  C   UNL     1       4.669   3.834  16.018  0.00  0.00    +0.000 A 
ATOM     19  C   UNL     1       6.043   4.022  16.132  0.00  0.00    +0.000 A 
ATOM     20  C   UNL     1       6.516   4.592  17.296  0.00  0.00    +0.000 A 
ATOM     21  C   UNL     1       5.679   4.996  18.317  0.00  0.00    +0.000 A 
ATOM     22  O   UNL     1       6.380   5.547  19.350  0.00  0.00    +0.000 OA
ATOM     23  C   UNL     1       7.724   5.507  18.832  0.00  0.00    +0.000 C 
ATOM     24  O   UNL     1       7.828   4.844  17.559  0.00  0.00    +0.000 OA
ENDBRANCH  12  16
TORSDOF 1
ENDMDL
MODEL 4
REMARK VINA RESULT:      -7.9      4.115      7.959
REMARK  Name = 
REMARK  1 active torsions:
REMARK  status: ('A' for Active; 'I' for Inactive)
REMARK    1  A    between atoms: C_12  and  C_13
REMARK                            x       y       z     vdW  Elec       q    Type
REMARK                         _______ _______ _______ _____ _____    ______ ____
ROOT
ATOM      1  O   UNL     1       8.679   5.880  14.007  0.00  0.00    +0.000 OA
ATOM      2  C   UNL     1       7.613   5.432  14.414  0.00  0.00    +0.000 C 
ATOM      3  C   UNL     1       6.787   4.543  13.537  0.00  0.00    +0.000 A 
ATOM      4  C   UNL     1       7.233   4.242  12.244  0.00  0.00    +0.000 A 
ATOM      5  C   UNL     1       6.466   3.425  11.409  0.00  0.00    +0.000 A 
ATOM      6  C   UNL     1       5.251   2.908  11.856  0.00  0.00    +0.000 A 
ATOM      7  C   UNL     1       4.799   3.197  13.142  0.00  0.00    +0.000 A 
ATOM      8  C   UNL     1       5.565   4.012  13.990  0.00  0.00    +0.000 A 
ATOM      9  C   UNL     1       5.048   4.291  15.362  0.00  0.00    +0.000 C 
ATOM     10  O   UNL     1       4.010   3.761  15.739  0.00  0.00    +0.000 OA
ATOM     11  C   UNL     1       5.834   5.195  16.172  0.00  0.00    +0.000 A 
ATOM     12  C   UNL     1       5.657   5.751  17.475  0.00  0.00    +0.000 A 
ATOM     13  C   UNL     1       6.790   6.509  17.707  0.00  0.00    +0.000 A 
ATOM     14  O   UNL     1       7.624   6.484  16.628  0.00  0.00    +0.000 OA
ATOM     15  C   UNL     1       7.031   5.690  15.702  0.00  0.00    +0.000 A 
ENDROOT
BRANCH  12  16
ATOM     16  C   UNL     1       4.556   5.603  18.412  0.00  0.00    +0.000 A 
ATOM     17  C   UNL     1       3.597   6.626  18.521  0.00  0.00    +0.000 A 
ATOM     18  C   UNL     1       2.440   6.468  19.303  0.00  0.00    +0.000 A 
ATOM     19  C   UNL     1       2.234   5.294  20.020  0.00  0.00    +0.000 A 
ATOM     20  C   UNL     1       3.208   4.319  19.945  0.00  0.00    +0.000 A 
ATOM     21  C   UNL     1       4.342   4.464  19.172  0.00  0.00    +0.000 A 
ATOM     22  O   UNL     1       5.140   3.359  19.245  0.00  0.00    +0.000 OA
ATOM     23  C   UNL     1       4.349   2.494  20.083  0.00  0.00    +0.000 C 
ATOM     24  O   UNL     1       3.154   3.119  20.584  0.00  0.00    +0.000 OA
ENDBRANCH  12  16
TORSDOF 1
ENDMDL
MODEL 5
REMARK VINA RESULT:      -7.8      1.780      6.624
REMARK  Name = 
REMARK  1 active torsions:
REMARK  status: ('A' for Active; 'I' for Inactive)
REMARK    1  A    between atoms: C_12  and  C_13
REMARK                            x       y       z     vdW  Elec       q    Type
REMARK                         _______ _______ _______ _____ _____    ______ ____
ROOT
ATOM      1  O   UNL     1       4.493   5.414  17.317  0.00  0.00    +0.000 OA
ATOM      2  C   UNL     1       3.692   5.746  18.184  0.00  0.00    +0.000 C 
ATOM      3  C   UNL     1       3.313   4.784  19.266  0.00  0.00    +0.000 A 
ATOM      4  C   UNL     1       3.868   3.497  19.270  0.00  0.00    +0.000 A 
ATOM      5  C   UNL     1       3.512   2.584  20.266  0.00  0.00    +0.000 A 
ATOM      6  C   UNL     1       2.602   2.944  21.259  0.00  0.00    +0.000 A 
ATOM      7  C   UNL     1       2.048   4.223  21.266  0.00  0.00    +0.000 A 
ATOM      8  C   UNL     1       2.402   5.149  20.274  0.00  0.00    +0.000 A 
ATOM      9  C   UNL     1       1.790   6.510  20.323  0.00  0.00    +0.000 C 
ATOM     10  O   UNL     1       1.049   6.808  21.252  0.00  0.00    +0.000 OA
ATOM     11  C   UNL     1       2.128   7.405  19.239  0.00  0.00    +0.000 A 
ATOM     12  C   UNL     1       1.716   8.727  18.894  0.00  0.00    +0.000 A 
ATOM     13  C   UNL     1       2.441   9.054  17.762  0.00  0.00    +0.000 A 
ATOM     14  O   UNL     1       3.235   8.014  17.374  0.00  0.00    +0.000 OA
ATOM     15  C   UNL     1       3.031   7.019  18.273  0.00  0.00    +0.000 A 
ENDROOT
BRANCH  12  16
ATOM     16  C   UNL     1       0.751   9.603  19.537  0.00  0.00    +0.000 A 
ATOM     17  C   UNL     1       0.976  10.033  20.857  0.00  0.00    +0.000 A 
ATOM     18  C   UNL     1       0.150  10.990  21.469  0.00  0.00    +0.000 A 
ATOM     19  C   UNL     1      -0.942  11.514  20.784  0.00  0.00    +0.000 A 
ATOM     20  C   UNL     1      -1.182  11.045  19.509  0.00  0.00    +0.000 A 
ATOM     21  C   UNL     1      -0.370  10.111  18.898  0.00  0.00    +0.000 A 
ATOM     22  O   UNL     1      -0.800   9.825  17.635  0.00  0.00    +0.000 OA
ATOM     23  C   UNL     1      -1.916  10.728  17.505  0.00  0.00    +0.000 C 
ATOM     24  O   UNL     1      -2.205  11.457  18.711  0.00  0.00    +0.000 OA
ENDBRANCH  12  16
TORSDOF 1
ENDMDL
MODEL 6
REMARK VINA RESULT:      -7.8      1.598      6.706
REMARK  Name = 
REMARK  1 active torsions:
REMARK  status: ('A' for Active; 'I' for Inactive)
REMARK    1  A    between atoms: C_12  and  C_13
REMARK                            x       y       z     vdW  Elec       q    Type
REMARK                         _______ _______ _______ _____ _____    ______ ____
ROOT
ATOM      1  O   UNL     1       4.546   5.217  16.442  0.00  0.00    +0.000 OA
ATOM      2  C   UNL     1       3.789   5.309  17.403  0.00  0.00    +0.000 C 
ATOM      3  C   UNL     1       3.337   4.078  18.125  0.00  0.00    +0.000 A 
ATOM      4  C   UNL     1       3.771   2.821  17.684  0.00  0.00    +0.000 A 
ATOM      5  C   UNL     1       3.346   1.662  18.339  0.00  0.00    +0.000 A 
ATOM      6  C   UNL     1       2.485   1.749  19.433  0.00  0.00    +0.000 A 
ATOM      7  C   UNL     1       2.051   2.995  19.882  0.00  0.00    +0.000 A 
ATOM      8  C   UNL     1       2.476   4.164  19.234  0.00  0.00    +0.000 A 
ATOM      9  C   UNL     1       1.993   5.478  19.752  0.00  0.00    +0.000 C 
ATOM     10  O   UNL     1       1.294   5.513  20.758  0.00  0.00    +0.000 OA
ATOM     11  C   UNL     1       2.398   6.649  19.008  0.00  0.00    +0.000 A 
ATOM     12  C   UNL     1       2.105   8.041  19.133  0.00  0.00    +0.000 A 
ATOM     13  C   UNL     1       2.843   8.662  18.142  0.00  0.00    +0.000 A 
ATOM     14  O   UNL     1       3.532   7.747  17.401  0.00  0.00    +0.000 OA
ATOM     15  C   UNL     1       3.249   6.531  17.932  0.00  0.00    +0.000 A 
ENDROOT
BRANCH  12  16
ATOM     16  C   UNL     1       1.232   8.731  20.068  0.00  0.00    +0.000 A 
ATOM     17  C   UNL     1       1.411   8.545  21.450  0.00  0.00    +0.000 A 
ATOM     18  C   UNL     1       0.690   9.298  22.393  0.00  0.00    +0.000 A 
ATOM     19  C   UNL     1      -0.252  10.232  21.971  0.00  0.00    +0.000 A 
ATOM     20  C   UNL     1      -0.453  10.368  20.613  0.00  0.00    +0.000 A 
ATOM     21  C   UNL     1       0.257   9.638  19.681  0.00  0.00    +0.000 A 
ATOM     22  O   UNL     1      -0.106   9.966  18.407  0.00  0.00    +0.000 OA
ATOM     23  C   UNL     1      -1.060  11.020  18.647  0.00  0.00    +0.000 C 
ATOM     24  O   UNL     1      -1.334  11.236  20.043  0.00  0.00    +0.000 OA
ENDBRANCH  12  16
TORSDOF 1
ENDMDL
MODEL 7
REMARK VINA RESULT:      -7.7      2.055      3.642
REMARK  Name = 
REMARK  1 active torsions:
REMARK  status: ('A' for Active; 'I' for Inactive)
REMARK    1  A    between atoms: C_12  and  C_13
REMARK                            x       y       z     vdW  Elec       q    Type
REMARK                         _______ _______ _______ _____ _____    ______ ____
ROOT
ATOM      1  O   UNL     1       0.774   7.069  21.584  0.00  0.00    +0.000 OA
ATOM      2  C   UNL     1       1.403   7.284  20.554  0.00  0.00    +0.000 C 
ATOM      3  C   UNL     1       1.212   8.568  19.810  0.00  0.00    +0.000 A 
ATOM      4  C   UNL     1       0.295   9.514  20.290  0.00  0.00    +0.000 A 
ATOM      5  C   UNL     1       0.096  10.711  19.597  0.00  0.00    +0.000 A 
ATOM      6  C   UNL     1       0.802  10.972  18.424  0.00  0.00    +0.000 A 
ATOM      7  C   UNL     1       1.718  10.040  17.940  0.00  0.00    +0.000 A 
ATOM      8  C   UNL     1       1.930   8.837  18.630  0.00  0.00    +0.000 A 
ATOM      9  C   UNL     1       2.926   7.870  18.082  0.00  0.00    +0.000 C 
ATOM     10  O   UNL     1       3.576   8.168  17.087  0.00  0.00    +0.000 OA
ATOM     11  C   UNL     1       3.057   6.614  18.785  0.00  0.00    +0.000 A 
ATOM     12  C   UNL     1       3.826   5.434  18.553  0.00  0.00    +0.000 A 
ATOM     13  C   UNL     1       3.548   4.599  19.620  0.00  0.00    +0.000 A 
ATOM     14  O   UNL     1       2.639   5.169  20.462  0.00  0.00    +0.000 OA
ATOM     15  C   UNL     1       2.344   6.387  19.942  0.00  0.00    +0.000 A 
ENDROOT
BRANCH  12  16
ATOM     16  C   UNL     1       4.725   5.105  17.459  0.00  0.00    +0.000 A 
ATOM     17  C   UNL     1       4.366   4.098  16.546  0.00  0.00    +0.000 A 
ATOM     18  C   UNL     1       5.130   3.844  15.395  0.00  0.00    +0.000 A 
ATOM     19  C   UNL     1       6.290   4.572  15.148  0.00  0.00    +0.000 A 
ATOM     20  C   UNL     1       6.658   5.522  16.079  0.00  0.00    +0.000 A 
ATOM     21  C   UNL     1       5.908   5.783  17.208  0.00  0.00    +0.000 A 
ATOM     22  O   UNL     1       6.465   6.777  17.959  0.00  0.00    +0.000 OA
ATOM     23  C   UNL     1       7.593   7.149  17.143  0.00  0.00    +0.000 C 
ATOM     24  O   UNL     1       7.760   6.316  15.982  0.00  0.00    +0.000 OA
ENDBRANCH  12  16
TORSDOF 1
ENDMDL
MODEL 8
REMARK VINA RESULT:      -7.6      1.906      7.240
REMARK  Name = 
REMARK  1 active torsions:
REMARK  status: ('A' for Active; 'I' for Inactive)
REMARK    1  A    between atoms: C_12  and  C_13
REMARK                            x       y       z     vdW  Elec       q    Type
REMARK                         _______ _______ _______ _____ _____    ______ ____
ROOT
ATOM      1  O   UNL     1       2.697   5.004  20.721  0.00  0.00    +0.000 OA
ATOM      2  C   UNL     1       2.629   5.984  19.987  0.00  0.00    +0.000 C 
ATOM      3  C   UNL     1       3.418   6.028  18.716  0.00  0.00    +0.000 A 
ATOM      4  C   UNL     1       4.246   4.948  18.380  0.00  0.00    +0.000 A 
ATOM      5  C   UNL     1       4.999   4.982  17.203  0.00  0.00    +0.000 A 
ATOM      6  C   UNL     1       4.934   6.089  16.358  0.00  0.00    +0.000 A 
ATOM      7  C   UNL     1       4.110   7.166  16.680  0.00  0.00    +0.000 A 
ATOM      8  C   UNL     1       3.346   7.140  17.857  0.00  0.00    +0.000 A 
ATOM      9  C   UNL     1       2.472   8.311  18.161  0.00  0.00    +0.000 C 
ATOM     10  O   UNL     1       2.391   9.232  17.357  0.00  0.00    +0.000 OA
ATOM     11  C   UNL     1       1.761   8.272  19.419  0.00  0.00    +0.000 A 
ATOM     12  C   UNL     1       0.901   9.193  20.089  0.00  0.00    +0.000 A 
ATOM     13  C   UNL     1       0.497   8.545  21.243  0.00  0.00    +0.000 A 
ATOM     14  O   UNL     1       1.077   7.315  21.340  0.00  0.00    +0.000 OA
ATOM     15  C   UNL     1       1.846   7.163  20.233  0.00  0.00    +0.000 A 
ENDROOT
BRANCH  12  16
ATOM     16  C   UNL     1       0.493  10.535  19.710  0.00  0.00    +0.000 A 
ATOM     17  C   UNL     1       1.220  11.641  20.184  0.00  0.00    +0.000 A 
ATOM     18  C   UNL     1       0.955  12.944  19.731  0.00  0.00    +0.000 A 
ATOM     19  C   UNL     1      -0.070  13.174  18.818  0.00  0.00    +0.000 A 
ATOM     20  C   UNL     1      -0.809  12.086  18.400  0.00  0.00    +0.000 A 
ATOM     21  C   UNL     1      -0.548  10.802  18.834  0.00  0.00    +0.000 A 
ATOM     22  O   UNL     1      -1.399   9.900  18.264  0.00  0.00    +0.000 OA
ATOM     23  C   UNL     1      -2.163  10.748  17.384  0.00  0.00    +0.000 C 
ATOM     24  O   UNL     1      -1.839  12.144  17.512  0.00  0.00    +0.000 OA
ENDBRANCH  12  16
TORSDOF 1
ENDMDL
MODEL 9
REMARK VINA RESULT:      -7.4      1.818      6.271
REMARK  Name = 
REMARK  1 active torsions:
REMARK  status: ('A' for Active; 'I' for Inactive)
REMARK    1  A    between atoms: C_12  and  C_13
REMARK                            x       y       z     vdW  Elec       q    Type
REMARK                         _______ _______ _______ _____ _____    ______ ____
ROOT
ATOM      1  O   UNL     1       5.210   4.756  17.838  0.00  0.00    +0.000 OA
ATOM      2  C   UNL     1       4.251   5.150  18.493  0.00  0.00    +0.000 C 
ATOM      3  C   UNL     1       3.648   4.273  19.545  0.00  0.00    +0.000 A 
ATOM      4  C   UNL     1       4.177   2.994  19.765  0.00  0.00    +0.000 A 
ATOM      5  C   UNL     1       3.614   2.160  20.734  0.00  0.00    +0.000 A 
ATOM      6  C   UNL     1       2.523   2.591  21.487  0.00  0.00    +0.000 A 
ATOM      7  C   UNL     1       1.992   3.863  21.279  0.00  0.00    +0.000 A 
ATOM      8  C   UNL     1       2.552   4.711  20.312  0.00  0.00    +0.000 A 
ATOM      9  C   UNL     1       1.957   6.067  20.127  0.00  0.00    +0.000 C 
ATOM     10  O   UNL     1       1.043   6.433  20.857  0.00  0.00    +0.000 OA
ATOM     11  C   UNL     1       2.520   6.876  19.070  0.00  0.00    +0.000 A 
ATOM     12  C   UNL     1       2.201   8.165  18.545  0.00  0.00    +0.000 A 
ATOM     13  C   UNL     1       3.147   8.406  17.565  0.00  0.00    +0.000 A 
ATOM     14  O   UNL     1       3.993   7.344  17.432  0.00  0.00    +0.000 OA
ATOM     15  C   UNL     1       3.598   6.421  18.344  0.00  0.00    +0.000 A 
ENDROOT
BRANCH  12  16
ATOM     16  C   UNL     1       1.133   9.082  18.905  0.00  0.00    +0.000 A 
ATOM     17  C   UNL     1       0.251   9.544  17.912  0.00  0.00    +0.000 A 
ATOM     18  C   UNL     1      -0.880  10.313  18.233  0.00  0.00    +0.000 A 
ATOM     19  C   UNL     1      -1.134  10.667  19.555  0.00  0.00    +0.000 A 
ATOM     20  C   UNL     1      -0.233  10.251  20.513  0.00  0.00    +0.000 A 
ATOM     21  C   UNL     1       0.875   9.487  20.206  0.00  0.00    +0.000 A 
ATOM     22  O   UNL     1       1.599   9.185  21.323  0.00  0.00    +0.000 OA
ATOM     23  C   UNL     1       0.787   9.779  22.355  0.00  0.00    +0.000 C 
ATOM     24  O   UNL     1      -0.341  10.512  21.845  0.00  0.00    +0.000 OA
ENDBRANCH  12  16
TORSDOF 1
ENDMDL
