MODEL 1
REMARK VINA RESULT:      -7.7      0.000      0.000
REMARK  Name = 
REMARK  4 active torsions:
REMARK  status: ('A' for Active; 'I' for Inactive)
REMARK    1  A    between atoms: C_1  and  C_2
REMARK    2  A    between atoms: N_4  and  C_5
REMARK    3  A    between atoms: N_14  and  C_15
REMARK    4  A    between atoms: C_15  and  C_16
REMARK                            x       y       z     vdW  Elec       q    Type
REMARK                         _______ _______ _______ _____ _____    ______ ____
ROOT
ATOM      1  C   UNL     1      10.126  14.291  18.861  0.00  0.00    +0.000 A 
ATOM      2  C   UNL     1      10.900  13.809  19.915  0.00  0.00    +0.000 A 
ATOM      3  C   UNL     1      10.808  12.473  20.332  0.00  0.00    +0.000 A 
ATOM      4  C   UNL     1       9.937  11.589  19.672  0.00  0.00    +0.000 A 
ATOM      5  N   UNL     1       9.773  10.237  19.944  0.00  0.00    +0.000 NA
ATOM      6  C   UNL     1       8.943   9.712  19.075  0.00  0.00    +0.000 A 
ATOM      7  N   UNL     1       8.646   8.368  19.084  0.00  0.00    +0.000 N 
ATOM      8  C   UNL     1       8.069   7.673  18.050  0.00  0.00    +0.000 C 
ATOM      9  O   UNL     1       7.765   8.125  16.951  0.00  0.00    +0.000 OA
ATOM     10  N   UNL     1       7.825   6.355  18.372  0.00  0.00    +0.000 N 
ATOM     11  S   UNL     1       8.210  10.804  17.990  0.00  0.00    +0.000 S 
ATOM     12  C   UNL     1       9.153  12.090  18.634  0.00  0.00    +0.000 A 
ATOM     13  C   UNL     1       9.204  13.440  18.233  0.00  0.00    +0.000 A 
ATOM     14  H   UNL     1       9.086   7.861  19.835  0.00  0.00    +0.000 HD
ATOM     15  H   UNL     1       8.353   5.932  19.120  0.00  0.00    +0.000 HD
ENDROOT
BRANCH   1  19
ATOM     16  C   UNL     1      11.003  17.564  17.194  0.00  0.00    +0.000 C 
ATOM     17  C   UNL     1      11.179  16.097  17.494  0.00  0.00    +0.000 C 
ATOM     18  O   UNL     1      12.087  15.457  16.974  0.00  0.00    +0.000 OA
ATOM     19  N   UNL     1      10.223  15.614  18.374  0.00  0.00    +0.000 N 
ATOM     20  H   UNL     1       9.452  16.234  18.593  0.00  0.00    +0.000 HD
ENDBRANCH   1  19
BRANCH  10  21
ATOM     21  C   UNL     1       7.299   5.466  17.355  0.00  0.00    +0.000 C 
BRANCH  21  22
ATOM     22  C   UNL     1       5.873   5.057  17.627  0.00  0.00    +0.000 A 
ATOM     23  C   UNL     1       5.208   5.532  18.769  0.00  0.00    +0.000 A 
ATOM     24  C   UNL     1       3.863   5.224  18.989  0.00  0.00    +0.000 A 
ATOM     25  C   UNL     1       3.173   4.443  18.066  0.00  0.00    +0.000 A 
ATOM     26 CL   UNL     1       1.513   4.074  18.330  0.00  0.00    +0.000 Cl
ATOM     27  C   UNL     1       3.816   3.968  16.925  0.00  0.00    +0.000 A 
ATOM     28  C   UNL     1       5.161   4.275  16.705  0.00  0.00    +0.000 A 
ENDBRANCH  21  22
ENDBRANCH  10  21
TORSDOF 3
ENDMDL
MODEL 2
REMARK VINA RESULT:      -7.6      1.117      1.173
REMARK  Name = 
REMARK  4 active torsions:
REMARK  status: ('A' for Active; 'I' for Inactive)
REMARK    1  A    between atoms: C_1  and  C_2
REMARK    2  A    between atoms: N_4  and  C_5
REMARK    3  A    between atoms: N_14  and  C_15
REMARK    4  A    between atoms: C_15  and  C_16
REMARK                            x       y       z     vdW  Elec       q    Type
REMARK                         _______ _______ _______ _____ _____    ______ ____
ROOT
ATOM      1  C   UNL     1      10.457  14.389  18.331  0.00  0.00    +0.000 A 
ATOM      2  C   UNL     1      11.242  13.960  19.400  0.00  0.00    +0.000 A 
ATOM      3  C   UNL     1      11.108  12.668  19.928  0.00  0.00    +0.000 A 
ATOM      4  C   UNL     1      10.180  11.772  19.367  0.00  0.00    +0.000 A 
ATOM      5  N   UNL     1       9.968  10.455  19.754  0.00  0.00    +0.000 NA
ATOM      6  C   UNL     1       9.090   9.899  18.953  0.00  0.00    +0.000 A 
ATOM      7  N   UNL     1       8.738   8.574  19.081  0.00  0.00    +0.000 N 
ATOM      8  C   UNL     1       8.100   7.825  18.123  0.00  0.00    +0.000 C 
ATOM      9  O   UNL     1       7.782   8.199  17.000  0.00  0.00    +0.000 OA
ATOM     10  N   UNL     1       7.811   6.549  18.560  0.00  0.00    +0.000 N 
ATOM     11  S   UNL     1       8.371  10.931  17.803  0.00  0.00    +0.000 S 
ATOM     12  C   UNL     1       9.386  12.222  18.312  0.00  0.00    +0.000 A 
ATOM     13  C   UNL     1       9.482  13.532  17.801  0.00  0.00    +0.000 A 
ATOM     14  H   UNL     1       9.179   8.112  19.859  0.00  0.00    +0.000 HD
ATOM     15  H   UNL     1       8.344   6.165  19.325  0.00  0.00    +0.000 HD
ENDROOT
BRANCH   1  19
ATOM     16  C   UNL     1      10.418  18.032  17.336  0.00  0.00    +0.000 C 
ATOM     17  C   UNL     1      10.108  16.860  18.233  0.00  0.00    +0.000 C 
ATOM     18  O   UNL     1       9.493  17.022  19.282  0.00  0.00    +0.000 OA
ATOM     19  N   UNL     1      10.595  15.663  17.735  0.00  0.00    +0.000 N 
ATOM     20  H   UNL     1      11.212  15.721  16.933  0.00  0.00    +0.000 HD
ENDBRANCH   1  19
BRANCH  10  21
ATOM     21  C   UNL     1       7.217   5.605  17.634  0.00  0.00    +0.000 C 
BRANCH  21  22
ATOM     22  C   UNL     1       5.784   5.285  17.976  0.00  0.00    +0.000 A 
ATOM     23  C   UNL     1       5.484   4.206  18.822  0.00  0.00    +0.000 A 
ATOM     24  C   UNL     1       4.167   3.948  19.209  0.00  0.00    +0.000 A 
ATOM     25  C   UNL     1       3.140   4.772  18.755  0.00  0.00    +0.000 A 
ATOM     26 CL   UNL     1       1.519   4.464  19.241  0.00  0.00    +0.000 Cl
ATOM     27  C   UNL     1       3.420   5.850  17.918  0.00  0.00    +0.000 A 
ATOM     28  C   UNL     1       4.738   6.107  17.530  0.00  0.00    +0.000 A 
ENDBRANCH  21  22
ENDBRANCH  10  21
TORSDOF 3
ENDMDL
MODEL 3
REMARK VINA RESULT:      -7.6      1.034      1.120
REMARK  Name = 
REMARK  4 active torsions:
REMARK  status: ('A' for Active; 'I' for Inactive)
REMARK    1  A    between atoms: C_1  and  C_2
REMARK    2  A    between atoms: N_4  and  C_5
REMARK    3  A    between atoms: N_14  and  C_15
REMARK    4  A    between atoms: C_15  and  C_16
REMARK                            x       y       z     vdW  Elec       q    Type
REMARK                         _______ _______ _______ _____ _____    ______ ____
ROOT
ATOM      1  C   UNL     1      10.486  14.148  18.328  0.00  0.00    +0.000 A 
ATOM      2  C   UNL     1      11.228  13.733  19.432  0.00  0.00    +0.000 A 
ATOM      3  C   UNL     1      11.062  12.453  19.980  0.00  0.00    +0.000 A 
ATOM      4  C   UNL     1      10.144  11.556  19.405  0.00  0.00    +0.000 A 
ATOM      5  N   UNL     1       9.905  10.250  19.810  0.00  0.00    +0.000 NA
ATOM      6  C   UNL     1       9.050   9.686  18.990  0.00  0.00    +0.000 A 
ATOM      7  N   UNL     1       8.679   8.368  19.132  0.00  0.00    +0.000 N 
ATOM      8  C   UNL     1       8.068   7.605  18.168  0.00  0.00    +0.000 C 
ATOM      9  O   UNL     1       7.793   7.960  17.026  0.00  0.00    +0.000 OA
ATOM     10  N   UNL     1       7.750   6.341  18.619  0.00  0.00    +0.000 N 
ATOM     11  S   UNL     1       8.383  10.701  17.795  0.00  0.00    +0.000 S 
ATOM     12  C   UNL     1       9.393  11.992  18.314  0.00  0.00    +0.000 A 
ATOM     13  C   UNL     1       9.521  13.290  17.781  0.00  0.00    +0.000 A 
ATOM     14  H   UNL     1       9.088   7.916  19.934  0.00  0.00    +0.000 HD
ATOM     15  H   UNL     1       8.251   5.968  19.410  0.00  0.00    +0.000 HD
ENDROOT
BRANCH   1  19
ATOM     16  C   UNL     1      10.522  17.770  17.260  0.00  0.00    +0.000 C 
ATOM     17  C   UNL     1      10.168  16.621  18.168  0.00  0.00    +0.000 C 
ATOM     18  O   UNL     1       9.519  16.810  19.192  0.00  0.00    +0.000 OA
ATOM     19  N   UNL     1      10.658  15.408  17.711  0.00  0.00    +0.000 N 
ATOM     20  H   UNL     1      11.304  15.444  16.930  0.00  0.00    +0.000 HD
ENDBRANCH   1  19
BRANCH  10  21
ATOM     21  C   UNL     1       7.179   5.385  17.692  0.00  0.00    +0.000 C 
BRANCH  21  22
ATOM     22  C   UNL     1       5.728   5.093  17.983  0.00  0.00    +0.000 A 
ATOM     23  C   UNL     1       4.721   5.888  17.414  0.00  0.00    +0.000 A 
ATOM     24  C   UNL     1       3.373   5.580  17.613  0.00  0.00    +0.000 A 
ATOM     25  C   UNL     1       3.023   4.471  18.379  0.00  0.00    +0.000 A 
ATOM     26 CL   UNL     1       1.364   4.083  18.614  0.00  0.00    +0.000 Cl
ATOM     27  C   UNL     1       4.011   3.668  18.947  0.00  0.00    +0.000 A 
ATOM     28  C   UNL     1       5.359   3.977  18.749  0.00  0.00    +0.000 A 
ENDBRANCH  21  22
ENDBRANCH  10  21
TORSDOF 3
ENDMDL
MODEL 4
REMARK VINA RESULT:      -7.6      0.948      1.072
REMARK  Name = 
REMARK  4 active torsions:
REMARK  status: ('A' for Active; 'I' for Inactive)
REMARK    1  A    between atoms: C_1  and  C_2
REMARK    2  A    between atoms: N_4  and  C_5
REMARK    3  A    between atoms: N_14  and  C_15
REMARK    4  A    between atoms: C_15  and  C_16
REMARK                            x       y       z     vdW  Elec       q    Type
REMARK                         _______ _______ _______ _____ _____    ______ ____
ROOT
ATOM      1  C   UNL     1      10.384  14.879  18.934  0.00  0.00    +0.000 A 
ATOM      2  C   UNL     1      11.354  14.339  19.778  0.00  0.00    +0.000 A 
ATOM      3  C   UNL     1      11.344  12.979  20.120  0.00  0.00    +0.000 A 
ATOM      4  C   UNL     1      10.353  12.130  19.596  0.00  0.00    +0.000 A 
ATOM      5  N   UNL     1      10.243  10.762  19.810  0.00  0.00    +0.000 NA
ATOM      6  C   UNL     1       9.252  10.285  19.095  0.00  0.00    +0.000 A 
ATOM      7  N   UNL     1       8.958   8.940  19.079  0.00  0.00    +0.000 N 
ATOM      8  C   UNL     1       8.181   8.306  18.142  0.00  0.00    +0.000 C 
ATOM      9  O   UNL     1       7.663   8.822  17.158  0.00  0.00    +0.000 OA
ATOM     10  N   UNL     1       8.003   6.968  18.423  0.00  0.00    +0.000 N 
ATOM     11  S   UNL     1       8.319  11.436  18.252  0.00  0.00    +0.000 S 
ATOM     12  C   UNL     1       9.377  12.688  18.771  0.00  0.00    +0.000 A 
ATOM     13  C   UNL     1       9.352  14.060  18.454  0.00  0.00    +0.000 A 
ATOM     14  H   UNL     1       9.539   8.392  19.693  0.00  0.00    +0.000 HD
ATOM     15  H   UNL     1       8.669   6.504  19.021  0.00  0.00    +0.000 HD
ENDROOT
BRANCH   1  19
ATOM     16  C   UNL     1      10.677  18.211  17.183  0.00  0.00    +0.000 C 
ATOM     17  C   UNL     1      10.787  16.712  17.286  0.00  0.00    +0.000 C 
ATOM     18  O   UNL     1      11.188  16.048  16.336  0.00  0.00    +0.000 OA
ATOM     19  N   UNL     1      10.386  16.231  18.522  0.00  0.00    +0.000 N 
ATOM     20  H   UNL     1       9.938  16.893  19.145  0.00  0.00    +0.000 HD
ENDBRANCH   1  19
BRANCH  10  21
ATOM     21  C   UNL     1       7.278   6.139  17.480  0.00  0.00    +0.000 C 
BRANCH  21  22
ATOM     22  C   UNL     1       5.894   5.787  17.964  0.00  0.00    +0.000 A 
ATOM     23  C   UNL     1       4.770   6.420  17.409  0.00  0.00    +0.000 A 
ATOM     24  C   UNL     1       3.481   6.045  17.794  0.00  0.00    +0.000 A 
ATOM     25  C   UNL     1       3.306   5.032  18.733  0.00  0.00    +0.000 A 
ATOM     26 CL   UNL     1       1.718   4.562  19.198  0.00  0.00    +0.000 Cl
ATOM     27  C   UNL     1       4.410   4.391  19.290  0.00  0.00    +0.000 A 
ATOM     28  C   UNL     1       5.701   4.766  18.907  0.00  0.00    +0.000 A 
ENDBRANCH  21  22
ENDBRANCH  10  21
TORSDOF 3
ENDMDL
MODEL 5
REMARK VINA RESULT:      -7.5      7.517      9.981
REMARK  Name = 
REMARK  4 active torsions:
REMARK  status: ('A' for Active; 'I' for Inactive)
REMARK    1  A    between atoms: C_1  and  C_2
REMARK    2  A    between atoms: N_4  and  C_5
REMARK    3  A    between atoms: N_14  and  C_15
REMARK    4  A    between atoms: C_15  and  C_16
REMARK                            x       y       z     vdW  Elec       q    Type
REMARK                         _______ _______ _______ _____ _____    ______ ____
ROOT
ATOM      1  C   UNL     1       5.629   4.244  15.307  0.00  0.00    +0.000 A 
ATOM      2  C   UNL     1       4.995   3.330  16.147  0.00  0.00    +0.000 A 
ATOM      3  C   UNL     1       4.142   3.758  17.175  0.00  0.00    +0.000 A 
ATOM      4  C   UNL     1       3.900   5.131  17.361  0.00  0.00    +0.000 A 
ATOM      5  N   UNL     1       3.051   5.697  18.304  0.00  0.00    +0.000 NA
ATOM      6  C   UNL     1       3.008   6.996  18.130  0.00  0.00    +0.000 A 
ATOM      7  N   UNL     1       2.195   7.798  18.899  0.00  0.00    +0.000 N 
ATOM      8  C   UNL     1       1.831   9.087  18.595  0.00  0.00    +0.000 C 
ATOM      9  O   UNL     1       2.135   9.708  17.583  0.00  0.00    +0.000 OA
ATOM     10  N   UNL     1       1.069   9.666  19.587  0.00  0.00    +0.000 N 
ATOM     11  S   UNL     1       4.064   7.626  16.950  0.00  0.00    +0.000 S 
ATOM     12  C   UNL     1       4.558   6.034  16.528  0.00  0.00    +0.000 A 
ATOM     13  C   UNL     1       5.449   5.619  15.519  0.00  0.00    +0.000 A 
ATOM     14  H   UNL     1       1.693   7.298  19.614  0.00  0.00    +0.000 HD
ATOM     15  H   UNL     1       0.572   9.069  20.230  0.00  0.00    +0.000 HD
ENDROOT
BRANCH   1  19
ATOM     16  C   UNL     1       7.177   3.183  12.030  0.00  0.00    +0.000 C 
ATOM     17  C   UNL     1       6.039   3.587  12.932  0.00  0.00    +0.000 C 
ATOM     18  O   UNL     1       4.894   3.659  12.499  0.00  0.00    +0.000 OA
ATOM     19  N   UNL     1       6.454   3.856  14.226  0.00  0.00    +0.000 N 
ATOM     20  H   UNL     1       7.454   3.898  14.385  0.00  0.00    +0.000 HD
ENDBRANCH   1  19
BRANCH  10  21
ATOM     21  C   UNL     1       0.531  10.996  19.377  0.00  0.00    +0.000 C 
BRANCH  21  22
ATOM     22  C   UNL     1      -0.913  10.974  18.944  0.00  0.00    +0.000 A 
ATOM     23  C   UNL     1      -1.820  11.911  19.463  0.00  0.00    +0.000 A 
ATOM     24  C   UNL     1      -3.141  11.950  19.010  0.00  0.00    +0.000 A 
ATOM     25  C   UNL     1      -3.563  11.055  18.031  0.00  0.00    +0.000 A 
ATOM     26 CL   UNL     1      -5.185  11.110  17.463  0.00  0.00    +0.000 Cl
ATOM     27  C   UNL     1      -2.674  10.121  17.501  0.00  0.00    +0.000 A 
ATOM     28  C   UNL     1      -1.353  10.081  17.954  0.00  0.00    +0.000 A 
ENDBRANCH  21  22
ENDBRANCH  10  21
TORSDOF 3
ENDMDL
MODEL 6
REMARK VINA RESULT:      -7.5      8.842     12.122
REMARK  Name = 
REMARK  4 active torsions:
REMARK  status: ('A' for Active; 'I' for Inactive)
REMARK    1  A    between atoms: C_1  and  C_2
REMARK    2  A    between atoms: N_4  and  C_5
REMARK    3  A    between atoms: N_14  and  C_15
REMARK    4  A    between atoms: C_15  and  C_16
REMARK                            x       y       z     vdW  Elec       q    Type
REMARK                         _______ _______ _______ _____ _____    ______ ____
ROOT
ATOM      1  C   UNL     1       2.988   6.044  19.401  0.00  0.00    +0.000 A 
ATOM      2  C   UNL     1       3.131   6.809  18.245  0.00  0.00    +0.000 A 
ATOM      3  C   UNL     1       2.486   8.047  18.109  0.00  0.00    +0.000 A 
ATOM      4  C   UNL     1       1.693   8.545  19.157  0.00  0.00    +0.000 A 
ATOM      5  N   UNL     1       1.033   9.767  19.182  0.00  0.00    +0.000 NA
ATOM      6  C   UNL     1       0.464   9.934  20.351  0.00  0.00    +0.000 A 
ATOM      7  N   UNL     1      -0.214  11.091  20.664  0.00  0.00    +0.000 N 
ATOM      8  C   UNL     1      -0.553  11.498  21.930  0.00  0.00    +0.000 C 
ATOM      9  O   UNL     1      -0.276  10.923  22.977  0.00  0.00    +0.000 OA
ATOM     10  N   UNL     1      -1.291  12.663  21.930  0.00  0.00    +0.000 N 
ATOM     11  S   UNL     1       0.556   8.611  21.422  0.00  0.00    +0.000 S 
ATOM     12  C   UNL     1       1.542   7.759  20.299  0.00  0.00    +0.000 A 
ATOM     13  C   UNL     1       2.150   6.495  20.431  0.00  0.00    +0.000 A 
ATOM     14  H   UNL     1      -0.261  11.750  19.904  0.00  0.00    +0.000 HD
ATOM     15  H   UNL     1      -1.234  13.274  21.130  0.00  0.00    +0.000 HD
ENDROOT
BRANCH   1  19
ATOM     16  C   UNL     1       4.130   2.457  19.700  0.00  0.00    +0.000 C 
ATOM     17  C   UNL     1       3.151   3.552  19.362  0.00  0.00    +0.000 C 
ATOM     18  O   UNL     1       2.041   3.282  18.916  0.00  0.00    +0.000 OA
ATOM     19  N   UNL     1       3.661   4.817  19.603  0.00  0.00    +0.000 N 
ATOM     20  H   UNL     1       4.648   4.875  19.827  0.00  0.00    +0.000 HD
ENDBRANCH   1  19
BRANCH  10  21
ATOM     21  C   UNL     1      -1.652  13.270  23.196  0.00  0.00    +0.000 C 
BRANCH  21  22
ATOM     22  C   UNL     1      -3.140  13.261  23.438  0.00  0.00    +0.000 A 
ATOM     23  C   UNL     1      -3.999  13.958  22.574  0.00  0.00    +0.000 A 
ATOM     24  C   UNL     1      -5.385  13.892  22.742  0.00  0.00    +0.000 A 
ATOM     25  C   UNL     1      -5.920  13.124  23.773  0.00  0.00    +0.000 A 
ATOM     26 CL   UNL     1      -7.626  13.032  23.973  0.00  0.00    +0.000 Cl
ATOM     27  C   UNL     1      -5.082  12.423  24.637  0.00  0.00    +0.000 A 
ATOM     28  C   UNL     1      -3.696  12.490  24.470  0.00  0.00    +0.000 A 
ENDBRANCH  21  22
ENDBRANCH  10  21
TORSDOF 3
ENDMDL
MODEL 7
REMARK VINA RESULT:      -7.4      8.705     11.993
REMARK  Name = 
REMARK  4 active torsions:
REMARK  status: ('A' for Active; 'I' for Inactive)
REMARK    1  A    between atoms: C_1  and  C_2
REMARK    2  A    between atoms: N_4  and  C_5
REMARK    3  A    between atoms: N_14  and  C_15
REMARK    4  A    between atoms: C_15  and  C_16
REMARK                            x       y       z     vdW  Elec       q    Type
REMARK                         _______ _______ _______ _____ _____    ______ ____
ROOT
ATOM      1  C   UNL     1       3.178   5.953  19.217  0.00  0.00    +0.000 A 
ATOM      2  C   UNL     1       3.309   6.704  18.050  0.00  0.00    +0.000 A 
ATOM      3  C   UNL     1       2.664   7.940  17.905  0.00  0.00    +0.000 A 
ATOM      4  C   UNL     1       1.879   8.450  18.954  0.00  0.00    +0.000 A 
ATOM      5  N   UNL     1       1.219   9.673  18.970  0.00  0.00    +0.000 NA
ATOM      6  C   UNL     1       0.661   9.853  20.143  0.00  0.00    +0.000 A 
ATOM      7  N   UNL     1      -0.014  11.014  20.447  0.00  0.00    +0.000 N 
ATOM      8  C   UNL     1      -0.343  11.436  21.712  0.00  0.00    +0.000 C 
ATOM      9  O   UNL     1      -0.056  10.873  22.763  0.00  0.00    +0.000 OA
ATOM     10  N   UNL     1      -1.081  12.601  21.703  0.00  0.00    +0.000 N 
ATOM     11  S   UNL     1       0.763   8.543  21.228  0.00  0.00    +0.000 S 
ATOM     12  C   UNL     1       1.739   7.679  20.107  0.00  0.00    +0.000 A 
ATOM     13  C   UNL     1       2.348   6.416  20.248  0.00  0.00    +0.000 A 
ATOM     14  H   UNL     1      -0.068  11.664  19.680  0.00  0.00    +0.000 HD
ATOM     15  H   UNL     1      -1.031  13.202  20.896  0.00  0.00    +0.000 HD
ENDROOT
BRANCH   1  19
ATOM     16  C   UNL     1       4.295   2.371  19.647  0.00  0.00    +0.000 C 
ATOM     17  C   UNL     1       3.297   3.461  19.350  0.00  0.00    +0.000 C 
ATOM     18  O   UNL     1       2.136   3.185  19.068  0.00  0.00    +0.000 OA
ATOM     19  N   UNL     1       3.852   4.728  19.427  0.00  0.00    +0.000 N 
ATOM     20  H   UNL     1       4.860   4.779  19.521  0.00  0.00    +0.000 HD
ENDBRANCH   1  19
BRANCH  10  21
ATOM     21  C   UNL     1      -1.430  13.223  22.965  0.00  0.00    +0.000 C 
BRANCH  21  22
ATOM     22  C   UNL     1      -2.917  13.219  23.219  0.00  0.00    +0.000 A 
ATOM     23  C   UNL     1      -3.463  12.371  24.196  0.00  0.00    +0.000 A 
ATOM     24  C   UNL     1      -4.827  12.416  24.494  0.00  0.00    +0.000 A 
ATOM     25  C   UNL     1      -5.653  13.312  23.821  0.00  0.00    +0.000 A 
ATOM     26 CL   UNL     1      -7.331  13.377  24.197  0.00  0.00    +0.000 Cl
ATOM     27  C   UNL     1      -5.126  14.164  22.853  0.00  0.00    +0.000 A 
ATOM     28  C   UNL     1      -3.762  14.119  22.553  0.00  0.00    +0.000 A 
ENDBRANCH  21  22
ENDBRANCH  10  21
TORSDOF 3
ENDMDL
MODEL 8
REMARK VINA RESULT:      -7.4      7.916      9.496
REMARK  Name = 
REMARK  4 active torsions:
REMARK  status: ('A' for Active; 'I' for Inactive)
REMARK    1  A    between atoms: C_1  and  C_2
REMARK    2  A    between atoms: N_4  and  C_5
REMARK    3  A    between atoms: N_14  and  C_15
REMARK    4  A    between atoms: C_15  and  C_16
REMARK                            x       y       z     vdW  Elec       q    Type
REMARK                         _______ _______ _______ _____ _____    ______ ____
ROOT
ATOM      1  C   UNL     1      -1.996  12.995  22.282  0.00  0.00    +0.000 A 
ATOM      2  C   UNL     1      -2.416  13.288  20.985  0.00  0.00    +0.000 A 
ATOM      3  C   UNL     1      -1.841  12.656  19.875  0.00  0.00    +0.000 A 
ATOM      4  C   UNL     1      -0.833  11.693  20.059  0.00  0.00    +0.000 A 
ATOM      5  N   UNL     1      -0.205  10.957  19.062  0.00  0.00    +0.000 NA
ATOM      6  C   UNL     1       0.619  10.095  19.607  0.00  0.00    +0.000 A 
ATOM      7  N   UNL     1       1.332   9.198  18.843  0.00  0.00    +0.000 N 
ATOM      8  C   UNL     1       1.952   8.067  19.314  0.00  0.00    +0.000 C 
ATOM      9  O   UNL     1       1.935   7.657  20.469  0.00  0.00    +0.000 OA
ATOM     10  N   UNL     1       2.651   7.401  18.330  0.00  0.00    +0.000 N 
ATOM     11  S   UNL     1       0.799  10.202  21.299  0.00  0.00    +0.000 S 
ATOM     12  C   UNL     1      -0.407  11.425  21.359  0.00  0.00    +0.000 A 
ATOM     13  C   UNL     1      -0.948  12.086  22.480  0.00  0.00    +0.000 A 
ATOM     14  H   UNL     1       1.190   9.308  17.853  0.00  0.00    +0.000 HD
ATOM     15  H   UNL     1       2.399   7.555  17.366  0.00  0.00    +0.000 HD
ENDROOT
BRANCH   1  19
ATOM     16  C   UNL     1      -2.884  14.859  25.445  0.00  0.00    +0.000 C 
ATOM     17  C   UNL     1      -1.977  14.452  24.311  0.00  0.00    +0.000 C 
ATOM     18  O   UNL     1      -0.838  14.899  24.231  0.00  0.00    +0.000 OA
ATOM     19  N   UNL     1      -2.584  13.570  23.432  0.00  0.00    +0.000 N 
ATOM     20  H   UNL     1      -3.579  13.417  23.555  0.00  0.00    +0.000 HD
ENDBRANCH   1  19
BRANCH  10  21
ATOM     21  C   UNL     1       3.287   6.138  18.649  0.00  0.00    +0.000 C 
BRANCH  21  22
ATOM     22  C   UNL     1       4.132   5.614  17.515  0.00  0.00    +0.000 A 
ATOM     23  C   UNL     1       4.262   4.231  17.312  0.00  0.00    +0.000 A 
ATOM     24  C   UNL     1       4.977   3.736  16.219  0.00  0.00    +0.000 A 
ATOM     25  C   UNL     1       5.564   4.621  15.318  0.00  0.00    +0.000 A 
ATOM     26 CL   UNL     1       6.434   4.013  13.965  0.00  0.00    +0.000 Cl
ATOM     27  C   UNL     1       5.441   5.997  15.502  0.00  0.00    +0.000 A 
ATOM     28  C   UNL     1       4.726   6.493  16.596  0.00  0.00    +0.000 A 
ENDBRANCH  21  22
ENDBRANCH  10  21
TORSDOF 3
ENDMDL
MODEL 9
REMARK VINA RESULT:      -7.3      7.625     10.177
REMARK  Name = 
REMARK  4 active torsions:
REMARK  status: ('A' for Active; 'I' for Inactive)
REMARK    1  A    between atoms: C_1  and  C_2
REMARK    2  A    between atoms: N_4  and  C_5
REMARK    3  A    between atoms: N_14  and  C_15
REMARK    4  A    between atoms: C_15  and  C_16
REMARK                            x       y       z     vdW  Elec       q    Type
REMARK                         _______ _______ _______ _____ _____    ______ ____
ROOT
ATOM      1  C   UNL     1       5.651   4.224  15.297  0.00  0.00    +0.000 A 
ATOM      2  C   UNL     1       5.083   3.291  16.163  0.00  0.00    +0.000 A 
ATOM      3  C   UNL     1       4.262   3.692  17.227  0.00  0.00    +0.000 A 
ATOM      4  C   UNL     1       3.984   5.056  17.424  0.00  0.00    +0.000 A 
ATOM      5  N   UNL     1       3.158   5.595  18.402  0.00  0.00    +0.000 NA
ATOM      6  C   UNL     1       3.065   6.892  18.230  0.00  0.00    +0.000 A 
ATOM      7  N   UNL     1       2.261   7.668  19.034  0.00  0.00    +0.000 N 
ATOM      8  C   UNL     1       1.842   8.944  18.747  0.00  0.00    +0.000 C 
ATOM      9  O   UNL     1       2.082   9.574  17.722  0.00  0.00    +0.000 OA
ATOM     10  N   UNL     1       1.104   9.499  19.771  0.00  0.00    +0.000 N 
ATOM     11  S   UNL     1       4.048   7.555  17.006  0.00  0.00    +0.000 S 
ATOM     12  C   UNL     1       4.575   5.979  16.563  0.00  0.00    +0.000 A 
ATOM     13  C   UNL     1       5.436   5.592  15.516  0.00  0.00    +0.000 A 
ATOM     14  H   UNL     1       1.806   7.153  19.770  0.00  0.00    +0.000 HD
ATOM     15  H   UNL     1       0.656   8.887  20.434  0.00  0.00    +0.000 HD
ENDROOT
BRANCH   1  19
ATOM     16  C   UNL     1       7.091   3.216  11.954  0.00  0.00    +0.000 C 
ATOM     17  C   UNL     1       5.981   3.587  12.904  0.00  0.00    +0.000 C 
ATOM     18  O   UNL     1       4.817   3.631  12.518  0.00  0.00    +0.000 OA
ATOM     19  N   UNL     1       6.440   3.862  14.182  0.00  0.00    +0.000 N 
ATOM     20  H   UNL     1       7.445   3.929  14.299  0.00  0.00    +0.000 HD
ENDBRANCH   1  19
BRANCH  10  21
ATOM     21  C   UNL     1       0.515  10.811  19.584  0.00  0.00    +0.000 C 
BRANCH  21  22
ATOM     22  C   UNL     1      -0.485  11.153  20.659  0.00  0.00    +0.000 A 
ATOM     23  C   UNL     1      -0.332  10.637  21.956  0.00  0.00    +0.000 A 
ATOM     24  C   UNL     1      -1.207  11.010  22.979  0.00  0.00    +0.000 A 
ATOM     25  C   UNL     1      -2.239  11.907  22.713  0.00  0.00    +0.000 A 
ATOM     26 CL   UNL     1      -3.309  12.377  23.974  0.00  0.00    +0.000 Cl
ATOM     27  C   UNL     1      -2.402  12.432  21.433  0.00  0.00    +0.000 A 
ATOM     28  C   UNL     1      -1.528  12.058  20.409  0.00  0.00    +0.000 A 
ENDBRANCH  21  22
ENDBRANCH  10  21
TORSDOF 3
ENDMDL
