MODEL 1
REMARK VINA RESULT:      -7.0      0.000      0.000
REMARK  Name = 
REMARK  5 active torsions:
REMARK  status: ('A' for Active; 'I' for Inactive)
REMARK    1  A    between atoms: C_1  and  C_2
REMARK    2  A    between atoms: C_6  and  C_7
REMARK    3  A    between atoms: C_7  and  N_8
REMARK    4  A    between atoms: C_18  and  C_19
REMARK    5  A    between atoms: N_22  and  C_23
REMARK                            x       y       z     vdW  Elec       q    Type
REMARK                         _______ _______ _______ _____ _____    ______ ____
ROOT
ATOM      1  N   UNL     1       1.785   8.409  19.853  0.00  0.00    +0.000 NA
ATOM      2  C   UNL     1       2.238   7.275  20.652  0.00  0.00    +0.000 C 
ATOM      3  C   UNL     1       1.940   5.926  20.001  0.00  0.00    +0.000 C 
ATOM      4  C   UNL     1       2.449   5.782  18.536  0.00  0.00    +0.000 C 
ATOM      5  C   UNL     1       2.273   7.099  17.743  0.00  0.00    +0.000 C 
ATOM      6  C   UNL     1       2.442   8.388  18.548  0.00  0.00    +0.000 C 
ATOM      7  N   UNL     1       1.653   4.734  17.901  0.00  0.00    +0.000 N 
ATOM      8  C   UNL     1       2.175   3.474  18.083  0.00  0.00    +0.000 C 
ATOM      9  O   UNL     1       1.592   2.426  17.853  0.00  0.00    +0.000 OA
ATOM     10  C   UNL     1       3.557   3.611  18.673  0.00  0.00    +0.000 C 
ATOM     11  C   UNL     1       3.870   5.122  18.518  0.00  0.00    +0.000 C 
ATOM     12  H   UNL     1       0.669   4.824  17.682  0.00  0.00    +0.000 HD
ENDROOT
BRANCH  11  13
ATOM     13  C   UNL     1       4.717   5.335  17.287  0.00  0.00    +0.000 A 
ATOM     14  C   UNL     1       5.552   6.445  17.001  0.00  0.00    +0.000 A 
ATOM     15  N   UNL     1       6.241   6.295  15.867  0.00  0.00    +0.000 NA
ATOM     16  N   UNL     1       5.874   5.080  15.429  0.00  0.00    +0.000 N 
ATOM     17  C   UNL     1       6.499   4.504  14.263  0.00  0.00    +0.000 C 
ATOM     18  C   UNL     1       4.942   4.480  16.224  0.00  0.00    +0.000 A 
ENDBRANCH  11  13
BRANCH   1  19
ATOM     19  C   UNL     1       0.309   8.545  19.814  0.00  0.00    +0.000 C 
BRANCH  19  25
ATOM     20  C   UNL     1      -1.528  13.011  21.106  0.00  0.00    +0.000 C 
ATOM     21  C   UNL     1      -0.979  11.657  21.470  0.00  0.00    +0.000 A 
ATOM     22  C   UNL     1      -1.005  11.300  22.816  0.00  0.00    +0.000 A 
ATOM     23  C   UNL     1      -0.700   9.996  23.167  0.00  0.00    +0.000 A 
ATOM     24  C   UNL     1      -0.331   9.099  22.175  0.00  0.00    +0.000 A 
ATOM     25  C   UNL     1      -0.243   9.534  20.852  0.00  0.00    +0.000 A 
ATOM     26  N   UNL     1      -0.592  10.801  20.478  0.00  0.00    +0.000 NA
ENDBRANCH  19  25
ENDBRANCH   1  19
TORSDOF 3
ENDMDL
MODEL 2
REMARK VINA RESULT:      -6.8      1.641      2.044
REMARK  Name = 
REMARK  5 active torsions:
REMARK  status: ('A' for Active; 'I' for Inactive)
REMARK    1  A    between atoms: C_1  and  C_2
REMARK    2  A    between atoms: C_6  and  C_7
REMARK    3  A    between atoms: C_7  and  N_8
REMARK    4  A    between atoms: C_18  and  C_19
REMARK    5  A    between atoms: N_22  and  C_23
REMARK                            x       y       z     vdW  Elec       q    Type
REMARK                         _______ _______ _______ _____ _____    ______ ____
ROOT
ATOM      1  N   UNL     1       1.792   8.702  19.506  0.00  0.00    +0.000 NA
ATOM      2  C   UNL     1       2.172   7.618  20.406  0.00  0.00    +0.000 C 
ATOM      3  C   UNL     1       1.875   6.233  19.835  0.00  0.00    +0.000 C 
ATOM      4  C   UNL     1       2.458   5.975  18.413  0.00  0.00    +0.000 C 
ATOM      5  C   UNL     1       2.360   7.237  17.523  0.00  0.00    +0.000 C 
ATOM      6  C   UNL     1       2.518   8.576  18.245  0.00  0.00    +0.000 C 
ATOM      7  N   UNL     1       1.671   4.904  17.809  0.00  0.00    +0.000 N 
ATOM      8  C   UNL     1       2.150   3.648  18.107  0.00  0.00    +0.000 C 
ATOM      9  O   UNL     1       1.553   2.599  17.917  0.00  0.00    +0.000 OA
ATOM     10  C   UNL     1       3.500   3.795  18.762  0.00  0.00    +0.000 C 
ATOM     11  C   UNL     1       3.860   5.284  18.520  0.00  0.00    +0.000 C 
ATOM     12  H   UNL     1       0.703   4.999  17.529  0.00  0.00    +0.000 HD
ENDROOT
BRANCH  11  13
ATOM     13  C   UNL     1       4.779   5.392  17.327  0.00  0.00    +0.000 A 
ATOM     14  C   UNL     1       5.772   6.375  17.094  0.00  0.00    +0.000 A 
ATOM     15  N   UNL     1       6.479   6.145  15.985  0.00  0.00    +0.000 NA
ATOM     16  N   UNL     1       5.962   5.000  15.510  0.00  0.00    +0.000 N 
ATOM     17  C   UNL     1       6.546   4.357  14.358  0.00  0.00    +0.000 C 
ATOM     18  C   UNL     1       4.923   4.528  16.257  0.00  0.00    +0.000 A 
ENDBRANCH  11  13
BRANCH   1  19
ATOM     19  C   UNL     1       0.324   8.868  19.376  0.00  0.00    +0.000 C 
BRANCH  19  25
ATOM     20  C   UNL     1       1.023  13.806  19.035  0.00  0.00    +0.000 C 
ATOM     21  C   UNL     1       0.168  12.580  18.848  0.00  0.00    +0.000 A 
ATOM     22  C   UNL     1      -1.044  12.745  18.182  0.00  0.00    +0.000 A 
ATOM     23  C   UNL     1      -1.760  11.620  17.812  0.00  0.00    +0.000 A 
ATOM     24  C   UNL     1      -1.275  10.367  18.157  0.00  0.00    +0.000 A 
ATOM     25  C   UNL     1      -0.095  10.266  18.895  0.00  0.00    +0.000 A 
ATOM     26  N   UNL     1       0.654  11.360  19.222  0.00  0.00    +0.000 NA
ENDBRANCH  19  25
ENDBRANCH   1  19
TORSDOF 3
ENDMDL
MODEL 3
REMARK VINA RESULT:      -6.8      2.509      7.951
REMARK  Name = 
REMARK  5 active torsions:
REMARK  status: ('A' for Active; 'I' for Inactive)
REMARK    1  A    between atoms: C_1  and  C_2
REMARK    2  A    between atoms: C_6  and  C_7
REMARK    3  A    between atoms: C_7  and  N_8
REMARK    4  A    between atoms: C_18  and  C_19
REMARK    5  A    between atoms: N_22  and  C_23
REMARK                            x       y       z     vdW  Elec       q    Type
REMARK                         _______ _______ _______ _____ _____    ______ ____
ROOT
ATOM      1  N   UNL     1       2.650   6.001  18.911  0.00  0.00    +0.000 NA
ATOM      2  C   UNL     1       1.527   5.685  19.788  0.00  0.00    +0.000 C 
ATOM      3  C   UNL     1       1.412   6.633  20.979  0.00  0.00    +0.000 C 
ATOM      4  C   UNL     1       1.390   8.146  20.609  0.00  0.00    +0.000 C 
ATOM      5  C   UNL     1       2.354   8.458  19.440  0.00  0.00    +0.000 C 
ATOM      6  C   UNL     1       2.504   7.357  18.388  0.00  0.00    +0.000 C 
ATOM      7  N   UNL     1       1.819   8.889  21.791  0.00  0.00    +0.000 N 
ATOM      8  C   UNL     1       0.781   9.200  22.640  0.00  0.00    +0.000 C 
ATOM      9  O   UNL     1       0.901   9.609  23.785  0.00  0.00    +0.000 OA
ATOM     10  C   UNL     1      -0.518   8.889  21.939  0.00  0.00    +0.000 C 
ATOM     11  C   UNL     1      -0.088   8.648  20.469  0.00  0.00    +0.000 C 
ATOM     12  H   UNL     1       2.760   8.868  22.164  0.00  0.00    +0.000 HD
ENDROOT
BRANCH  11  13
ATOM     13  C   UNL     1      -0.320   9.904  19.665  0.00  0.00    +0.000 A 
ATOM     14  C   UNL     1      -1.079  10.034  18.474  0.00  0.00    +0.000 A 
ATOM     15  N   UNL     1      -1.166  11.298  18.051  0.00  0.00    +0.000 NA
ATOM     16  N   UNL     1      -0.485  11.992  18.978  0.00  0.00    +0.000 N 
ATOM     17  C   UNL     1      -0.443  13.433  18.927  0.00  0.00    +0.000 C 
ATOM     18  C   UNL     1       0.066  11.202  19.944  0.00  0.00    +0.000 A 
ENDBRANCH  11  13
BRANCH   1  19
ATOM     19  C   UNL     1       3.970   5.697  19.516  0.00  0.00    +0.000 C 
BRANCH  19  25
ATOM     20  C   UNL     1       5.428   4.350  14.929  0.00  0.00    +0.000 C 
ATOM     21  C   UNL     1       5.726   4.617  16.381  0.00  0.00    +0.000 A 
ATOM     22  C   UNL     1       7.062   4.580  16.774  0.00  0.00    +0.000 A 
ATOM     23  C   UNL     1       7.395   5.015  18.045  0.00  0.00    +0.000 A 
ATOM     24  C   UNL     1       6.386   5.428  18.904  0.00  0.00    +0.000 A 
ATOM     25  C   UNL     1       5.057   5.367  18.483  0.00  0.00    +0.000 A 
ATOM     26  N   UNL     1       4.712   4.993  17.215  0.00  0.00    +0.000 NA
ENDBRANCH  19  25
ENDBRANCH   1  19
TORSDOF 3
ENDMDL
MODEL 4
REMARK VINA RESULT:      -6.7      0.794      1.418
REMARK  Name = 
REMARK  5 active torsions:
REMARK  status: ('A' for Active; 'I' for Inactive)
REMARK    1  A    between atoms: C_1  and  C_2
REMARK    2  A    between atoms: C_6  and  C_7
REMARK    3  A    between atoms: C_7  and  N_8
REMARK    4  A    between atoms: C_18  and  C_19
REMARK    5  A    between atoms: N_22  and  C_23
REMARK                            x       y       z     vdW  Elec       q    Type
REMARK                         _______ _______ _______ _____ _____    ______ ____
ROOT
ATOM      1  N   UNL     1       1.679   8.652  19.710  0.00  0.00    +0.000 NA
ATOM      2  C   UNL     1       2.096   7.550  20.571  0.00  0.00    +0.000 C 
ATOM      3  C   UNL     1       1.854   6.178  19.946  0.00  0.00    +0.000 C 
ATOM      4  C   UNL     1       2.453   5.995  18.520  0.00  0.00    +0.000 C 
ATOM      5  C   UNL     1       2.311   7.284  17.677  0.00  0.00    +0.000 C 
ATOM      6  C   UNL     1       2.415   8.600  18.449  0.00  0.00    +0.000 C 
ATOM      7  N   UNL     1       1.710   4.918  17.872  0.00  0.00    +0.000 N 
ATOM      8  C   UNL     1       2.235   3.670  18.125  0.00  0.00    +0.000 C 
ATOM      9  O   UNL     1       1.679   2.608  17.893  0.00  0.00    +0.000 OA
ATOM     10  C   UNL     1       3.575   3.844  18.794  0.00  0.00    +0.000 C 
ATOM     11  C   UNL     1       3.880   5.354  18.610  0.00  0.00    +0.000 C 
ATOM     12  H   UNL     1       0.740   4.987  17.589  0.00  0.00    +0.000 HD
ENDROOT
BRANCH  11  13
ATOM     13  C   UNL     1       4.799   5.541  17.427  0.00  0.00    +0.000 A 
ATOM     14  C   UNL     1       5.743   6.579  17.229  0.00  0.00    +0.000 A 
ATOM     15  N   UNL     1       6.468   6.415  16.119  0.00  0.00    +0.000 NA
ATOM     16  N   UNL     1       6.012   5.259  15.609  0.00  0.00    +0.000 N 
ATOM     17  C   UNL     1       6.635   4.678  14.444  0.00  0.00    +0.000 C 
ATOM     18  C   UNL     1       4.994   4.715  16.336  0.00  0.00    +0.000 A 
ENDBRANCH  11  13
BRANCH   1  19
ATOM     19  C   UNL     1       0.206   8.767  19.576  0.00  0.00    +0.000 C 
BRANCH  19  25
ATOM     20  C   UNL     1      -1.249  12.170  22.937  0.00  0.00    +0.000 C 
ATOM     21  C   UNL     1      -1.132  11.689  21.515  0.00  0.00    +0.000 A 
ATOM     22  C   UNL     1      -1.520  12.572  20.510  0.00  0.00    +0.000 A 
ATOM     23  C   UNL     1      -1.241  12.249  19.193  0.00  0.00    +0.000 A 
ATOM     24  C   UNL     1      -0.630  11.036  18.911  0.00  0.00    +0.000 A 
ATOM     25  C   UNL     1      -0.336  10.154  19.952  0.00  0.00    +0.000 A 
ATOM     26  N   UNL     1      -0.554  10.478  21.262  0.00  0.00    +0.000 NA
ENDBRANCH  19  25
ENDBRANCH   1  19
TORSDOF 3
ENDMDL
MODEL 5
REMARK VINA RESULT:      -6.7      1.130      1.334
REMARK  Name = 
REMARK  5 active torsions:
REMARK  status: ('A' for Active; 'I' for Inactive)
REMARK    1  A    between atoms: C_1  and  C_2
REMARK    2  A    between atoms: C_6  and  C_7
REMARK    3  A    between atoms: C_7  and  N_8
REMARK    4  A    between atoms: C_18  and  C_19
REMARK    5  A    between atoms: N_22  and  C_23
REMARK                            x       y       z     vdW  Elec       q    Type
REMARK                         _______ _______ _______ _____ _____    ______ ____
ROOT
ATOM      1  N   UNL     1       1.907   8.003  20.064  0.00  0.00    +0.000 NA
ATOM      2  C   UNL     1       1.965   6.886  21.002  0.00  0.00    +0.000 C 
ATOM      3  C   UNL     1       1.463   5.574  20.403  0.00  0.00    +0.000 C 
ATOM      4  C   UNL     1       2.134   5.174  19.055  0.00  0.00    +0.000 C 
ATOM      5  C   UNL     1       2.384   6.409  18.157  0.00  0.00    +0.000 C 
ATOM      6  C   UNL     1       2.725   7.707  18.890  0.00  0.00    +0.000 C 
ATOM      7  N   UNL     1       1.220   4.264  18.369  0.00  0.00    +0.000 N 
ATOM      8  C   UNL     1       1.406   2.945  18.720  0.00  0.00    +0.000 C 
ATOM      9  O   UNL     1       0.637   2.031  18.467  0.00  0.00    +0.000 OA
ATOM     10  C   UNL     1       2.680   2.840  19.520  0.00  0.00    +0.000 C 
ATOM     11  C   UNL     1       3.351   4.223  19.317  0.00  0.00    +0.000 C 
ATOM     12  H   UNL     1       0.326   4.541  17.984  0.00  0.00    +0.000 HD
ENDROOT
BRANCH  11  13
ATOM     13  C   UNL     1       4.396   4.120  18.233  0.00  0.00    +0.000 A 
ATOM     14  C   UNL     1       4.234   3.582  16.932  0.00  0.00    +0.000 A 
ATOM     15  N   UNL     1       5.327   3.717  16.176  0.00  0.00    +0.000 NA
ATOM     16  N   UNL     1       6.191   4.363  16.976  0.00  0.00    +0.000 N 
ATOM     17  C   UNL     1       7.472   4.794  16.472  0.00  0.00    +0.000 C 
ATOM     18  C   UNL     1       5.694   4.597  18.225  0.00  0.00    +0.000 A 
ENDBRANCH  11  13
BRANCH   1  19
ATOM     19  C   UNL     1       0.524   8.451  19.772  0.00  0.00    +0.000 C 
BRANCH  19  25
ATOM     20  C   UNL     1      -1.025  13.016  21.095  0.00  0.00    +0.000 C 
ATOM     21  C   UNL     1      -0.627  11.606  21.446  0.00  0.00    +0.000 A 
ATOM     22  C   UNL     1      -0.800  11.206  22.769  0.00  0.00    +0.000 A 
ATOM     23  C   UNL     1      -0.640   9.869  23.088  0.00  0.00    +0.000 A 
ATOM     24  C   UNL     1      -0.265   8.978  22.093  0.00  0.00    +0.000 A 
ATOM     25  C   UNL     1      -0.028   9.449  20.801  0.00  0.00    +0.000 A 
ATOM     26  N   UNL     1      -0.233  10.754  20.454  0.00  0.00    +0.000 NA
ENDBRANCH  19  25
ENDBRANCH   1  19
TORSDOF 3
ENDMDL
MODEL 6
REMARK VINA RESULT:      -6.6      1.549      1.943
REMARK  Name = 
REMARK  5 active torsions:
REMARK  status: ('A' for Active; 'I' for Inactive)
REMARK    1  A    between atoms: C_1  and  C_2
REMARK    2  A    between atoms: C_6  and  C_7
REMARK    3  A    between atoms: C_7  and  N_8
REMARK    4  A    between atoms: C_18  and  C_19
REMARK    5  A    between atoms: N_22  and  C_23
REMARK                            x       y       z     vdW  Elec       q    Type
REMARK                         _______ _______ _______ _____ _____    ______ ____
ROOT
ATOM      1  N   UNL     1       1.709   8.546  19.873  0.00  0.00    +0.000 NA
ATOM      2  C   UNL     1       2.203   7.430  20.675  0.00  0.00    +0.000 C 
ATOM      3  C   UNL     1       1.893   6.068  20.059  0.00  0.00    +0.000 C 
ATOM      4  C   UNL     1       2.349   5.902  18.578  0.00  0.00    +0.000 C 
ATOM      5  C   UNL     1       2.132   7.204  17.770  0.00  0.00    +0.000 C 
ATOM      6  C   UNL     1       2.318   8.508  18.545  0.00  0.00    +0.000 C 
ATOM      7  N   UNL     1       1.539   4.837  17.992  0.00  0.00    +0.000 N 
ATOM      8  C   UNL     1       2.080   3.584  18.176  0.00  0.00    +0.000 C 
ATOM      9  O   UNL     1       1.498   2.528  17.985  0.00  0.00    +0.000 OA
ATOM     10  C   UNL     1       3.481   3.743  18.712  0.00  0.00    +0.000 C 
ATOM     11  C   UNL     1       3.774   5.254  18.519  0.00  0.00    +0.000 C 
ATOM     12  H   UNL     1       0.547   4.914  17.807  0.00  0.00    +0.000 HD
ENDROOT
BRANCH  11  13
ATOM     13  C   UNL     1       4.574   5.453  17.254  0.00  0.00    +0.000 A 
ATOM     14  C   UNL     1       5.244   6.631  16.838  0.00  0.00    +0.000 A 
ATOM     15  N   UNL     1       5.938   6.461  15.711  0.00  0.00    +0.000 NA
ATOM     16  N   UNL     1       5.739   5.167  15.406  0.00  0.00    +0.000 N 
ATOM     17  C   UNL     1       6.428   4.565  14.290  0.00  0.00    +0.000 C 
ATOM     18  C   UNL     1       4.906   4.531  16.279  0.00  0.00    +0.000 A 
ENDBRANCH  11  13
BRANCH   1  19
ATOM     19  C   UNL     1       0.232   8.669  19.887  0.00  0.00    +0.000 C 
BRANCH  19  25
ATOM     20  C   UNL     1      -2.774  11.447  17.017  0.00  0.00    +0.000 C 
ATOM     21  C   UNL     1      -1.590  11.308  17.938  0.00  0.00    +0.000 A 
ATOM     22  C   UNL     1      -0.958  12.481  18.344  0.00  0.00    +0.000 A 
ATOM     23  C   UNL     1      -0.001  12.412  19.342  0.00  0.00    +0.000 A 
ATOM     24  C   UNL     1       0.333  11.174  19.872  0.00  0.00    +0.000 A 
ATOM     25  C   UNL     1      -0.276  10.024  19.370  0.00  0.00    +0.000 A 
ATOM     26  N   UNL     1      -1.260  10.075  18.424  0.00  0.00    +0.000 NA
ENDBRANCH  19  25
ENDBRANCH   1  19
TORSDOF 3
ENDMDL
MODEL 7
REMARK VINA RESULT:      -6.5      1.996      2.438
REMARK  Name = 
REMARK  5 active torsions:
REMARK  status: ('A' for Active; 'I' for Inactive)
REMARK    1  A    between atoms: C_1  and  C_2
REMARK    2  A    between atoms: C_6  and  C_7
REMARK    3  A    between atoms: C_7  and  N_8
REMARK    4  A    between atoms: C_18  and  C_19
REMARK    5  A    between atoms: N_22  and  C_23
REMARK                            x       y       z     vdW  Elec       q    Type
REMARK                         _______ _______ _______ _____ _____    ______ ____
ROOT
ATOM      1  N   UNL     1       1.835   8.603  19.405  0.00  0.00    +0.000 NA
ATOM      2  C   UNL     1       2.102   7.773  20.575  0.00  0.00    +0.000 C 
ATOM      3  C   UNL     1       1.683   6.317  20.384  0.00  0.00    +0.000 C 
ATOM      4  C   UNL     1       2.256   5.635  19.105  0.00  0.00    +0.000 C 
ATOM      5  C   UNL     1       2.286   6.614  17.907  0.00  0.00    +0.000 C 
ATOM      6  C   UNL     1       2.561   8.079  18.250  0.00  0.00    +0.000 C 
ATOM      7  N   UNL     1       1.379   4.513  18.782  0.00  0.00    +0.000 N 
ATOM      8  C   UNL     1       1.735   3.347  19.421  0.00  0.00    +0.000 C 
ATOM      9  O   UNL     1       1.045   2.342  19.497  0.00  0.00    +0.000 OA
ATOM     10  C   UNL     1       3.086   3.548  20.062  0.00  0.00    +0.000 C 
ATOM     11  C   UNL     1       3.586   4.879  19.444  0.00  0.00    +0.000 C 
ATOM     12  H   UNL     1       0.428   4.613  18.451  0.00  0.00    +0.000 HD
ENDROOT
BRANCH  11  13
ATOM     13  C   UNL     1       4.524   4.582  18.300  0.00  0.00    +0.000 A 
ATOM     14  C   UNL     1       4.353   3.615  17.277  0.00  0.00    +0.000 A 
ATOM     15  N   UNL     1       5.321   3.656  16.358  0.00  0.00    +0.000 NA
ATOM     16  N   UNL     1       6.108   4.665  16.769  0.00  0.00    +0.000 N 
ATOM     17  C   UNL     1       7.223   5.096  15.962  0.00  0.00    +0.000 C 
ATOM     18  C   UNL     1       5.693   5.228  17.940  0.00  0.00    +0.000 A 
ENDBRANCH  11  13
BRANCH   1  19
ATOM     19  C   UNL     1       0.391   8.855  19.182  0.00  0.00    +0.000 C 
BRANCH  19  25
ATOM     20  C   UNL     1       1.622  13.685  18.812  0.00  0.00    +0.000 C 
ATOM     21  C   UNL     1       0.605  12.576  18.747  0.00  0.00    +0.000 A 
ATOM     22  C   UNL     1      -0.669  12.906  18.292  0.00  0.00    +0.000 A 
ATOM     23  C   UNL     1      -1.567  11.887  18.026  0.00  0.00    +0.000 A 
ATOM     24  C   UNL     1      -1.189  10.574  18.266  0.00  0.00    +0.000 A 
ATOM     25  C   UNL     1       0.073  10.308  18.799  0.00  0.00    +0.000 A 
ATOM     26  N   UNL     1       0.993  11.294  19.017  0.00  0.00    +0.000 NA
ENDBRANCH  19  25
ENDBRANCH   1  19
TORSDOF 3
ENDMDL
MODEL 8
REMARK VINA RESULT:      -6.5      4.251      8.944
REMARK  Name = 
REMARK  5 active torsions:
REMARK  status: ('A' for Active; 'I' for Inactive)
REMARK    1  A    between atoms: C_1  and  C_2
REMARK    2  A    between atoms: C_6  and  C_7
REMARK    3  A    between atoms: C_7  and  N_8
REMARK    4  A    between atoms: C_18  and  C_19
REMARK    5  A    between atoms: N_22  and  C_23
REMARK                            x       y       z     vdW  Elec       q    Type
REMARK                         _______ _______ _______ _____ _____    ______ ____
ROOT
ATOM      1  N   UNL     1       6.942   4.333  15.272  0.00  0.00    +0.000 NA
ATOM      2  C   UNL     1       7.307   5.294  16.308  0.00  0.00    +0.000 C 
ATOM      3  C   UNL     1       6.153   6.209  16.709  0.00  0.00    +0.000 C 
ATOM      4  C   UNL     1       4.842   5.468  17.108  0.00  0.00    +0.000 C 
ATOM      5  C   UNL     1       4.595   4.230  16.214  0.00  0.00    +0.000 C 
ATOM      6  C   UNL     1       5.848   3.488  15.745  0.00  0.00    +0.000 C 
ATOM      7  N   UNL     1       3.740   6.411  16.930  0.00  0.00    +0.000 N 
ATOM      8  C   UNL     1       3.505   7.184  18.045  0.00  0.00    +0.000 C 
ATOM      9  O   UNL     1       2.804   8.184  18.078  0.00  0.00    +0.000 OA
ATOM     10  C   UNL     1       4.309   6.624  19.192  0.00  0.00    +0.000 C 
ATOM     11  C   UNL     1       4.793   5.250  18.659  0.00  0.00    +0.000 C 
ATOM     12  H   UNL     1       3.421   6.748  16.031  0.00  0.00    +0.000 HD
ENDROOT
BRANCH  11  13
ATOM     13  C   UNL     1       3.885   4.161  19.177  0.00  0.00    +0.000 A 
ATOM     14  C   UNL     1       4.048   2.762  19.024  0.00  0.00    +0.000 A 
ATOM     15  N   UNL     1       3.119   2.058  19.676  0.00  0.00    +0.000 NA
ATOM     16  N   UNL     1       2.367   2.998  20.272  0.00  0.00    +0.000 N 
ATOM     17  C   UNL     1       1.305   2.621  21.173  0.00  0.00    +0.000 C 
ATOM     18  C   UNL     1       2.764   4.270  19.979  0.00  0.00    +0.000 A 
ENDBRANCH  11  13
BRANCH   1  19
ATOM     19  C   UNL     1       6.730   4.956  13.943  0.00  0.00    +0.000 C 
BRANCH  19  25
ATOM     20  C   UNL     1       3.280   2.948  10.934  0.00  0.00    +0.000 C 
ATOM     21  C   UNL     1       4.652   2.941  11.553  0.00  0.00    +0.000 A 
ATOM     22  C   UNL     1       5.556   1.989  11.088  0.00  0.00    +0.000 A 
ATOM     23  C   UNL     1       6.881   2.078  11.481  0.00  0.00    +0.000 A 
ATOM     24  C   UNL     1       7.257   3.080  12.364  0.00  0.00    +0.000 A 
ATOM     25  C   UNL     1       6.292   3.957  12.861  0.00  0.00    +0.000 A 
ATOM     26  N   UNL     1       4.992   3.921  12.443  0.00  0.00    +0.000 NA
ENDBRANCH  19  25
ENDBRANCH   1  19
TORSDOF 3
ENDMDL
MODEL 9
REMARK VINA RESULT:      -6.4      2.537      7.734
REMARK  Name = 
REMARK  5 active torsions:
REMARK  status: ('A' for Active; 'I' for Inactive)
REMARK    1  A    between atoms: C_1  and  C_2
REMARK    2  A    between atoms: C_6  and  C_7
REMARK    3  A    between atoms: C_7  and  N_8
REMARK    4  A    between atoms: C_18  and  C_19
REMARK    5  A    between atoms: N_22  and  C_23
REMARK                            x       y       z     vdW  Elec       q    Type
REMARK                         _______ _______ _______ _____ _____    ______ ____
ROOT
ATOM      1  N   UNL     1       2.356   5.733  18.912  0.00  0.00    +0.000 NA
ATOM      2  C   UNL     1       1.279   5.520  19.874  0.00  0.00    +0.000 C 
ATOM      3  C   UNL     1       1.315   6.505  21.041  0.00  0.00    +0.000 C 
ATOM      4  C   UNL     1       1.369   8.005  20.626  0.00  0.00    +0.000 C 
ATOM      5  C   UNL     1       2.266   8.218  19.383  0.00  0.00    +0.000 C 
ATOM      6  C   UNL     1       2.265   7.083  18.359  0.00  0.00    +0.000 C 
ATOM      7  N   UNL     1       1.931   8.747  21.752  0.00  0.00    +0.000 N 
ATOM      8  C   UNL     1       0.980   9.152  22.661  0.00  0.00    +0.000 C 
ATOM      9  O   UNL     1       1.210   9.581  23.781  0.00  0.00    +0.000 OA
ATOM     10  C   UNL     1      -0.384   8.915  22.062  0.00  0.00    +0.000 C 
ATOM     11  C   UNL     1      -0.078   8.606  20.574  0.00  0.00    +0.000 C 
ATOM     12  H   UNL     1       2.893   8.669  22.059  0.00  0.00    +0.000 HD
ENDROOT
BRANCH  11  13
ATOM     13  C   UNL     1      -0.281   9.853  19.749  0.00  0.00    +0.000 A 
ATOM     14  C   UNL     1      -1.194  10.039  18.681  0.00  0.00    +0.000 A 
ATOM     15  N   UNL     1      -1.195  11.288  18.210  0.00  0.00    +0.000 NA
ATOM     16  N   UNL     1      -0.299  11.921  18.987  0.00  0.00    +0.000 N 
ATOM     17  C   UNL     1      -0.095  13.343  18.855  0.00  0.00    +0.000 C 
ATOM     18  C   UNL     1       0.297  11.101  19.898  0.00  0.00    +0.000 A 
ENDBRANCH  11  13
BRANCH   1  19
ATOM     19  C   UNL     1       3.691   5.354  19.433  0.00  0.00    +0.000 C 
BRANCH  19  25
ATOM     20  C   UNL     1       7.758   7.462  17.431  0.00  0.00    +0.000 C 
ATOM     21  C   UNL     1       6.621   6.475  17.374  0.00  0.00    +0.000 A 
ATOM     22  C   UNL     1       6.615   5.572  16.313  0.00  0.00    +0.000 A 
ATOM     23  C   UNL     1       5.708   4.526  16.333  0.00  0.00    +0.000 A 
ATOM     24  C   UNL     1       4.803   4.437  17.381  0.00  0.00    +0.000 A 
ATOM     25  C   UNL     1       4.803   5.416  18.375  0.00  0.00    +0.000 A 
ATOM     26  N   UNL     1       5.724   6.425  18.403  0.00  0.00    +0.000 NA
ENDBRANCH  19  25
ENDBRANCH   1  19
TORSDOF 3
ENDMDL
