MODEL 1
REMARK VINA RESULT:      -8.6      0.000      0.000
REMARK  Name = 
REMARK  5 active torsions:
REMARK  status: ('A' for Active; 'I' for Inactive)
REMARK    1  A    between atoms: C_2  and  C_5
REMARK    2  A    between atoms: C_5  and  C_8
REMARK    3  A    between atoms: C_8  and  N_9
REMARK    4  A    between atoms: N_9  and  C_10
REMARK    5  A    between atoms: C_13  and  C_14
REMARK                            x       y       z     vdW  Elec       q    Type
REMARK                         _______ _______ _______ _____ _____    ______ ____
ROOT
ATOM      1  C   UNL     1       1.605   7.136  20.144  0.00  0.00    +0.000 C 
ATOM      2  C   UNL     1       2.458   7.647  18.971  0.00  0.00    +0.000 C 
ATOM      3  C   UNL     1       2.509   6.673  17.801  0.00  0.00    +0.000 C 
ATOM      4  C   UNL     1       2.903   5.258  18.218  0.00  0.00    +0.000 C 
ATOM      5  C   UNL     1       2.012   4.758  19.363  0.00  0.00    +0.000 C 
ATOM      6  C   UNL     1       2.002   5.711  20.557  0.00  0.00    +0.000 C 
ENDROOT
BRANCH   4   7
ATOM      7  C   UNL     1       4.358   5.105  18.527  0.00  0.00    +0.000 A 
ATOM      8  N   UNL     1       4.899   5.200  19.798  0.00  0.00    +0.000 NA
ATOM      9  N   UNL     1       6.220   5.004  19.728  0.00  0.00    +0.000 NA
ATOM     10  N   UNL     1       6.510   4.787  18.435  0.00  0.00    +0.000 N 
ATOM     11  C   UNL     1       7.786   4.538  17.916  0.00  0.00    +0.000 A 
ATOM     12  N   UNL     1       7.984   4.338  16.628  0.00  0.00    +0.000 NA
ATOM     13  C   UNL     1       6.847   4.393  15.865  0.00  0.00    +0.000 A 
ATOM     14  N   UNL     1       6.816   4.217  14.507  0.00  0.00    +0.000 N 
ATOM     15  C   UNL     1       5.516   4.337  14.061  0.00  0.00    +0.000 A 
ATOM     16  C   UNL     1       4.695   4.592  15.137  0.00  0.00    +0.000 A 
ATOM     17  C   UNL     1       5.540   4.628  16.245  0.00  0.00    +0.000 A 
ATOM     18  C   UNL     1       5.385   4.845  17.672  0.00  0.00    +0.000 A 
ATOM     19  H   UNL     1       7.630   4.029  13.939  0.00  0.00    +0.000 HD
ENDBRANCH   4   7
BRANCH   1  20
ATOM     20  N   UNL     1       1.726   8.013  21.316  0.00  0.00    +0.000 NA
ATOM     21  H   UNL     1       1.370   7.550  22.153  0.00  0.00    +0.000 HD
BRANCH  20  22
ATOM     22  C   UNL     1       1.048   9.310  21.125  0.00  0.00    +0.000 C 
BRANCH  22  23
ATOM     23  C   UNL     1      -0.408   9.374  21.606  0.00  0.00    +0.000 C 
ATOM     24  F   UNL     1      -0.899   8.111  21.753  0.00  0.00    +0.000 F 
ATOM     25  F   UNL     1      -1.169   9.964  20.640  0.00  0.00    +0.000 F 
BRANCH  23  27
ATOM     26  F   UNL     1      -1.758  10.246  23.390  0.00  0.00    +0.000 F 
ATOM     27  C   UNL     1      -0.488  10.147  22.930  0.00  0.00    +0.000 C 
ATOM     28  F   UNL     1      -0.017  11.412  22.804  0.00  0.00    +0.000 F 
ATOM     29  F   UNL     1       0.239   9.564  23.919  0.00  0.00    +0.000 F 
ENDBRANCH  23  27
ENDBRANCH  22  23
ENDBRANCH  20  22
ENDBRANCH   1  20
TORSDOF 5
ENDMDL
MODEL 2
REMARK VINA RESULT:      -8.5      0.550      1.086
REMARK  Name = 
REMARK  5 active torsions:
REMARK  status: ('A' for Active; 'I' for Inactive)
REMARK    1  A    between atoms: C_2  and  C_5
REMARK    2  A    between atoms: C_5  and  C_8
REMARK    3  A    between atoms: C_8  and  N_9
REMARK    4  A    between atoms: N_9  and  C_10
REMARK    5  A    between atoms: C_13  and  C_14
REMARK                            x       y       z     vdW  Elec       q    Type
REMARK                         _______ _______ _______ _____ _____    ______ ____
ROOT
ATOM      1  C   UNL     1       1.570   7.012  20.298  0.00  0.00    +0.000 C 
ATOM      2  C   UNL     1       2.401   7.607  19.148  0.00  0.00    +0.000 C 
ATOM      3  C   UNL     1       2.473   6.694  17.931  0.00  0.00    +0.000 C 
ATOM      4  C   UNL     1       2.910   5.273  18.274  0.00  0.00    +0.000 C 
ATOM      5  C   UNL     1       2.041   4.690  19.396  0.00  0.00    +0.000 C 
ATOM      6  C   UNL     1       2.011   5.581  20.637  0.00  0.00    +0.000 C 
ENDROOT
BRANCH   4   7
ATOM      7  C   UNL     1       4.371   5.146  18.568  0.00  0.00    +0.000 A 
ATOM      8  N   UNL     1       4.927   5.289  19.827  0.00  0.00    +0.000 NA
ATOM      9  N   UNL     1       6.249   5.106  19.746  0.00  0.00    +0.000 NA
ATOM     10  N   UNL     1       6.525   4.850  18.458  0.00  0.00    +0.000 N 
ATOM     11  C   UNL     1       7.797   4.598  17.930  0.00  0.00    +0.000 A 
ATOM     12  N   UNL     1       7.981   4.358  16.647  0.00  0.00    +0.000 NA
ATOM     13  C   UNL     1       6.833   4.376  15.897  0.00  0.00    +0.000 A 
ATOM     14  N   UNL     1       6.786   4.155  14.547  0.00  0.00    +0.000 N 
ATOM     15  C   UNL     1       5.480   4.245  14.114  0.00  0.00    +0.000 A 
ATOM     16  C   UNL     1       4.669   4.526  15.193  0.00  0.00    +0.000 A 
ATOM     17  C   UNL     1       5.528   4.608  16.287  0.00  0.00    +0.000 A 
ATOM     18  C   UNL     1       5.389   4.869  17.708  0.00  0.00    +0.000 A 
ATOM     19  H   UNL     1       7.595   3.958  13.974  0.00  0.00    +0.000 HD
ENDBRANCH   4   7
BRANCH   1  20
ATOM     20  N   UNL     1       1.674   7.832  21.512  0.00  0.00    +0.000 NA
ATOM     21  H   UNL     1       1.273   7.344  22.314  0.00  0.00    +0.000 HD
BRANCH  20  22
ATOM     22  C   UNL     1       1.039   9.157  21.356  0.00  0.00    +0.000 C 
BRANCH  22  23
ATOM     23  C   UNL     1       0.039   9.545  22.453  0.00  0.00    +0.000 C 
ATOM     24  F   UNL     1       0.636   9.450  23.675  0.00  0.00    +0.000 F 
ATOM     25  F   UNL     1      -0.984   8.643  22.461  0.00  0.00    +0.000 F 
BRANCH  23  27
ATOM     26  F   UNL     1      -1.018  11.518  23.324  0.00  0.00    +0.000 F 
ATOM     27  C   UNL     1      -0.477  10.970  22.210  0.00  0.00    +0.000 C 
ATOM     28  F   UNL     1      -1.437  11.002  21.253  0.00  0.00    +0.000 F 
ATOM     29  F   UNL     1       0.503  11.817  21.797  0.00  0.00    +0.000 F 
ENDBRANCH  23  27
ENDBRANCH  22  23
ENDBRANCH  20  22
ENDBRANCH   1  20
TORSDOF 5
ENDMDL
MODEL 3
REMARK VINA RESULT:      -8.5      2.170      3.111
REMARK  Name = 
REMARK  5 active torsions:
REMARK  status: ('A' for Active; 'I' for Inactive)
REMARK    1  A    between atoms: C_2  and  C_5
REMARK    2  A    between atoms: C_5  and  C_8
REMARK    3  A    between atoms: C_8  and  N_9
REMARK    4  A    between atoms: N_9  and  C_10
REMARK    5  A    between atoms: C_13  and  C_14
REMARK                            x       y       z     vdW  Elec       q    Type
REMARK                         _______ _______ _______ _____ _____    ______ ____
ROOT
ATOM      1  C   UNL     1       1.538   3.073  19.507  0.00  0.00    +0.000 C 
ATOM      2  C   UNL     1       1.866   3.817  18.201  0.00  0.00    +0.000 C 
ATOM      3  C   UNL     1       2.862   3.070  17.323  0.00  0.00    +0.000 C 
ATOM      4  C   UNL     1       4.124   2.652  18.073  0.00  0.00    +0.000 C 
ATOM      5  C   UNL     1       3.769   1.879  19.351  0.00  0.00    +0.000 C 
ATOM      6  C   UNL     1       2.810   2.650  20.256  0.00  0.00    +0.000 C 
ENDROOT
BRANCH   4   7
ATOM      7  C   UNL     1       5.067   3.780  18.341  0.00  0.00    +0.000 A 
ATOM      8  N   UNL     1       5.315   4.309  19.596  0.00  0.00    +0.000 NA
ATOM      9  N   UNL     1       6.211   5.295  19.488  0.00  0.00    +0.000 NA
ATOM     10  N   UNL     1       6.528   5.388  18.187  0.00  0.00    +0.000 N 
ATOM     11  C   UNL     1       7.436   6.296  17.631  0.00  0.00    +0.000 A 
ATOM     12  N   UNL     1       7.688   6.323  16.338  0.00  0.00    +0.000 NA
ATOM     13  C   UNL     1       6.994   5.394  15.606  0.00  0.00    +0.000 A 
ATOM     14  N   UNL     1       7.097   5.241  14.250  0.00  0.00    +0.000 N 
ATOM     15  C   UNL     1       6.265   4.220  13.841  0.00  0.00    +0.000 A 
ATOM     16  C   UNL     1       5.616   3.703  14.941  0.00  0.00    +0.000 A 
ATOM     17  C   UNL     1       6.078   4.448  16.024  0.00  0.00    +0.000 A 
ATOM     18  C   UNL     1       5.839   4.470  17.456  0.00  0.00    +0.000 A 
ATOM     19  H   UNL     1       7.695   5.800  13.659  0.00  0.00    +0.000 HD
ENDBRANCH   4   7
BRANCH   1  20
ATOM     20  N   UNL     1       0.722   3.902  20.403  0.00  0.00    +0.000 NA
ATOM     21  H   UNL     1      -0.233   3.543  20.459  0.00  0.00    +0.000 HD
BRANCH  20  22
ATOM     22  C   UNL     1       0.707   5.323  20.004  0.00  0.00    +0.000 C 
BRANCH  22  23
ATOM     23  C   UNL     1       1.798   6.200  20.631  0.00  0.00    +0.000 C 
ATOM     24  F   UNL     1       2.842   6.325  19.763  0.00  0.00    +0.000 F 
ATOM     25  F   UNL     1       2.297   5.568  21.732  0.00  0.00    +0.000 F 
BRANCH  23  27
ATOM     26  F   UNL     1       1.311   8.455  19.964  0.00  0.00    +0.000 F 
ATOM     27  C   UNL     1       1.222   7.576  20.991  0.00  0.00    +0.000 C 
ATOM     28  F   UNL     1       1.872   8.135  22.042  0.00  0.00    +0.000 F 
ATOM     29  F   UNL     1      -0.090   7.518  21.339  0.00  0.00    +0.000 F 
ENDBRANCH  23  27
ENDBRANCH  22  23
ENDBRANCH  20  22
ENDBRANCH   1  20
TORSDOF 5
ENDMDL
MODEL 4
REMARK VINA RESULT:      -8.4      2.664      3.626
REMARK  Name = 
REMARK  5 active torsions:
REMARK  status: ('A' for Active; 'I' for Inactive)
REMARK    1  A    between atoms: C_2  and  C_5
REMARK    2  A    between atoms: C_5  and  C_8
REMARK    3  A    between atoms: C_8  and  N_9
REMARK    4  A    between atoms: N_9  and  C_10
REMARK    5  A    between atoms: C_13  and  C_14
REMARK                            x       y       z     vdW  Elec       q    Type
REMARK                         _______ _______ _______ _____ _____    ______ ____
ROOT
ATOM      1  C   UNL     1       1.482   2.812  19.314  0.00  0.00    +0.000 C 
ATOM      2  C   UNL     1       1.821   3.651  18.069  0.00  0.00    +0.000 C 
ATOM      3  C   UNL     1       2.805   2.960  17.134  0.00  0.00    +0.000 C 
ATOM      4  C   UNL     1       4.061   2.466  17.847  0.00  0.00    +0.000 C 
ATOM      5  C   UNL     1       3.696   1.601  19.061  0.00  0.00    +0.000 C 
ATOM      6  C   UNL     1       2.749   2.313  20.025  0.00  0.00    +0.000 C 
ENDROOT
BRANCH   4   7
ATOM      7  C   UNL     1       5.021   3.556  18.200  0.00  0.00    +0.000 A 
ATOM      8  N   UNL     1       5.275   3.983  19.492  0.00  0.00    +0.000 NA
ATOM      9  N   UNL     1       6.187   4.961  19.460  0.00  0.00    +0.000 NA
ATOM     10  N   UNL     1       6.507   5.148  18.170  0.00  0.00    +0.000 N 
ATOM     11  C   UNL     1       7.429   6.082  17.686  0.00  0.00    +0.000 A 
ATOM     12  N   UNL     1       7.683   6.204  16.398  0.00  0.00    +0.000 NA
ATOM     13  C   UNL     1       6.976   5.344  15.597  0.00  0.00    +0.000 A 
ATOM     14  N   UNL     1       7.078   5.294  14.233  0.00  0.00    +0.000 N 
ATOM     15  C   UNL     1       6.231   4.321  13.747  0.00  0.00    +0.000 A 
ATOM     16  C   UNL     1       5.573   3.731  14.804  0.00  0.00    +0.000 A 
ATOM     17  C   UNL     1       6.046   4.383  15.942  0.00  0.00    +0.000 A 
ATOM     18  C   UNL     1       5.805   4.299  17.370  0.00  0.00    +0.000 A 
ATOM     19  H   UNL     1       7.686   5.888  13.686  0.00  0.00    +0.000 HD
ENDBRANCH   4   7
BRANCH   1  20
ATOM     20  N   UNL     1       0.679   3.580  20.273  0.00  0.00    +0.000 NA
ATOM     21  H   UNL     1      -0.265   3.198  20.343  0.00  0.00    +0.000 HD
BRANCH  20  22
ATOM     22  C   UNL     1       0.621   5.017  19.941  0.00  0.00    +0.000 C 
BRANCH  22  23
ATOM     23  C   UNL     1       1.679   5.898  20.620  0.00  0.00    +0.000 C 
ATOM     24  F   UNL     1       2.573   5.112  21.285  0.00  0.00    +0.000 F 
ATOM     25  F   UNL     1       1.074   6.667  21.569  0.00  0.00    +0.000 F 
BRANCH  23  27
ATOM     26  F   UNL     1       1.929   6.535  18.318  0.00  0.00    +0.000 F 
ATOM     27  C   UNL     1       2.391   6.764  19.571  0.00  0.00    +0.000 C 
ATOM     28  F   UNL     1       3.726   6.528  19.546  0.00  0.00    +0.000 F 
ATOM     29  F   UNL     1       2.240   8.094  19.803  0.00  0.00    +0.000 F 
ENDBRANCH  23  27
ENDBRANCH  22  23
ENDBRANCH  20  22
ENDBRANCH   1  20
TORSDOF 5
ENDMDL
MODEL 5
REMARK VINA RESULT:      -8.4      5.840      8.900
REMARK  Name = 
REMARK  5 active torsions:
REMARK  status: ('A' for Active; 'I' for Inactive)
REMARK    1  A    between atoms: C_2  and  C_5
REMARK    2  A    between atoms: C_5  and  C_8
REMARK    3  A    between atoms: C_8  and  N_9
REMARK    4  A    between atoms: N_9  and  C_10
REMARK    5  A    between atoms: C_13  and  C_14
REMARK                            x       y       z     vdW  Elec       q    Type
REMARK                         _______ _______ _______ _____ _____    ______ ____
ROOT
ATOM      1  C   UNL     1       6.721   5.039  15.459  0.00  0.00    +0.000 C 
ATOM      2  C   UNL     1       5.251   5.409  15.721  0.00  0.00    +0.000 C 
ATOM      3  C   UNL     1       5.079   6.383  16.880  0.00  0.00    +0.000 C 
ATOM      4  C   UNL     1       5.789   5.929  18.153  0.00  0.00    +0.000 C 
ATOM      5  C   UNL     1       7.261   5.603  17.872  0.00  0.00    +0.000 C 
ATOM      6  C   UNL     1       7.432   4.587  16.743  0.00  0.00    +0.000 C 
ENDROOT
BRANCH   4   7
ATOM      7  C   UNL     1       5.091   4.815  18.866  0.00  0.00    +0.000 A 
ATOM      8  N   UNL     1       5.570   3.518  18.945  0.00  0.00    +0.000 NA
ATOM      9  N   UNL     1       4.715   2.778  19.658  0.00  0.00    +0.000 NA
ATOM     10  N   UNL     1       3.714   3.591  20.027  0.00  0.00    +0.000 N 
ATOM     11  C   UNL     1       2.601   3.221  20.791  0.00  0.00    +0.000 A 
ATOM     12  N   UNL     1       1.657   4.085  21.107  0.00  0.00    +0.000 NA
ATOM     13  C   UNL     1       1.868   5.353  20.631  0.00  0.00    +0.000 A 
ATOM     14  N   UNL     1       1.020   6.408  20.836  0.00  0.00    +0.000 N 
ATOM     15  C   UNL     1       1.533   7.532  20.222  0.00  0.00    +0.000 A 
ATOM     16  C   UNL     1       2.725   7.205  19.613  0.00  0.00    +0.000 A 
ATOM     17  C   UNL     1       2.911   5.849  19.874  0.00  0.00    +0.000 A 
ATOM     18  C   UNL     1       3.916   4.851  19.554  0.00  0.00    +0.000 A 
ATOM     19  H   UNL     1       0.158   6.352  21.359  0.00  0.00    +0.000 HD
ENDBRANCH   4   7
BRANCH   1  20
ATOM     20  N   UNL     1       6.832   3.967  14.461  0.00  0.00    +0.000 NA
ATOM     21  H   UNL     1       7.661   4.099  13.879  0.00  0.00    +0.000 HD
BRANCH  20  22
ATOM     22  C   UNL     1       5.629   3.856  13.613  0.00  0.00    +0.000 C 
BRANCH  22  23
ATOM     23  C   UNL     1       5.877   3.411  12.166  0.00  0.00    +0.000 C 
ATOM     24  F   UNL     1       6.628   2.273  12.157  0.00  0.00    +0.000 F 
ATOM     25  F   UNL     1       6.623   4.360  11.531  0.00  0.00    +0.000 F 
BRANCH  23  27
ATOM     26  F   UNL     1       4.221   4.205  10.618  0.00  0.00    +0.000 F 
ATOM     27  C   UNL     1       4.538   3.185  11.451  0.00  0.00    +0.000 C 
ATOM     28  F   UNL     1       3.512   3.064  12.330  0.00  0.00    +0.000 F 
ATOM     29  F   UNL     1       4.532   2.053  10.699  0.00  0.00    +0.000 F 
ENDBRANCH  23  27
ENDBRANCH  22  23
ENDBRANCH  20  22
ENDBRANCH   1  20
TORSDOF 5
ENDMDL
MODEL 6
REMARK VINA RESULT:      -8.4      0.740      1.472
REMARK  Name = 
REMARK  5 active torsions:
REMARK  status: ('A' for Active; 'I' for Inactive)
REMARK    1  A    between atoms: C_2  and  C_5
REMARK    2  A    between atoms: C_5  and  C_8
REMARK    3  A    between atoms: C_8  and  N_9
REMARK    4  A    between atoms: N_9  and  C_10
REMARK    5  A    between atoms: C_13  and  C_14
REMARK                            x       y       z     vdW  Elec       q    Type
REMARK                         _______ _______ _______ _____ _____    ______ ____
ROOT
ATOM      1  C   UNL     1       1.450   6.715  20.355  0.00  0.00    +0.000 C 
ATOM      2  C   UNL     1       2.291   7.458  19.302  0.00  0.00    +0.000 C 
ATOM      3  C   UNL     1       2.423   6.690  17.994  0.00  0.00    +0.000 C 
ATOM      4  C   UNL     1       2.897   5.252  18.190  0.00  0.00    +0.000 C 
ATOM      5  C   UNL     1       2.018   4.522  19.215  0.00  0.00    +0.000 C 
ATOM      6  C   UNL     1       1.927   5.268  20.545  0.00  0.00    +0.000 C 
ENDROOT
BRANCH   4   7
ATOM      7  C   UNL     1       4.352   5.136  18.511  0.00  0.00    +0.000 A 
ATOM      8  N   UNL     1       4.886   5.293  19.778  0.00  0.00    +0.000 NA
ATOM      9  N   UNL     1       6.210   5.117  19.721  0.00  0.00    +0.000 NA
ATOM     10  N   UNL     1       6.510   4.850  18.441  0.00  0.00    +0.000 N 
ATOM     11  C   UNL     1       7.792   4.599  17.937  0.00  0.00    +0.000 A 
ATOM     12  N   UNL     1       7.999   4.348  16.660  0.00  0.00    +0.000 NA
ATOM     13  C   UNL     1       6.865   4.353  15.890  0.00  0.00    +0.000 A 
ATOM     14  N   UNL     1       6.843   4.119  14.542  0.00  0.00    +0.000 N 
ATOM     15  C   UNL     1       5.544   4.199  14.086  0.00  0.00    +0.000 A 
ATOM     16  C   UNL     1       4.713   4.485  15.147  0.00  0.00    +0.000 A 
ATOM     17  C   UNL     1       5.553   4.582  16.255  0.00  0.00    +0.000 A 
ATOM     18  C   UNL     1       5.387   4.856  17.671  0.00  0.00    +0.000 A 
ATOM     19  H   UNL     1       7.662   3.921  13.985  0.00  0.00    +0.000 HD
ENDBRANCH   4   7
BRANCH   1  20
ATOM     20  N   UNL     1       1.496   7.397  21.654  0.00  0.00    +0.000 NA
ATOM     21  H   UNL     1       0.767   7.042  22.276  0.00  0.00    +0.000 HD
BRANCH  20  22
ATOM     22  C   UNL     1       1.384   8.864  21.528  0.00  0.00    +0.000 C 
BRANCH  22  23
ATOM     23  C   UNL     1      -0.036   9.433  21.641  0.00  0.00    +0.000 C 
ATOM     24  F   UNL     1      -0.158  10.136  22.803  0.00  0.00    +0.000 F 
ATOM     25  F   UNL     1      -0.922   8.400  21.730  0.00  0.00    +0.000 F 
BRANCH  23  27
ATOM     26  F   UNL     1      -1.227   9.756  19.582  0.00  0.00    +0.000 F 
ATOM     27  C   UNL     1      -0.340  10.327  20.431  0.00  0.00    +0.000 C 
ATOM     28  F   UNL     1       0.777  10.594  19.710  0.00  0.00    +0.000 F 
ATOM     29  F   UNL     1      -0.862  11.529  20.788  0.00  0.00    +0.000 F 
ENDBRANCH  23  27
ENDBRANCH  22  23
ENDBRANCH  20  22
ENDBRANCH   1  20
TORSDOF 5
ENDMDL
MODEL 7
REMARK VINA RESULT:      -8.4      5.947      8.963
REMARK  Name = 
REMARK  5 active torsions:
REMARK  status: ('A' for Active; 'I' for Inactive)
REMARK    1  A    between atoms: C_2  and  C_5
REMARK    2  A    between atoms: C_5  and  C_8
REMARK    3  A    between atoms: C_8  and  N_9
REMARK    4  A    between atoms: N_9  and  C_10
REMARK    5  A    between atoms: C_13  and  C_14
REMARK                            x       y       z     vdW  Elec       q    Type
REMARK                         _______ _______ _______ _____ _____    ______ ____
ROOT
ATOM      1  C   UNL     1       6.872   5.565  15.381  0.00  0.00    +0.000 C 
ATOM      2  C   UNL     1       5.432   6.056  15.617  0.00  0.00    +0.000 C 
ATOM      3  C   UNL     1       5.128   6.326  17.085  0.00  0.00    +0.000 C 
ATOM      4  C   UNL     1       5.487   5.154  17.995  0.00  0.00    +0.000 C 
ATOM      5  C   UNL     1       6.938   4.710  17.767  0.00  0.00    +0.000 C 
ATOM      6  C   UNL     1       7.230   4.390  16.302  0.00  0.00    +0.000 C 
ENDROOT
BRANCH   4   7
ATOM      7  C   UNL     1       4.528   4.011  17.912  0.00  0.00    +0.000 A 
ATOM      8  N   UNL     1       4.743   2.864  17.166  0.00  0.00    +0.000 NA
ATOM      9  N   UNL     1       3.701   2.041  17.317  0.00  0.00    +0.000 NA
ATOM     10  N   UNL     1       2.841   2.653  18.145  0.00  0.00    +0.000 N 
ATOM     11  C   UNL     1       1.611   2.138  18.571  0.00  0.00    +0.000 A 
ATOM     12  N   UNL     1       0.822   2.810  19.386  0.00  0.00    +0.000 NA
ATOM     13  C   UNL     1       1.312   4.031  19.771  0.00  0.00    +0.000 A 
ATOM     14  N   UNL     1       0.664   4.897  20.609  0.00  0.00    +0.000 N 
ATOM     15  C   UNL     1       1.435   6.027  20.785  0.00  0.00    +0.000 A 
ATOM     16  C   UNL     1       2.596   5.894  20.054  0.00  0.00    +0.000 A 
ATOM     17  C   UNL     1       2.498   4.653  19.429  0.00  0.00    +0.000 A 
ATOM     18  C   UNL     1       3.321   3.868  18.528  0.00  0.00    +0.000 A 
ATOM     19  H   UNL     1      -0.239   4.717  21.026  0.00  0.00    +0.000 HD
ENDBRANCH   4   7
BRANCH   1  20
ATOM     20  N   UNL     1       7.071   5.146  13.988  0.00  0.00    +0.000 NA
ATOM     21  H   UNL     1       6.783   5.883  13.343  0.00  0.00    +0.000 HD
BRANCH  20  22
ATOM     22  C   UNL     1       6.365   3.888  13.669  0.00  0.00    +0.000 C 
BRANCH  22  23
ATOM     23  C   UNL     1       6.359   3.490  12.187  0.00  0.00    +0.000 C 
ATOM     24  F   UNL     1       7.139   2.386  12.005  0.00  0.00    +0.000 F 
ATOM     25  F   UNL     1       6.938   4.485  11.457  0.00  0.00    +0.000 F 
BRANCH  23  27
ATOM     26  F   UNL     1       4.781   1.994  11.169  0.00  0.00    +0.000 F 
ATOM     27  C   UNL     1       4.921   3.221  11.724  0.00  0.00    +0.000 C 
ATOM     28  F   UNL     1       4.515   4.120  10.793  0.00  0.00    +0.000 F 
ATOM     29  F   UNL     1       4.023   3.292  12.741  0.00  0.00    +0.000 F 
ENDBRANCH  23  27
ENDBRANCH  22  23
ENDBRANCH  20  22
ENDBRANCH   1  20
TORSDOF 5
ENDMDL
MODEL 8
REMARK VINA RESULT:      -8.3      4.664      7.908
REMARK  Name = 
REMARK  5 active torsions:
REMARK  status: ('A' for Active; 'I' for Inactive)
REMARK    1  A    between atoms: C_2  and  C_5
REMARK    2  A    between atoms: C_5  and  C_8
REMARK    3  A    between atoms: C_8  and  N_9
REMARK    4  A    between atoms: N_9  and  C_10
REMARK    5  A    between atoms: C_13  and  C_14
REMARK                            x       y       z     vdW  Elec       q    Type
REMARK                         _______ _______ _______ _____ _____    ______ ____
ROOT
ATOM      1  C   UNL     1       4.163   3.856  18.235  0.00  0.00    +0.000 C 
ATOM      2  C   UNL     1       4.565   4.919  19.273  0.00  0.00    +0.000 C 
ATOM      3  C   UNL     1       3.413   5.330  20.181  0.00  0.00    +0.000 C 
ATOM      4  C   UNL     1       2.158   5.733  19.411  0.00  0.00    +0.000 C 
ATOM      5  C   UNL     1       1.758   4.641  18.410  0.00  0.00    +0.000 C 
ATOM      6  C   UNL     1       2.898   4.264  17.466  0.00  0.00    +0.000 C 
ENDROOT
BRANCH   4   7
ATOM      7  C   UNL     1       2.253   7.079  18.767  0.00  0.00    +0.000 A 
ATOM      8  N   UNL     1       2.871   7.322  17.552  0.00  0.00    +0.000 NA
ATOM      9  N   UNL     1       2.771   8.622  17.260  0.00  0.00    +0.000 NA
ATOM     10  N   UNL     1       2.098   9.194  18.271  0.00  0.00    +0.000 N 
ATOM     11  C   UNL     1       1.772  10.552  18.369  0.00  0.00    +0.000 A 
ATOM     12  N   UNL     1       1.110  11.033  19.402  0.00  0.00    +0.000 NA
ATOM     13  C   UNL     1       0.776  10.098  20.348  0.00  0.00    +0.000 A 
ATOM     14  N   UNL     1       0.090  10.372  21.501  0.00  0.00    +0.000 N 
ATOM     15  C   UNL     1      -0.075   9.208  22.221  0.00  0.00    +0.000 A 
ATOM     16  C   UNL     1       0.507   8.167  21.530  0.00  0.00    +0.000 A 
ATOM     17  C   UNL     1       1.033   8.741  20.374  0.00  0.00    +0.000 A 
ATOM     18  C   UNL     1       1.767   8.270  19.215  0.00  0.00    +0.000 A 
ATOM     19  H   UNL     1      -0.235  11.291  21.764  0.00  0.00    +0.000 HD
ENDBRANCH   4   7
BRANCH   1  20
ATOM     20  N   UNL     1       5.242   3.619  17.268  0.00  0.00    +0.000 NA
ATOM     21  H   UNL     1       6.074   3.257  17.736  0.00  0.00    +0.000 HD
BRANCH  20  22
ATOM     22  C   UNL     1       5.582   4.828  16.491  0.00  0.00    +0.000 C 
BRANCH  22  23
ATOM     23  C   UNL     1       7.053   5.263  16.552  0.00  0.00    +0.000 C 
ATOM     24  F   UNL     1       7.539   5.415  15.288  0.00  0.00    +0.000 F 
ATOM     25  F   UNL     1       7.787   4.266  17.122  0.00  0.00    +0.000 F 
BRANCH  23  27
ATOM     26  F   UNL     1       5.997   7.226  17.445  0.00  0.00    +0.000 F 
ATOM     27  C   UNL     1       7.178   6.572  17.344  0.00  0.00    +0.000 C 
ATOM     28  F   UNL     1       8.053   7.430  16.763  0.00  0.00    +0.000 F 
ATOM     29  F   UNL     1       7.622   6.374  18.613  0.00  0.00    +0.000 F 
ENDBRANCH  23  27
ENDBRANCH  22  23
ENDBRANCH  20  22
ENDBRANCH   1  20
TORSDOF 5
ENDMDL
MODEL 9
REMARK VINA RESULT:      -8.2      0.810      1.143
REMARK  Name = 
REMARK  5 active torsions:
REMARK  status: ('A' for Active; 'I' for Inactive)
REMARK    1  A    between atoms: C_2  and  C_5
REMARK    2  A    between atoms: C_5  and  C_8
REMARK    3  A    between atoms: C_8  and  N_9
REMARK    4  A    between atoms: N_9  and  C_10
REMARK    5  A    between atoms: C_13  and  C_14
REMARK                            x       y       z     vdW  Elec       q    Type
REMARK                         _______ _______ _______ _____ _____    ______ ____
ROOT
ATOM      1  C   UNL     1       1.562   7.212  20.130  0.00  0.00    +0.000 C 
ATOM      2  C   UNL     1       2.427   7.729  18.967  0.00  0.00    +0.000 C 
ATOM      3  C   UNL     1       2.495   6.756  17.797  0.00  0.00    +0.000 C 
ATOM      4  C   UNL     1       2.892   5.343  18.217  0.00  0.00    +0.000 C 
ATOM      5  C   UNL     1       1.991   4.837  19.351  0.00  0.00    +0.000 C 
ATOM      6  C   UNL     1       1.962   5.789  20.546  0.00  0.00    +0.000 C 
ENDROOT
BRANCH   4   7
ATOM      7  C   UNL     1       4.344   5.196  18.543  0.00  0.00    +0.000 A 
ATOM      8  N   UNL     1       4.874   5.324  19.815  0.00  0.00    +0.000 NA
ATOM      9  N   UNL     1       6.195   5.125  19.761  0.00  0.00    +0.000 NA
ATOM     10  N   UNL     1       6.496   4.874  18.478  0.00  0.00    +0.000 N 
ATOM     11  C   UNL     1       7.776   4.609  17.976  0.00  0.00    +0.000 A 
ATOM     12  N   UNL     1       7.986   4.376  16.696  0.00  0.00    +0.000 NA
ATOM     13  C   UNL     1       6.855   4.412  15.921  0.00  0.00    +0.000 A 
ATOM     14  N   UNL     1       6.835   4.201  14.569  0.00  0.00    +0.000 N 
ATOM     15  C   UNL     1       5.540   4.310  14.108  0.00  0.00    +0.000 A 
ATOM     16  C   UNL     1       4.710   4.594  15.170  0.00  0.00    +0.000 A 
ATOM     17  C   UNL     1       5.545   4.658  16.284  0.00  0.00    +0.000 A 
ATOM     18  C   UNL     1       5.378   4.912  17.703  0.00  0.00    +0.000 A 
ATOM     19  H   UNL     1       7.654   3.997  14.013  0.00  0.00    +0.000 HD
ENDBRANCH   4   7
BRANCH   1  20
ATOM     20  N   UNL     1       1.667   8.088  21.303  0.00  0.00    +0.000 NA
ATOM     21  H   UNL     1       2.007   7.569  22.114  0.00  0.00    +0.000 HD
BRANCH  20  22
ATOM     22  C   UNL     1       0.390   8.755  21.628  0.00  0.00    +0.000 C 
BRANCH  22  23
ATOM     23  C   UNL     1       0.114  10.063  20.875  0.00  0.00    +0.000 C 
ATOM     24  F   UNL     1      -0.684   9.814  19.798  0.00  0.00    +0.000 F 
ATOM     25  F   UNL     1       1.288  10.541  20.372  0.00  0.00    +0.000 F 
BRANCH  23  27
ATOM     26  F   UNL     1      -0.696  10.595  23.072  0.00  0.00    +0.000 F 
ATOM     27  C   UNL     1      -0.545  11.080  21.816  0.00  0.00    +0.000 C 
ATOM     28  F   UNL     1      -1.779  11.440  21.384  0.00  0.00    +0.000 F 
ATOM     29  F   UNL     1       0.172  12.229  21.927  0.00  0.00    +0.000 F 
ENDBRANCH  23  27
ENDBRANCH  22  23
ENDBRANCH  20  22
ENDBRANCH   1  20
TORSDOF 5
ENDMDL
