MODEL 1
REMARK VINA RESULT:      -8.2      0.000      0.000
REMARK  Name = 
REMARK  8 active torsions:
REMARK  status: ('A' for Active; 'I' for Inactive)
REMARK    1  A    between atoms: C_1  and  O_2
REMARK    2  A    between atoms: O_2  and  C_3
REMARK    3  A    between atoms: C_9  and  C_10
REMARK    4  A    between atoms: C_10  and  N_11
REMARK    5  A    between atoms: C_13  and  C_14
REMARK    6  A    between atoms: C_14  and  O_16
REMARK    7  A    between atoms: C_20  and  C_21
REMARK    8  A    between atoms: N_23  and  C_24
REMARK                            x       y       z     vdW  Elec       q    Type
REMARK                         _______ _______ _______ _____ _____    ______ ____
ROOT
ATOM      1  N   UNL     1       3.178   4.480  18.271  0.00  0.00    +0.000 N 
ATOM      2  C   UNL     1       3.146   3.444  19.168  0.00  0.00    +0.000 A 
ATOM      3  C   UNL     1       2.455   3.842  20.300  0.00  0.00    +0.000 A 
ATOM      4  C   UNL     1       2.133   5.231  20.113  0.00  0.00    +0.000 A 
ATOM      5  C   UNL     1       1.495   6.222  20.899  0.00  0.00    +0.000 A 
ATOM      6  C   UNL     1       1.355   7.534  20.413  0.00  0.00    +0.000 A 
ATOM      7  C   UNL     1       1.853   7.873  19.154  0.00  0.00    +0.000 A 
ATOM      8  C   UNL     1       2.474   6.904  18.352  0.00  0.00    +0.000 A 
ATOM      9  C   UNL     1       2.613   5.600  18.847  0.00  0.00    +0.000 A 
ENDROOT
BRANCH   7  10
ATOM     10  C   UNL     1       1.717   9.238  18.580  0.00  0.00    +0.000 C 
ATOM     11  O   UNL     1       2.196   9.424  17.464  0.00  0.00    +0.000 OA
ATOM     12  N   UNL     1       1.128  10.193  19.389  0.00  0.00    +0.000 N 
ATOM     13  H   UNL     1       0.962   9.954  20.358  0.00  0.00    +0.000 HD
BRANCH  12  14
ATOM     14  C   UNL     1       0.988  11.565  19.053  0.00  0.00    +0.000 A 
ATOM     15  C   UNL     1       2.054  12.470  19.095  0.00  0.00    +0.000 A 
ATOM     16  C   UNL     1       1.846  13.831  18.865  0.00  0.00    +0.000 A 
ATOM     17  C   UNL     1       0.570  14.301  18.571  0.00  0.00    +0.000 A 
ATOM     18  C   UNL     1      -0.490  13.402  18.469  0.00  0.00    +0.000 A 
ATOM     19  C   UNL     1      -0.280  12.036  18.696  0.00  0.00    +0.000 A 
ENDBRANCH  12  14
ENDBRANCH   7  10
BRANCH   3  20
ATOM     20  C   UNL     1       2.180   2.940  21.414  0.00  0.00    +0.000 C 
ATOM     21  O   UNL     1       3.047   2.351  22.037  0.00  0.00    +0.000 OA
BRANCH  20  22
ATOM     22  O   UNL     1       0.862   2.747  21.670  0.00  0.00    +0.000 OA
ATOM     23  H   UNL     1       0.468   3.516  22.118  0.00  0.00    +0.000 HD
ENDBRANCH  20  22
ENDBRANCH   3  20
BRANCH   1  24
ATOM     24  C   UNL     1       3.611   4.356  16.871  0.00  0.00    +0.000 C 
BRANCH  24  31
ATOM     25  C   UNL     1       5.719   4.541  15.420  0.00  0.00    +0.000 A 
ATOM     26  C   UNL     1       7.054   4.953  15.271  0.00  0.00    +0.000 A 
ATOM     27  C   UNL     1       7.740   5.555  16.324  0.00  0.00    +0.000 A 
ATOM     28  C   UNL     1       7.095   5.756  17.533  0.00  0.00    +0.000 A 
ATOM     29 CL   UNL     1       7.947   6.464  18.848  0.00  0.00    +0.000 Cl
ATOM     30  C   UNL     1       5.761   5.383  17.689  0.00  0.00    +0.000 A 
ATOM     31  C   UNL     1       5.042   4.792  16.631  0.00  0.00    +0.000 A 
BRANCH  25  33
ATOM     32  C   UNL     1       5.740   3.719  13.193  0.00  0.00    +0.000 C 
ATOM     33  O   UNL     1       5.033   3.890  14.425  0.00  0.00    +0.000 OA
ENDBRANCH  25  33
ENDBRANCH  24  31
ENDBRANCH   1  24
TORSDOF 7
ENDMDL
MODEL 2
REMARK VINA RESULT:      -8.1      2.215      2.911
REMARK  Name = 
REMARK  8 active torsions:
REMARK  status: ('A' for Active; 'I' for Inactive)
REMARK    1  A    between atoms: C_1  and  O_2
REMARK    2  A    between atoms: O_2  and  C_3
REMARK    3  A    between atoms: C_9  and  C_10
REMARK    4  A    between atoms: C_10  and  N_11
REMARK    5  A    between atoms: C_13  and  C_14
REMARK    6  A    between atoms: C_14  and  O_16
REMARK    7  A    between atoms: C_20  and  C_21
REMARK    8  A    between atoms: N_23  and  C_24
REMARK                            x       y       z     vdW  Elec       q    Type
REMARK                         _______ _______ _______ _____ _____    ______ ____
ROOT
ATOM      1  N   UNL     1       4.199   5.436  17.709  0.00  0.00    +0.000 N 
ATOM      2  C   UNL     1       4.567   4.132  17.922  0.00  0.00    +0.000 A 
ATOM      3  C   UNL     1       3.854   3.627  18.997  0.00  0.00    +0.000 A 
ATOM      4  C   UNL     1       3.078   4.719  19.519  0.00  0.00    +0.000 A 
ATOM      5  C   UNL     1       2.196   4.881  20.617  0.00  0.00    +0.000 A 
ATOM      6  C   UNL     1       1.600   6.129  20.871  0.00  0.00    +0.000 A 
ATOM      7  C   UNL     1       1.880   7.222  20.049  0.00  0.00    +0.000 A 
ATOM      8  C   UNL     1       2.737   7.081  18.948  0.00  0.00    +0.000 A 
ATOM      9  C   UNL     1       3.330   5.833  18.705  0.00  0.00    +0.000 A 
ENDROOT
BRANCH   7  10
ATOM     10  C   UNL     1       1.264   8.559  20.257  0.00  0.00    +0.000 C 
ATOM     11  O   UNL     1       0.857   8.816  21.389  0.00  0.00    +0.000 OA
ATOM     12  N   UNL     1       1.140   9.363  19.139  0.00  0.00    +0.000 N 
ATOM     13  H   UNL     1       1.332   8.950  18.236  0.00  0.00    +0.000 HD
BRANCH  12  14
ATOM     14  C   UNL     1       0.503  10.632  19.120  0.00  0.00    +0.000 A 
ATOM     15  C   UNL     1      -0.833  10.807  18.747  0.00  0.00    +0.000 A 
ATOM     16  C   UNL     1      -1.384  12.085  18.636  0.00  0.00    +0.000 A 
ATOM     17  C   UNL     1      -0.608  13.205  18.916  0.00  0.00    +0.000 A 
ATOM     18  C   UNL     1       0.709  13.042  19.345  0.00  0.00    +0.000 A 
ATOM     19  C   UNL     1       1.259  11.760  19.460  0.00  0.00    +0.000 A 
ENDBRANCH  12  14
ENDBRANCH   7  10
BRANCH   3  20
ATOM     20  C   UNL     1       3.961   2.238  19.432  0.00  0.00    +0.000 C 
ATOM     21  O   UNL     1       4.741   1.857  20.289  0.00  0.00    +0.000 OA
BRANCH  20  22
ATOM     22  O   UNL     1       3.165   1.373  18.756  0.00  0.00    +0.000 OA
ATOM     23  H   UNL     1       3.369   0.448  18.981  0.00  0.00    +0.000 HD
ENDBRANCH  20  22
ENDBRANCH   3  20
BRANCH   1  24
ATOM     24  C   UNL     1       4.562   6.218  16.518  0.00  0.00    +0.000 C 
BRANCH  24  31
ATOM     25  C   UNL     1       6.893   5.594  15.643  0.00  0.00    +0.000 A 
ATOM     26  C   UNL     1       7.694   4.910  14.714  0.00  0.00    +0.000 A 
ATOM     27  C   UNL     1       7.122   4.173  13.680  0.00  0.00    +0.000 A 
ATOM     28  C   UNL     1       5.743   4.110  13.568  0.00  0.00    +0.000 A 
ATOM     29 CL   UNL     1       5.030   3.234  12.271  0.00  0.00    +0.000 Cl
ATOM     30  C   UNL     1       4.931   4.756  14.499  0.00  0.00    +0.000 A 
ATOM     31  C   UNL     1       5.490   5.489  15.565  0.00  0.00    +0.000 A 
BRANCH  25  33
ATOM     32  C   UNL     1       7.675   5.720  17.881  0.00  0.00    +0.000 C 
ATOM     33  O   UNL     1       7.423   6.379  16.637  0.00  0.00    +0.000 OA
ENDBRANCH  25  33
ENDBRANCH  24  31
ENDBRANCH   1  24
TORSDOF 7
ENDMDL
MODEL 3
REMARK VINA RESULT:      -8.0      2.193      2.785
REMARK  Name = 
REMARK  8 active torsions:
REMARK  status: ('A' for Active; 'I' for Inactive)
REMARK    1  A    between atoms: C_1  and  O_2
REMARK    2  A    between atoms: O_2  and  C_3
REMARK    3  A    between atoms: C_9  and  C_10
REMARK    4  A    between atoms: C_10  and  N_11
REMARK    5  A    between atoms: C_13  and  C_14
REMARK    6  A    between atoms: C_14  and  O_16
REMARK    7  A    between atoms: C_20  and  C_21
REMARK    8  A    between atoms: N_23  and  C_24
REMARK                            x       y       z     vdW  Elec       q    Type
REMARK                         _______ _______ _______ _____ _____    ______ ____
ROOT
ATOM      1  N   UNL     1       4.059   5.584  17.843  0.00  0.00    +0.000 N 
ATOM      2  C   UNL     1       4.373   4.264  18.042  0.00  0.00    +0.000 A 
ATOM      3  C   UNL     1       3.624   3.771  19.097  0.00  0.00    +0.000 A 
ATOM      4  C   UNL     1       2.883   4.884  19.625  0.00  0.00    +0.000 A 
ATOM      5  C   UNL     1       1.990   5.063  20.711  0.00  0.00    +0.000 A 
ATOM      6  C   UNL     1       1.438   6.329  20.976  0.00  0.00    +0.000 A 
ATOM      7  C   UNL     1       1.772   7.422  20.175  0.00  0.00    +0.000 A 
ATOM      8  C   UNL     1       2.641   7.265  19.085  0.00  0.00    +0.000 A 
ATOM      9  C   UNL     1       3.190   6.000  18.832  0.00  0.00    +0.000 A 
ENDROOT
BRANCH   7  10
ATOM     10  C   UNL     1       1.204   8.779  20.394  0.00  0.00    +0.000 C 
ATOM     11  O   UNL     1       0.933   9.089  21.552  0.00  0.00    +0.000 OA
ATOM     12  N   UNL     1       0.966   9.540  19.264  0.00  0.00    +0.000 N 
ATOM     13  H   UNL     1       1.048   9.087  18.364  0.00  0.00    +0.000 HD
BRANCH  12  14
ATOM     14  C   UNL     1       0.351  10.819  19.264  0.00  0.00    +0.000 A 
ATOM     15  C   UNL     1       1.061  12.005  19.479  0.00  0.00    +0.000 A 
ATOM     16  C   UNL     1       0.398  13.228  19.581  0.00  0.00    +0.000 A 
ATOM     17  C   UNL     1      -0.986  13.284  19.450  0.00  0.00    +0.000 A 
ATOM     18  C   UNL     1      -1.700  12.118  19.177  0.00  0.00    +0.000 A 
ATOM     19  C   UNL     1      -1.033  10.892  19.071  0.00  0.00    +0.000 A 
ENDBRANCH  12  14
ENDBRANCH   7  10
BRANCH   3  20
ATOM     20  C   UNL     1       3.672   2.373  19.512  0.00  0.00    +0.000 C 
ATOM     21  O   UNL     1       2.706   1.628  19.490  0.00  0.00    +0.000 OA
BRANCH  20  22
ATOM     22  O   UNL     1       4.873   1.970  19.998  0.00  0.00    +0.000 OA
ATOM     23  H   UNL     1       5.078   1.056  19.734  0.00  0.00    +0.000 HD
ENDBRANCH  20  22
ENDBRANCH   3  20
BRANCH   1  24
ATOM     24  C   UNL     1       4.471   6.370  16.670  0.00  0.00    +0.000 C 
BRANCH  24  31
ATOM     25  C   UNL     1       6.848   5.787  15.899  0.00  0.00    +0.000 A 
ATOM     26  C   UNL     1       7.701   5.111  15.012  0.00  0.00    +0.000 A 
ATOM     27  C   UNL     1       7.188   4.351  13.963  0.00  0.00    +0.000 A 
ATOM     28  C   UNL     1       5.816   4.256  13.795  0.00  0.00    +0.000 A 
ATOM     29 CL   UNL     1       5.177   3.352  12.480  0.00  0.00    +0.000 Cl
ATOM     30  C   UNL     1       4.954   4.895  14.685  0.00  0.00    +0.000 A 
ATOM     31  C   UNL     1       5.451   5.651  15.765  0.00  0.00    +0.000 A 
BRANCH  25  33
ATOM     32  C   UNL     1       7.665   5.929  18.123  0.00  0.00    +0.000 C 
ATOM     33  O   UNL     1       7.320   6.594  16.905  0.00  0.00    +0.000 OA
ENDBRANCH  25  33
ENDBRANCH  24  31
ENDBRANCH   1  24
TORSDOF 7
ENDMDL
MODEL 4
REMARK VINA RESULT:      -7.9      1.061      1.362
REMARK  Name = 
REMARK  8 active torsions:
REMARK  status: ('A' for Active; 'I' for Inactive)
REMARK    1  A    between atoms: C_1  and  O_2
REMARK    2  A    between atoms: O_2  and  C_3
REMARK    3  A    between atoms: C_9  and  C_10
REMARK    4  A    between atoms: C_10  and  N_11
REMARK    5  A    between atoms: C_13  and  C_14
REMARK    6  A    between atoms: C_14  and  O_16
REMARK    7  A    between atoms: C_20  and  C_21
REMARK    8  A    between atoms: N_23  and  C_24
REMARK                            x       y       z     vdW  Elec       q    Type
REMARK                         _______ _______ _______ _____ _____    ______ ____
ROOT
ATOM      1  N   UNL     1       3.088   5.482  18.614  0.00  0.00    +0.000 N 
ATOM      2  C   UNL     1       2.981   4.354  19.387  0.00  0.00    +0.000 A 
ATOM      3  C   UNL     1       2.140   4.613  20.456  0.00  0.00    +0.000 A 
ATOM      4  C   UNL     1       1.794   6.006  20.374  0.00  0.00    +0.000 A 
ATOM      5  C   UNL     1       1.026   6.892  21.170  0.00  0.00    +0.000 A 
ATOM      6  C   UNL     1       0.901   8.245  20.809  0.00  0.00    +0.000 A 
ATOM      7  C   UNL     1       1.540   8.729  19.666  0.00  0.00    +0.000 A 
ATOM      8  C   UNL     1       2.292   7.866  18.854  0.00  0.00    +0.000 A 
ATOM      9  C   UNL     1       2.415   6.519  19.226  0.00  0.00    +0.000 A 
ENDROOT
BRANCH   7  10
ATOM     10  C   UNL     1       1.428  10.144  19.224  0.00  0.00    +0.000 C 
ATOM     11  O   UNL     1       1.901  10.424  18.125  0.00  0.00    +0.000 OA
ATOM     12  N   UNL     1       0.866  11.030  20.125  0.00  0.00    +0.000 N 
ATOM     13  H   UNL     1       0.704  10.705  21.069  0.00  0.00    +0.000 HD
BRANCH  12  14
ATOM     14  C   UNL     1       0.752  12.430  19.921  0.00  0.00    +0.000 A 
ATOM     15  C   UNL     1      -0.168  12.997  19.033  0.00  0.00    +0.000 A 
ATOM     16  C   UNL     1      -0.168  14.370  18.782  0.00  0.00    +0.000 A 
ATOM     17  C   UNL     1       0.743  15.197  19.430  0.00  0.00    +0.000 A 
ATOM     18  C   UNL     1       1.628  14.653  20.360  0.00  0.00    +0.000 A 
ATOM     19  C   UNL     1       1.624  13.277  20.615  0.00  0.00    +0.000 A 
ENDBRANCH  12  14
ENDBRANCH   7  10
BRANCH   3  20
ATOM     20  C   UNL     1       1.760   3.590  21.426  0.00  0.00    +0.000 C 
ATOM     21  O   UNL     1       2.399   3.346  22.436  0.00  0.00    +0.000 OA
BRANCH  20  22
ATOM     22  O   UNL     1       0.661   2.871  21.085  0.00  0.00    +0.000 OA
ATOM     23  H   UNL     1       0.551   2.823  20.119  0.00  0.00    +0.000 HD
ENDBRANCH  20  22
ENDBRANCH   3  20
BRANCH   1  24
ATOM     24  C   UNL     1       3.697   5.518  17.276  0.00  0.00    +0.000 C 
BRANCH  24  31
ATOM     25  C   UNL     1       5.836   4.596  16.198  0.00  0.00    +0.000 A 
ATOM     26  C   UNL     1       7.216   4.345  16.269  0.00  0.00    +0.000 A 
ATOM     27  C   UNL     1       7.945   4.667  17.412  0.00  0.00    +0.000 A 
ATOM     28  C   UNL     1       7.302   5.248  18.491  0.00  0.00    +0.000 A 
ATOM     29 CL   UNL     1       8.188   5.613  19.919  0.00  0.00    +0.000 Cl
ATOM     30  C   UNL     1       5.939   5.535  18.427  0.00  0.00    +0.000 A 
ATOM     31  C   UNL     1       5.187   5.236  17.273  0.00  0.00    +0.000 A 
BRANCH  25  33
ATOM     32  C   UNL     1       5.798   3.985  13.904  0.00  0.00    +0.000 C 
ATOM     33  O   UNL     1       5.076   4.236  15.113  0.00  0.00    +0.000 OA
ENDBRANCH  25  33
ENDBRANCH  24  31
ENDBRANCH   1  24
TORSDOF 7
ENDMDL
MODEL 5
REMARK VINA RESULT:      -7.8      3.200      8.778
REMARK  Name = 
REMARK  8 active torsions:
REMARK  status: ('A' for Active; 'I' for Inactive)
REMARK    1  A    between atoms: C_1  and  O_2
REMARK    2  A    between atoms: O_2  and  C_3
REMARK    3  A    between atoms: C_9  and  C_10
REMARK    4  A    between atoms: C_10  and  N_11
REMARK    5  A    between atoms: C_13  and  C_14
REMARK    6  A    between atoms: C_14  and  O_16
REMARK    7  A    between atoms: C_20  and  C_21
REMARK    8  A    between atoms: N_23  and  C_24
REMARK                            x       y       z     vdW  Elec       q    Type
REMARK                         _______ _______ _______ _____ _____    ______ ____
ROOT
ATOM      1  N   UNL     1      -0.233  11.433  19.591  0.00  0.00    +0.000 N 
ATOM      2  C   UNL     1      -0.900  11.616  20.775  0.00  0.00    +0.000 A 
ATOM      3  C   UNL     1      -0.519  10.631  21.670  0.00  0.00    +0.000 A 
ATOM      4  C   UNL     1       0.359   9.747  20.953  0.00  0.00    +0.000 A 
ATOM      5  C   UNL     1       1.039   8.544  21.269  0.00  0.00    +0.000 A 
ATOM      6  C   UNL     1       1.827   7.899  20.300  0.00  0.00    +0.000 A 
ATOM      7  C   UNL     1       1.940   8.434  19.016  0.00  0.00    +0.000 A 
ATOM      8  C   UNL     1       1.290   9.633  18.686  0.00  0.00    +0.000 A 
ATOM      9  C   UNL     1       0.502  10.266  19.658  0.00  0.00    +0.000 A 
ENDROOT
BRANCH   7  10
ATOM     10  C   UNL     1       2.775   7.807  17.957  0.00  0.00    +0.000 C 
ATOM     11  O   UNL     1       2.764   8.340  16.849  0.00  0.00    +0.000 OA
ATOM     12  N   UNL     1       3.430   6.637  18.298  0.00  0.00    +0.000 N 
ATOM     13  H   UNL     1       3.191   6.202  19.179  0.00  0.00    +0.000 HD
BRANCH  12  14
ATOM     14  C   UNL     1       4.200   5.849  17.403  0.00  0.00    +0.000 A 
ATOM     15  C   UNL     1       5.125   6.399  16.509  0.00  0.00    +0.000 A 
ATOM     16  C   UNL     1       5.778   5.597  15.572  0.00  0.00    +0.000 A 
ATOM     17  C   UNL     1       5.526   4.230  15.528  0.00  0.00    +0.000 A 
ATOM     18  C   UNL     1       4.649   3.660  16.451  0.00  0.00    +0.000 A 
ATOM     19  C   UNL     1       3.999   4.465  17.394  0.00  0.00    +0.000 A 
ENDBRANCH  12  14
ENDBRANCH   7  10
BRANCH   3  20
ATOM     20  C   UNL     1      -0.995  10.592  23.050  0.00  0.00    +0.000 C 
ATOM     21  O   UNL     1      -1.913  11.278  23.467  0.00  0.00    +0.000 OA
BRANCH  20  22
ATOM     22  O   UNL     1      -0.288   9.773  23.867  0.00  0.00    +0.000 OA
ATOM     23  H   UNL     1       0.205   9.102  23.362  0.00  0.00    +0.000 HD
ENDBRANCH  20  22
ENDBRANCH   3  20
BRANCH   1  24
ATOM     24  C   UNL     1      -0.198  12.413  18.495  0.00  0.00    +0.000 C 
BRANCH  24  31
ATOM     25  C   UNL     1       0.297  14.807  19.276  0.00  0.00    +0.000 A 
ATOM     26  C   UNL     1       1.214  15.854  19.461  0.00  0.00    +0.000 A 
ATOM     27  C   UNL     1       2.545  15.718  19.074  0.00  0.00    +0.000 A 
ATOM     28  C   UNL     1       2.973  14.531  18.504  0.00  0.00    +0.000 A 
ATOM     29 CL   UNL     1       4.606  14.369  17.989  0.00  0.00    +0.000 Cl
ATOM     30  C   UNL     1       2.084  13.469  18.341  0.00  0.00    +0.000 A 
ATOM     31  C   UNL     1       0.739  13.578  18.745  0.00  0.00    +0.000 A 
BRANCH  25  33
ATOM     32  C   UNL     1      -1.407  16.136  20.258  0.00  0.00    +0.000 C 
ATOM     33  O   UNL     1      -1.035  14.929  19.588  0.00  0.00    +0.000 OA
ENDBRANCH  25  33
ENDBRANCH  24  31
ENDBRANCH   1  24
TORSDOF 7
ENDMDL
MODEL 6
REMARK VINA RESULT:      -7.7      2.447      3.110
REMARK  Name = 
REMARK  8 active torsions:
REMARK  status: ('A' for Active; 'I' for Inactive)
REMARK    1  A    between atoms: C_1  and  O_2
REMARK    2  A    between atoms: O_2  and  C_3
REMARK    3  A    between atoms: C_9  and  C_10
REMARK    4  A    between atoms: C_10  and  N_11
REMARK    5  A    between atoms: C_13  and  C_14
REMARK    6  A    between atoms: C_14  and  O_16
REMARK    7  A    between atoms: C_20  and  C_21
REMARK    8  A    between atoms: N_23  and  C_24
REMARK                            x       y       z     vdW  Elec       q    Type
REMARK                         _______ _______ _______ _____ _____    ______ ____
ROOT
ATOM      1  N   UNL     1       4.028   5.907  17.909  0.00  0.00    +0.000 N 
ATOM      2  C   UNL     1       4.363   4.619  18.236  0.00  0.00    +0.000 A 
ATOM      3  C   UNL     1       3.587   4.202  19.304  0.00  0.00    +0.000 A 
ATOM      4  C   UNL     1       2.802   5.339  19.704  0.00  0.00    +0.000 A 
ATOM      5  C   UNL     1       1.866   5.591  20.738  0.00  0.00    +0.000 A 
ATOM      6  C   UNL     1       1.278   6.862  20.869  0.00  0.00    +0.000 A 
ATOM      7  C   UNL     1       1.618   7.887  19.986  0.00  0.00    +0.000 A 
ATOM      8  C   UNL     1       2.529   7.656  18.945  0.00  0.00    +0.000 A 
ATOM      9  C   UNL     1       3.115   6.387  18.825  0.00  0.00    +0.000 A 
ENDROOT
BRANCH   7  10
ATOM     10  C   UNL     1       1.013   9.244  20.063  0.00  0.00    +0.000 C 
ATOM     11  O   UNL     1       1.510  10.117  19.356  0.00  0.00    +0.000 OA
ATOM     12  N   UNL     1      -0.008   9.414  20.981  0.00  0.00    +0.000 N 
ATOM     13  H   UNL     1      -0.181   8.666  21.639  0.00  0.00    +0.000 HD
BRANCH  12  14
ATOM     14  C   UNL     1      -0.648  10.650  21.261  0.00  0.00    +0.000 A 
ATOM     15  C   UNL     1      -1.254  11.433  20.273  0.00  0.00    +0.000 A 
ATOM     16  C   UNL     1      -1.772  12.693  20.577  0.00  0.00    +0.000 A 
ATOM     17  C   UNL     1      -1.707  13.178  21.879  0.00  0.00    +0.000 A 
ATOM     18  C   UNL     1      -1.158  12.384  22.884  0.00  0.00    +0.000 A 
ATOM     19  C   UNL     1      -0.642  11.118  22.580  0.00  0.00    +0.000 A 
ENDBRANCH  12  14
ENDBRANCH   7  10
BRANCH   3  20
ATOM     20  C   UNL     1       3.649   2.848  19.844  0.00  0.00    +0.000 C 
ATOM     21  O   UNL     1       2.678   2.244  20.269  0.00  0.00    +0.000 OA
BRANCH  20  22
ATOM     22  O   UNL     1       4.898   2.322  19.904  0.00  0.00    +0.000 OA
ATOM     23  H   UNL     1       5.365   2.598  20.712  0.00  0.00    +0.000 HD
ENDBRANCH  20  22
ENDBRANCH   3  20
BRANCH   1  24
ATOM     24  C   UNL     1       4.466   6.596  16.685  0.00  0.00    +0.000 C 
BRANCH  24  31
ATOM     25  C   UNL     1       6.846   5.875  16.050  0.00  0.00    +0.000 A 
ATOM     26  C   UNL     1       7.705   5.128  15.229  0.00  0.00    +0.000 A 
ATOM     27  C   UNL     1       7.205   4.355  14.183  0.00  0.00    +0.000 A 
ATOM     28  C   UNL     1       5.840   4.319  13.953  0.00  0.00    +0.000 A 
ATOM     29 CL   UNL     1       5.220   3.397  12.640  0.00  0.00    +0.000 Cl
ATOM     30  C   UNL     1       4.969   5.029  14.778  0.00  0.00    +0.000 A 
ATOM     31  C   UNL     1       5.452   5.799  15.854  0.00  0.00    +0.000 A 
BRANCH  25  33
ATOM     32  C   UNL     1       7.663   6.044  18.272  0.00  0.00    +0.000 C 
ATOM     33  O   UNL     1       7.308   6.695  17.050  0.00  0.00    +0.000 OA
ENDBRANCH  25  33
ENDBRANCH  24  31
ENDBRANCH   1  24
TORSDOF 7
ENDMDL
MODEL 7
REMARK VINA RESULT:      -7.7      3.422      9.159
REMARK  Name = 
REMARK  8 active torsions:
REMARK  status: ('A' for Active; 'I' for Inactive)
REMARK    1  A    between atoms: C_1  and  O_2
REMARK    2  A    between atoms: O_2  and  C_3
REMARK    3  A    between atoms: C_9  and  C_10
REMARK    4  A    between atoms: C_10  and  N_11
REMARK    5  A    between atoms: C_13  and  C_14
REMARK    6  A    between atoms: C_14  and  O_16
REMARK    7  A    between atoms: C_20  and  C_21
REMARK    8  A    between atoms: N_23  and  C_24
REMARK                            x       y       z     vdW  Elec       q    Type
REMARK                         _______ _______ _______ _____ _____    ______ ____
ROOT
ATOM      1  N   UNL     1      -0.326  12.618  19.503  0.00  0.00    +0.000 N 
ATOM      2  C   UNL     1      -1.013  13.046  20.610  0.00  0.00    +0.000 A 
ATOM      3  C   UNL     1      -0.861  12.119  21.628  0.00  0.00    +0.000 A 
ATOM      4  C   UNL     1      -0.114  11.023  21.071  0.00  0.00    +0.000 A 
ATOM      5  C   UNL     1       0.324   9.766  21.558  0.00  0.00    +0.000 A 
ATOM      6  C   UNL     1       1.038   8.890  20.720  0.00  0.00    +0.000 A 
ATOM      7  C   UNL     1       1.313   9.249  19.400  0.00  0.00    +0.000 A 
ATOM      8  C   UNL     1       0.903  10.495  18.902  0.00  0.00    +0.000 A 
ATOM      9  C   UNL     1       0.187  11.360  19.743  0.00  0.00    +0.000 A 
ENDROOT
BRANCH   7  10
ATOM     10  C   UNL     1       2.080   8.373  18.475  0.00  0.00    +0.000 C 
ATOM     11  O   UNL     1       2.200   8.758  17.314  0.00  0.00    +0.000 OA
ATOM     12  N   UNL     1       2.524   7.169  18.990  0.00  0.00    +0.000 N 
ATOM     13  H   UNL     1       2.183   6.890  19.901  0.00  0.00    +0.000 HD
BRANCH  12  14
ATOM     14  C   UNL     1       3.195   6.166  18.243  0.00  0.00    +0.000 A 
ATOM     15  C   UNL     1       4.418   6.387  17.600  0.00  0.00    +0.000 A 
ATOM     16  C   UNL     1       4.985   5.406  16.785  0.00  0.00    +0.000 A 
ATOM     17  C   UNL     1       4.344   4.184  16.616  0.00  0.00    +0.000 A 
ATOM     18  C   UNL     1       3.154   3.929  17.297  0.00  0.00    +0.000 A 
ATOM     19  C   UNL     1       2.588   4.912  18.118  0.00  0.00    +0.000 A 
ENDBRANCH  12  14
ENDBRANCH   7  10
BRANCH   3  20
ATOM     20  C   UNL     1      -1.410  12.319  22.965  0.00  0.00    +0.000 C 
ATOM     21  O   UNL     1      -2.310  11.642  23.434  0.00  0.00    +0.000 OA
BRANCH  20  22
ATOM     22  O   UNL     1      -0.885  13.373  23.638  0.00  0.00    +0.000 OA
ATOM     23  H   UNL     1      -1.500  14.127  23.659  0.00  0.00    +0.000 HD
ENDBRANCH  20  22
ENDBRANCH   3  20
BRANCH   1  24
ATOM     24  C   UNL     1      -0.060  13.447  18.318  0.00  0.00    +0.000 C 
BRANCH  24  31
ATOM     25  C   UNL     1       0.808  15.801  18.859  0.00  0.00    +0.000 A 
ATOM     26  C   UNL     1       1.886  16.690  19.002  0.00  0.00    +0.000 A 
ATOM     27  C   UNL     1       3.193  16.279  18.753  0.00  0.00    +0.000 A 
ATOM     28  C   UNL     1       3.435  14.972  18.362  0.00  0.00    +0.000 A 
ATOM     29 CL   UNL     1       5.042  14.468  18.015  0.00  0.00    +0.000 Cl
ATOM     30  C   UNL     1       2.381  14.066  18.246  0.00  0.00    +0.000 A 
ATOM     31  C   UNL     1       1.054  14.456  18.514  0.00  0.00    +0.000 A 
BRANCH  25  33
ATOM     32  C   UNL     1      -0.898  17.362  18.325  0.00  0.00    +0.000 C 
ATOM     33  O   UNL     1      -0.497  16.189  19.036  0.00  0.00    +0.000 OA
ENDBRANCH  25  33
ENDBRANCH  24  31
ENDBRANCH   1  24
TORSDOF 7
ENDMDL
MODEL 8
REMARK VINA RESULT:      -7.7      2.486      3.052
REMARK  Name = 
REMARK  8 active torsions:
REMARK  status: ('A' for Active; 'I' for Inactive)
REMARK    1  A    between atoms: C_1  and  O_2
REMARK    2  A    between atoms: O_2  and  C_3
REMARK    3  A    between atoms: C_9  and  C_10
REMARK    4  A    between atoms: C_10  and  N_11
REMARK    5  A    between atoms: C_13  and  C_14
REMARK    6  A    between atoms: C_14  and  O_16
REMARK    7  A    between atoms: C_20  and  C_21
REMARK    8  A    between atoms: N_23  and  C_24
REMARK                            x       y       z     vdW  Elec       q    Type
REMARK                         _______ _______ _______ _____ _____    ______ ____
ROOT
ATOM      1  N   UNL     1       4.060   5.885  18.097  0.00  0.00    +0.000 N 
ATOM      2  C   UNL     1       4.393   4.594  18.418  0.00  0.00    +0.000 A 
ATOM      3  C   UNL     1       3.578   4.156  19.450  0.00  0.00    +0.000 A 
ATOM      4  C   UNL     1       2.770   5.281  19.835  0.00  0.00    +0.000 A 
ATOM      5  C   UNL     1       1.793   5.512  20.835  0.00  0.00    +0.000 A 
ATOM      6  C   UNL     1       1.190   6.776  20.962  0.00  0.00    +0.000 A 
ATOM      7  C   UNL     1       1.556   7.817  20.107  0.00  0.00    +0.000 A 
ATOM      8  C   UNL     1       2.509   7.607  19.099  0.00  0.00    +0.000 A 
ATOM      9  C   UNL     1       3.109   6.345  18.984  0.00  0.00    +0.000 A 
ENDROOT
BRANCH   7  10
ATOM     10  C   UNL     1       0.939   9.168  20.181  0.00  0.00    +0.000 C 
ATOM     11  O   UNL     1       1.364  10.019  19.402  0.00  0.00    +0.000 OA
ATOM     12  N   UNL     1      -0.007   9.362  21.171  0.00  0.00    +0.000 N 
ATOM     13  H   UNL     1      -0.115   8.639  21.869  0.00  0.00    +0.000 HD
BRANCH  12  14
ATOM     14  C   UNL     1      -0.642  10.600  21.454  0.00  0.00    +0.000 A 
ATOM     15  C   UNL     1      -0.792  11.099  22.752  0.00  0.00    +0.000 A 
ATOM     16  C   UNL     1      -1.521  12.265  22.991  0.00  0.00    +0.000 A 
ATOM     17  C   UNL     1      -2.094  12.958  21.930  0.00  0.00    +0.000 A 
ATOM     18  C   UNL     1      -1.903  12.504  20.625  0.00  0.00    +0.000 A 
ATOM     19  C   UNL     1      -1.168  11.336  20.386  0.00  0.00    +0.000 A 
ENDBRANCH  12  14
ENDBRANCH   7  10
BRANCH   3  20
ATOM     20  C   UNL     1       3.630   2.795  19.972  0.00  0.00    +0.000 C 
ATOM     21  O   UNL     1       4.667   2.220  20.259  0.00  0.00    +0.000 OA
BRANCH  20  22
ATOM     22  O   UNL     1       2.425   2.177  20.054  0.00  0.00    +0.000 OA
ATOM     23  H   UNL     1       2.462   1.272  19.698  0.00  0.00    +0.000 HD
ENDBRANCH  20  22
ENDBRANCH   3  20
BRANCH   1  24
ATOM     24  C   UNL     1       4.540   6.594  16.902  0.00  0.00    +0.000 C 
BRANCH  24  31
ATOM     25  C   UNL     1       6.864   5.738  16.230  0.00  0.00    +0.000 A 
ATOM     26  C   UNL     1       7.671   4.972  15.373  0.00  0.00    +0.000 A 
ATOM     27  C   UNL     1       7.120   4.287  14.293  0.00  0.00    +0.000 A 
ATOM     28  C   UNL     1       5.756   4.358  14.063  0.00  0.00    +0.000 A 
ATOM     29 CL   UNL     1       5.075   3.546  12.709  0.00  0.00    +0.000 Cl
ATOM     30  C   UNL     1       4.935   5.088  14.921  0.00  0.00    +0.000 A 
ATOM     31  C   UNL     1       5.469   5.771  16.032  0.00  0.00    +0.000 A 
BRANCH  25  33
ATOM     32  C   UNL     1       7.712   5.739  18.447  0.00  0.00    +0.000 C 
ATOM     33  O   UNL     1       7.382   6.475  17.267  0.00  0.00    +0.000 OA
ENDBRANCH  25  33
ENDBRANCH  24  31
ENDBRANCH   1  24
TORSDOF 7
ENDMDL
MODEL 9
REMARK VINA RESULT:      -7.7      3.084      8.430
REMARK  Name = 
REMARK  8 active torsions:
REMARK  status: ('A' for Active; 'I' for Inactive)
REMARK    1  A    between atoms: C_1  and  O_2
REMARK    2  A    between atoms: O_2  and  C_3
REMARK    3  A    between atoms: C_9  and  C_10
REMARK    4  A    between atoms: C_10  and  N_11
REMARK    5  A    between atoms: C_13  and  C_14
REMARK    6  A    between atoms: C_14  and  O_16
REMARK    7  A    between atoms: C_20  and  C_21
REMARK    8  A    between atoms: N_23  and  C_24
REMARK                            x       y       z     vdW  Elec       q    Type
REMARK                         _______ _______ _______ _____ _____    ______ ____
ROOT
ATOM      1  N   UNL     1       1.110  10.304  19.639  0.00  0.00    +0.000 N 
ATOM      2  C   UNL     1       0.446  10.626  20.794  0.00  0.00    +0.000 A 
ATOM      3  C   UNL     1       0.517   9.558  21.673  0.00  0.00    +0.000 A 
ATOM      4  C   UNL     1       1.183   8.496  20.970  0.00  0.00    +0.000 A 
ATOM      5  C   UNL     1       1.519   7.154  21.278  0.00  0.00    +0.000 A 
ATOM      6  C   UNL     1       2.172   6.349  20.327  0.00  0.00    +0.000 A 
ATOM      7  C   UNL     1       2.488   6.865  19.069  0.00  0.00    +0.000 A 
ATOM      8  C   UNL     1       2.179   8.196  18.749  0.00  0.00    +0.000 A 
ATOM      9  C   UNL     1       1.523   8.988  19.702  0.00  0.00    +0.000 A 
ENDROOT
BRANCH   7  10
ATOM     10  C   UNL     1       3.195   6.069  18.031  0.00  0.00    +0.000 C 
ATOM     11  O   UNL     1       2.645   5.038  17.648  0.00  0.00    +0.000 OA
ATOM     12  N   UNL     1       4.443   6.524  17.647  0.00  0.00    +0.000 N 
ATOM     13  H   UNL     1       4.861   7.270  18.187  0.00  0.00    +0.000 HD
BRANCH  12  14
ATOM     14  C   UNL     1       5.305   5.856  16.738  0.00  0.00    +0.000 A 
ATOM     15  C   UNL     1       5.115   5.879  15.353  0.00  0.00    +0.000 A 
ATOM     16  C   UNL     1       5.921   5.117  14.506  0.00  0.00    +0.000 A 
ATOM     17  C   UNL     1       6.942   4.333  15.035  0.00  0.00    +0.000 A 
ATOM     18  C   UNL     1       7.179   4.345  16.409  0.00  0.00    +0.000 A 
ATOM     19  C   UNL     1       6.372   5.114  17.257  0.00  0.00    +0.000 A 
ENDBRANCH  12  14
ENDBRANCH   7  10
BRANCH   3  20
ATOM     20  C   UNL     1      -0.030   9.613  23.026  0.00  0.00    +0.000 C 
ATOM     21  O   UNL     1       0.655   9.565  24.034  0.00  0.00    +0.000 OA
BRANCH  20  22
ATOM     22  O   UNL     1      -1.384   9.655  23.084  0.00  0.00    +0.000 OA
ATOM     23  H   UNL     1      -1.784   9.572  22.201  0.00  0.00    +0.000 HD
ENDBRANCH  20  22
ENDBRANCH   3  20
BRANCH   1  24
ATOM     24  C   UNL     1       1.452  11.265  18.579  0.00  0.00    +0.000 C 
BRANCH  24  31
ATOM     25  C   UNL     1      -0.089  13.318  18.618  0.00  0.00    +0.000 A 
ATOM     26  C   UNL     1      -0.303  14.663  18.957  0.00  0.00    +0.000 A 
ATOM     27  C   UNL     1       0.702  15.422  19.553  0.00  0.00    +0.000 A 
ATOM     28  C   UNL     1       1.930  14.840  19.819  0.00  0.00    +0.000 A 
ATOM     29 CL   UNL     1       3.188  15.780  20.519  0.00  0.00    +0.000 Cl
ATOM     30  C   UNL     1       2.151  13.496  19.519  0.00  0.00    +0.000 A 
ATOM     31  C   UNL     1       1.141  12.706  18.936  0.00  0.00    +0.000 A 
BRANCH  25  33
ATOM     32  C   UNL     1      -2.132  12.120  18.781  0.00  0.00    +0.000 C 
ATOM     33  O   UNL     1      -1.035  12.559  17.975  0.00  0.00    +0.000 OA
ENDBRANCH  25  33
ENDBRANCH  24  31
ENDBRANCH   1  24
TORSDOF 7
ENDMDL
