MODEL 1
REMARK VINA RESULT:      -7.4      0.000      0.000
REMARK  Name = 
REMARK  11 active torsions:
REMARK  status: ('A' for Active; 'I' for Inactive)
REMARK    1  A    between atoms: C_1  and  C_2
REMARK    2  A    between atoms: C_2  and  C_4
REMARK    3  A    between atoms: C_6  and  C_7
REMARK    4  A    between atoms: C_10  and  O_11
REMARK    5  A    between atoms: O_11  and  C_12
REMARK    6  A    between atoms: C_12  and  C_13
REMARK    7  A    between atoms: C_13  and  O_14
REMARK    8  A    between atoms: C_13  and  C_15
REMARK    9  A    between atoms: C_15  and  N_16
REMARK   10  A    between atoms: N_19  and  C_20
REMARK   11  A    between atoms: C_25  and  C_26
REMARK                            x       y       z     vdW  Elec       q    Type
REMARK                         _______ _______ _______ _____ _____    ______ ____
ROOT
ATOM      1  C   UNL     1       3.167   2.305  18.385  0.00  0.00    +0.000 C 
ENDROOT
BRANCH   1   2
ATOM      2  O   UNL     1       2.129   1.508  17.812  0.00  0.00    +0.000 OA
ATOM      3  H   UNL     1       2.390   0.574  17.921  0.00  0.00    +0.000 HD
ENDBRANCH   1   2
BRANCH   1   4
ATOM      4  C   UNL     1       4.341   2.578  17.440  0.00  0.00    +0.000 C 
BRANCH   4   5
ATOM      5  O   UNL     1       4.248   3.849  16.816  0.00  0.00    +0.000 OA
BRANCH   5  12
ATOM      6  C   UNL     1       6.501   4.908  16.284  0.00  0.00    +0.000 A 
ATOM      7  C   UNL     1       7.363   5.214  15.208  0.00  0.00    +0.000 A 
ATOM      8  C   UNL     1       7.066   4.861  13.885  0.00  0.00    +0.000 A 
ATOM      9  C   UNL     1       8.035   5.165  12.782  0.00  0.00    +0.000 C 
ATOM     10  C   UNL     1       5.867   4.210  13.618  0.00  0.00    +0.000 A 
ATOM     11  C   UNL     1       4.995   3.909  14.663  0.00  0.00    +0.000 A 
ATOM     12  C   UNL     1       5.287   4.242  16.003  0.00  0.00    +0.000 A 
BRANCH   6  14
ATOM     13  C   UNL     1       7.468   6.691  17.916  0.00  0.00    +0.000 C 
ATOM     14  C   UNL     1       7.068   5.260  17.632  0.00  0.00    +0.000 C 
ATOM     15  O   UNL     1       7.313   4.393  18.466  0.00  0.00    +0.000 OA
ENDBRANCH   6  14
ENDBRANCH   5  12
ENDBRANCH   4   5
ENDBRANCH   1   4
BRANCH   1  16
ATOM     16  C   UNL     1       2.617   3.663  18.888  0.00  0.00    +0.000 C 
BRANCH  16  17
ATOM     17  N   UNL     1       3.308   4.300  20.041  0.00  0.00    +0.000 NA
ATOM     18  C   UNL     1       3.996   5.563  19.697  0.00  0.00    +0.000 C 
ATOM     19  C   UNL     1       3.069   6.677  19.175  0.00  0.00    +0.000 C 
ATOM     20  N   UNL     1       1.968   6.930  20.115  0.00  0.00    +0.000 N 
ATOM     21  C   UNL     1       1.290   5.739  20.668  0.00  0.00    +0.000 C 
ATOM     22  C   UNL     1       2.315   4.651  21.089  0.00  0.00    +0.000 C 
BRANCH  20  23
ATOM     23  C   UNL     1       1.457   8.211  20.297  0.00  0.00    +0.000 A 
ATOM     24  C   UNL     1       1.120   8.609  21.611  0.00  0.00    +0.000 A 
ATOM     25  C   UNL     1       0.697   9.904  21.924  0.00  0.00    +0.000 A 
ATOM     26  C   UNL     1       0.612  10.856  20.924  0.00  0.00    +0.000 A 
ATOM     27  C   UNL     1       0.915  10.503  19.614  0.00  0.00    +0.000 A 
ATOM     28  C   UNL     1       1.307   9.182  19.280  0.00  0.00    +0.000 A 
ATOM     29  C   UNL     1       1.488   8.911  17.806  0.00  0.00    +0.000 C 
ENDBRANCH  20  23
ENDBRANCH  16  17
ENDBRANCH   1  16
TORSDOF 8
ENDMDL
MODEL 2
REMARK VINA RESULT:      -7.3      3.627      6.194
REMARK  Name = 
REMARK  11 active torsions:
REMARK  status: ('A' for Active; 'I' for Inactive)
REMARK    1  A    between atoms: C_1  and  C_2
REMARK    2  A    between atoms: C_2  and  C_4
REMARK    3  A    between atoms: C_6  and  C_7
REMARK    4  A    between atoms: C_10  and  O_11
REMARK    5  A    between atoms: O_11  and  C_12
REMARK    6  A    between atoms: C_12  and  C_13
REMARK    7  A    between atoms: C_13  and  O_14
REMARK    8  A    between atoms: C_13  and  C_15
REMARK    9  A    between atoms: C_15  and  N_16
REMARK   10  A    between atoms: N_19  and  C_20
REMARK   11  A    between atoms: C_25  and  C_26
REMARK                            x       y       z     vdW  Elec       q    Type
REMARK                         _______ _______ _______ _____ _____    ______ ____
ROOT
ATOM      1  C   UNL     1       1.308   9.277  18.135  0.00  0.00    +0.000 C 
ENDROOT
BRANCH   1   2
ATOM      2  O   UNL     1       2.077  10.113  17.269  0.00  0.00    +0.000 OA
ATOM      3  H   UNL     1       1.855  11.037  17.489  0.00  0.00    +0.000 HD
ENDBRANCH   1   2
BRANCH   1   4
ATOM      4  C   UNL     1       2.112   8.154  18.798  0.00  0.00    +0.000 C 
BRANCH   4   5
ATOM      5  O   UNL     1       3.172   7.691  17.976  0.00  0.00    +0.000 OA
BRANCH   5  12
ATOM      6  C   UNL     1       4.218   5.562  17.055  0.00  0.00    +0.000 A 
ATOM      7  C   UNL     1       4.102   4.155  17.094  0.00  0.00    +0.000 A 
ATOM      8  C   UNL     1       3.154   3.502  17.892  0.00  0.00    +0.000 A 
ATOM      9  C   UNL     1       3.100   2.005  17.937  0.00  0.00    +0.000 C 
ATOM     10  C   UNL     1       2.278   4.268  18.653  0.00  0.00    +0.000 A 
ATOM     11  C   UNL     1       2.365   5.658  18.620  0.00  0.00    +0.000 A 
ATOM     12  C   UNL     1       3.327   6.331  17.835  0.00  0.00    +0.000 A 
BRANCH   6  14
ATOM     13  C   UNL     1       5.815   5.260  15.021  0.00  0.00    +0.000 C 
ATOM     14  C   UNL     1       5.382   6.050  16.235  0.00  0.00    +0.000 C 
ATOM     15  O   UNL     1       6.053   7.014  16.594  0.00  0.00    +0.000 OA
ENDBRANCH   6  14
ENDBRANCH   5  12
ENDBRANCH   4   5
ENDBRANCH   1   4
BRANCH   1  16
ATOM     16  C   UNL     1       0.616  10.107  19.244  0.00  0.00    +0.000 C 
BRANCH  16  17
ATOM     17  N   UNL     1       0.618  11.587  19.097  0.00  0.00    +0.000 NA
ATOM     18  C   UNL     1      -0.705  12.153  18.761  0.00  0.00    +0.000 C 
ATOM     19  C   UNL     1      -1.798  11.901  19.817  0.00  0.00    +0.000 C 
ATOM     20  N   UNL     1      -1.366  12.358  21.144  0.00  0.00    +0.000 N 
ATOM     21  C   UNL     1       0.011  11.996  21.547  0.00  0.00    +0.000 C 
ATOM     22  C   UNL     1       1.015  12.217  20.384  0.00  0.00    +0.000 C 
BRANCH  20  23
ATOM     23  C   UNL     1      -2.270  12.904  22.048  0.00  0.00    +0.000 A 
ATOM     24  C   UNL     1      -2.809  12.055  23.042  0.00  0.00    +0.000 A 
ATOM     25  C   UNL     1      -3.645  12.520  24.062  0.00  0.00    +0.000 A 
ATOM     26  C   UNL     1      -3.958  13.865  24.130  0.00  0.00    +0.000 A 
ATOM     27  C   UNL     1      -3.466  14.733  23.161  0.00  0.00    +0.000 A 
ATOM     28  C   UNL     1      -2.651  14.265  22.100  0.00  0.00    +0.000 A 
ATOM     29  C   UNL     1      -2.289  15.294  21.056  0.00  0.00    +0.000 C 
ENDBRANCH  20  23
ENDBRANCH  16  17
ENDBRANCH   1  16
TORSDOF 8
ENDMDL
MODEL 3
REMARK VINA RESULT:      -7.3      6.100      8.095
REMARK  Name = 
REMARK  11 active torsions:
REMARK  status: ('A' for Active; 'I' for Inactive)
REMARK    1  A    between atoms: C_1  and  C_2
REMARK    2  A    between atoms: C_2  and  C_4
REMARK    3  A    between atoms: C_6  and  C_7
REMARK    4  A    between atoms: C_10  and  O_11
REMARK    5  A    between atoms: O_11  and  C_12
REMARK    6  A    between atoms: C_12  and  C_13
REMARK    7  A    between atoms: C_13  and  O_14
REMARK    8  A    between atoms: C_13  and  C_15
REMARK    9  A    between atoms: C_15  and  N_16
REMARK   10  A    between atoms: N_19  and  C_20
REMARK   11  A    between atoms: C_25  and  C_26
REMARK                            x       y       z     vdW  Elec       q    Type
REMARK                         _______ _______ _______ _____ _____    ______ ____
ROOT
ATOM      1  C   UNL     1       8.587   8.854  18.068  0.00  0.00    +0.000 C 
ENDROOT
BRANCH   1   2
ATOM      2  O   UNL     1       8.891   8.276  19.339  0.00  0.00    +0.000 OA
ATOM      3  H   UNL     1       9.784   7.890  19.273  0.00  0.00    +0.000 HD
ENDBRANCH   1   2
BRANCH   1   4
ATOM      4  C   UNL     1       7.362   8.243  17.380  0.00  0.00    +0.000 C 
BRANCH   4   5
ATOM      5  O   UNL     1       7.673   7.043  16.690  0.00  0.00    +0.000 OA
BRANCH   5  12
ATOM      6  C   UNL     1       6.316   5.072  15.824  0.00  0.00    +0.000 A 
ATOM      7  C   UNL     1       5.346   4.125  16.221  0.00  0.00    +0.000 A 
ATOM      8  C   UNL     1       4.850   4.062  17.530  0.00  0.00    +0.000 A 
ATOM      9  C   UNL     1       3.857   3.009  17.917  0.00  0.00    +0.000 C 
ATOM     10  C   UNL     1       5.308   4.984  18.464  0.00  0.00    +0.000 A 
ATOM     11  C   UNL     1       6.255   5.936  18.092  0.00  0.00    +0.000 A 
ATOM     12  C   UNL     1       6.779   6.001  16.782  0.00  0.00    +0.000 A 
BRANCH   6  14
ATOM     13  C   UNL     1       6.173   3.813  13.550  0.00  0.00    +0.000 C 
ATOM     14  C   UNL     1       6.804   4.882  14.414  0.00  0.00    +0.000 C 
ATOM     15  O   UNL     1       7.775   5.500  13.987  0.00  0.00    +0.000 OA
ENDBRANCH   6  14
ENDBRANCH   5  12
ENDBRANCH   4   5
ENDBRANCH   1   4
BRANCH   1  16
ATOM     16  C   UNL     1       8.372  10.384  18.186  0.00  0.00    +0.000 C 
BRANCH  16  17
ATOM     17  N   UNL     1       9.528  11.266  17.869  0.00  0.00    +0.000 NA
ATOM     18  C   UNL     1       9.180  12.702  17.809  0.00  0.00    +0.000 C 
ATOM     19  C   UNL     1       8.634  13.285  19.126  0.00  0.00    +0.000 C 
ATOM     20  N   UNL     1       9.556  13.025  20.240  0.00  0.00    +0.000 N 
ATOM     21  C   UNL     1      10.113  11.658  20.327  0.00  0.00    +0.000 C 
ATOM     22  C   UNL     1      10.559  11.141  18.932  0.00  0.00    +0.000 C 
BRANCH  20  23
ATOM     23  C   UNL     1       9.719  13.945  21.271  0.00  0.00    +0.000 A 
ATOM     24  C   UNL     1      10.651  14.992  21.084  0.00  0.00    +0.000 A 
ATOM     25  C   UNL     1      10.820  16.027  22.008  0.00  0.00    +0.000 A 
ATOM     26  C   UNL     1      10.042  16.057  23.152  0.00  0.00    +0.000 A 
ATOM     27  C   UNL     1       9.127  15.037  23.385  0.00  0.00    +0.000 A 
ATOM     28  C   UNL     1       8.976  13.962  22.475  0.00  0.00    +0.000 A 
ATOM     29  C   UNL     1       8.034  12.865  22.913  0.00  0.00    +0.000 C 
ENDBRANCH  20  23
ENDBRANCH  16  17
ENDBRANCH   1  16
TORSDOF 8
ENDMDL
MODEL 4
REMARK VINA RESULT:      -7.2      2.385      7.585
REMARK  Name = 
REMARK  11 active torsions:
REMARK  status: ('A' for Active; 'I' for Inactive)
REMARK    1  A    between atoms: C_1  and  C_2
REMARK    2  A    between atoms: C_2  and  C_4
REMARK    3  A    between atoms: C_6  and  C_7
REMARK    4  A    between atoms: C_10  and  O_11
REMARK    5  A    between atoms: O_11  and  C_12
REMARK    6  A    between atoms: C_12  and  C_13
REMARK    7  A    between atoms: C_13  and  O_14
REMARK    8  A    between atoms: C_13  and  C_15
REMARK    9  A    between atoms: C_15  and  N_16
REMARK   10  A    between atoms: N_19  and  C_20
REMARK   11  A    between atoms: C_25  and  C_26
REMARK                            x       y       z     vdW  Elec       q    Type
REMARK                         _______ _______ _______ _____ _____    ______ ____
ROOT
ATOM      1  C   UNL     1       1.681   4.803  20.294  0.00  0.00    +0.000 C 
ENDROOT
BRANCH   1   2
ATOM      2  O   UNL     1       0.272   4.639  20.466  0.00  0.00    +0.000 OA
ATOM      3  H   UNL     1       0.040   3.758  20.115  0.00  0.00    +0.000 HD
ENDBRANCH   1   2
BRANCH   1   4
ATOM      4  C   UNL     1       2.225   6.133  20.825  0.00  0.00    +0.000 C 
BRANCH   4   5
ATOM      5  O   UNL     1       2.001   7.206  19.923  0.00  0.00    +0.000 OA
BRANCH   5  12
ATOM      6  C   UNL     1       0.780   9.430  19.725  0.00  0.00    +0.000 A 
ATOM      7  C   UNL     1       0.134  10.420  20.497  0.00  0.00    +0.000 A 
ATOM      8  C   UNL     1      -0.024  10.306  21.884  0.00  0.00    +0.000 A 
ATOM      9  C   UNL     1      -0.759  11.360  22.655  0.00  0.00    +0.000 C 
ATOM     10  C   UNL     1       0.498   9.190  22.528  0.00  0.00    +0.000 A 
ATOM     11  C   UNL     1       1.151   8.206  21.788  0.00  0.00    +0.000 A 
ATOM     12  C   UNL     1       1.303   8.297  20.387  0.00  0.00    +0.000 A 
BRANCH   6  14
ATOM     13  C   UNL     1      -0.607   9.967  17.589  0.00  0.00    +0.000 C 
ATOM     14  C   UNL     1       0.727   9.688  18.243  0.00  0.00    +0.000 C 
ATOM     15  O   UNL     1       1.727   9.571  17.540  0.00  0.00    +0.000 OA
ENDBRANCH   6  14
ENDBRANCH   5  12
ENDBRANCH   4   5
ENDBRANCH   1   4
BRANCH   1  16
ATOM     16  C   UNL     1       2.465   3.648  20.967  0.00  0.00    +0.000 C 
BRANCH  16  17
ATOM     17  N   UNL     1       2.868   2.501  20.109  0.00  0.00    +0.000 NA
ATOM     18  C   UNL     1       2.334   2.571  18.733  0.00  0.00    +0.000 C 
ATOM     19  C   UNL     1       2.796   3.800  17.927  0.00  0.00    +0.000 C 
ATOM     20  N   UNL     1       4.262   3.902  17.915  0.00  0.00    +0.000 N 
ATOM     21  C   UNL     1       4.945   3.690  19.210  0.00  0.00    +0.000 C 
ATOM     22  C   UNL     1       4.348   2.475  19.970  0.00  0.00    +0.000 C 
BRANCH  20  23
ATOM     23  C   UNL     1       4.941   4.386  16.803  0.00  0.00    +0.000 A 
ATOM     24  C   UNL     1       5.581   3.450  15.958  0.00  0.00    +0.000 A 
ATOM     25  C   UNL     1       6.204   3.813  14.760  0.00  0.00    +0.000 A 
ATOM     26  C   UNL     1       6.192   5.137  14.358  0.00  0.00    +0.000 A 
ATOM     27  C   UNL     1       5.591   6.094  15.168  0.00  0.00    +0.000 A 
ATOM     28  C   UNL     1       4.993   5.742  16.403  0.00  0.00    +0.000 A 
ATOM     29  C   UNL     1       4.487   6.897  17.233  0.00  0.00    +0.000 C 
ENDBRANCH  20  23
ENDBRANCH  16  17
ENDBRANCH   1  16
TORSDOF 8
ENDMDL
MODEL 5
REMARK VINA RESULT:      -7.2      3.369      5.858
REMARK  Name = 
REMARK  11 active torsions:
REMARK  status: ('A' for Active; 'I' for Inactive)
REMARK    1  A    between atoms: C_1  and  C_2
REMARK    2  A    between atoms: C_2  and  C_4
REMARK    3  A    between atoms: C_6  and  C_7
REMARK    4  A    between atoms: C_10  and  O_11
REMARK    5  A    between atoms: O_11  and  C_12
REMARK    6  A    between atoms: C_12  and  C_13
REMARK    7  A    between atoms: C_13  and  O_14
REMARK    8  A    between atoms: C_13  and  C_15
REMARK    9  A    between atoms: C_15  and  N_16
REMARK   10  A    between atoms: N_19  and  C_20
REMARK   11  A    between atoms: C_25  and  C_26
REMARK                            x       y       z     vdW  Elec       q    Type
REMARK                         _______ _______ _______ _____ _____    ______ ____
ROOT
ATOM      1  C   UNL     1       1.695   9.669  18.153  0.00  0.00    +0.000 C 
ENDROOT
BRANCH   1   2
ATOM      2  O   UNL     1       2.069  10.870  17.474  0.00  0.00    +0.000 OA
ATOM      3  H   UNL     1       1.311  11.481  17.532  0.00  0.00    +0.000 HD
ENDBRANCH   1   2
BRANCH   1   4
ATOM      4  C   UNL     1       2.810   8.621  18.230  0.00  0.00    +0.000 C 
BRANCH   4   5
ATOM      5  O   UNL     1       2.302   7.297  18.291  0.00  0.00    +0.000 OA
BRANCH   5  12
ATOM      6  C   UNL     1       2.938   4.887  17.778  0.00  0.00    +0.000 A 
ATOM      7  C   UNL     1       3.919   4.106  17.128  0.00  0.00    +0.000 A 
ATOM      8  C   UNL     1       4.990   4.678  16.428  0.00  0.00    +0.000 A 
ATOM      9  C   UNL     1       5.981   3.809  15.713  0.00  0.00    +0.000 C 
ATOM     10  C   UNL     1       5.106   6.063  16.395  0.00  0.00    +0.000 A 
ATOM     11  C   UNL     1       4.157   6.853  17.041  0.00  0.00    +0.000 A 
ATOM     12  C   UNL     1       3.062   6.293  17.735  0.00  0.00    +0.000 A 
BRANCH   6  14
ATOM     13  C   UNL     1       1.797   3.781  19.840  0.00  0.00    +0.000 C 
ATOM     14  C   UNL     1       1.809   4.078  18.358  0.00  0.00    +0.000 C 
ATOM     15  O   UNL     1       0.958   3.565  17.637  0.00  0.00    +0.000 OA
ENDBRANCH   6  14
ENDBRANCH   5  12
ENDBRANCH   4   5
ENDBRANCH   1   4
BRANCH   1  16
ATOM     16  C   UNL     1       1.205   9.970  19.592  0.00  0.00    +0.000 C 
BRANCH  16  17
ATOM     17  N   UNL     1      -0.130   9.446  19.986  0.00  0.00    +0.000 NA
ATOM     18  C   UNL     1      -0.302   9.296  21.447  0.00  0.00    +0.000 C 
ATOM     19  C   UNL     1      -0.183  10.608  22.245  0.00  0.00    +0.000 C 
ATOM     20  N   UNL     1      -1.100  11.629  21.721  0.00  0.00    +0.000 N 
ATOM     21  C   UNL     1      -1.150  11.776  20.250  0.00  0.00    +0.000 C 
ATOM     22  C   UNL     1      -1.189  10.392  19.547  0.00  0.00    +0.000 C 
BRANCH  20  23
ATOM     23  C   UNL     1      -1.715  12.546  22.566  0.00  0.00    +0.000 A 
ATOM     24  C   UNL     1      -2.947  12.183  23.156  0.00  0.00    +0.000 A 
ATOM     25  C   UNL     1      -3.601  12.983  24.099  0.00  0.00    +0.000 A 
ATOM     26  C   UNL     1      -3.027  14.177  24.497  0.00  0.00    +0.000 A 
ATOM     27  C   UNL     1      -1.825  14.583  23.928  0.00  0.00    +0.000 A 
ATOM     28  C   UNL     1      -1.176  13.799  22.942  0.00  0.00    +0.000 A 
ATOM     29  C   UNL     1       0.056  14.418  22.326  0.00  0.00    +0.000 C 
ENDBRANCH  20  23
ENDBRANCH  16  17
ENDBRANCH   1  16
TORSDOF 8
ENDMDL
MODEL 6
REMARK VINA RESULT:      -7.2      3.442      5.840
REMARK  Name = 
REMARK  11 active torsions:
REMARK  status: ('A' for Active; 'I' for Inactive)
REMARK    1  A    between atoms: C_1  and  C_2
REMARK    2  A    between atoms: C_2  and  C_4
REMARK    3  A    between atoms: C_6  and  C_7
REMARK    4  A    between atoms: C_10  and  O_11
REMARK    5  A    between atoms: O_11  and  C_12
REMARK    6  A    between atoms: C_12  and  C_13
REMARK    7  A    between atoms: C_13  and  O_14
REMARK    8  A    between atoms: C_13  and  C_15
REMARK    9  A    between atoms: C_15  and  N_16
REMARK   10  A    between atoms: N_19  and  C_20
REMARK   11  A    between atoms: C_25  and  C_26
REMARK                            x       y       z     vdW  Elec       q    Type
REMARK                         _______ _______ _______ _____ _____    ______ ____
ROOT
ATOM      1  C   UNL     1       1.262   9.246  18.184  0.00  0.00    +0.000 C 
ENDROOT
BRANCH   1   2
ATOM      2  O   UNL     1       1.933  10.218  17.379  0.00  0.00    +0.000 OA
ATOM      3  H   UNL     1       2.472   9.731  16.729  0.00  0.00    +0.000 HD
ENDBRANCH   1   2
BRANCH   1   4
ATOM      4  C   UNL     1       2.185   8.169  18.761  0.00  0.00    +0.000 C 
BRANCH   4   5
ATOM      5  O   UNL     1       3.127   7.699  17.810  0.00  0.00    +0.000 OA
BRANCH   5  12
ATOM      6  C   UNL     1       4.647   5.665  17.629  0.00  0.00    +0.000 A 
ATOM      7  C   UNL     1       4.629   4.253  17.653  0.00  0.00    +0.000 A 
ATOM      8  C   UNL     1       3.455   3.522  17.877  0.00  0.00    +0.000 A 
ATOM      9  C   UNL     1       3.493   2.025  17.941  0.00  0.00    +0.000 C 
ATOM     10  C   UNL     1       2.261   4.211  18.055  0.00  0.00    +0.000 A 
ATOM     11  C   UNL     1       2.253   5.604  18.023  0.00  0.00    +0.000 A 
ATOM     12  C   UNL     1       3.430   6.356  17.816  0.00  0.00    +0.000 A 
BRANCH   6  14
ATOM     13  C   UNL     1       7.105   5.818  18.473  0.00  0.00    +0.000 C 
ATOM     14  C   UNL     1       6.028   6.250  17.503  0.00  0.00    +0.000 C 
ATOM     15  O   UNL     1       6.269   7.147  16.701  0.00  0.00    +0.000 OA
ENDBRANCH   6  14
ENDBRANCH   5  12
ENDBRANCH   4   5
ENDBRANCH   1   4
BRANCH   1  16
ATOM     16  C   UNL     1       0.499   9.918  19.353  0.00  0.00    +0.000 C 
BRANCH  16  17
ATOM     17  N   UNL     1       1.305  10.637  20.376  0.00  0.00    +0.000 NA
ATOM     18  C   UNL     1       1.115  12.103  20.359  0.00  0.00    +0.000 C 
ATOM     19  C   UNL     1      -0.325  12.567  20.647  0.00  0.00    +0.000 C 
ATOM     20  N   UNL     1      -0.820  11.999  21.908  0.00  0.00    +0.000 N 
ATOM     21  C   UNL     1      -0.553  10.561  22.131  0.00  0.00    +0.000 C 
ATOM     22  C   UNL     1       0.902  10.190  21.735  0.00  0.00    +0.000 C 
BRANCH  20  23
ATOM     23  C   UNL     1      -1.676  12.717  22.735  0.00  0.00    +0.000 A 
ATOM     24  C   UNL     1      -2.887  12.104  23.130  0.00  0.00    +0.000 A 
ATOM     25  C   UNL     1      -3.772  12.692  24.040  0.00  0.00    +0.000 A 
ATOM     26  C   UNL     1      -3.461  13.917  24.601  0.00  0.00    +0.000 A 
ATOM     27  C   UNL     1      -2.290  14.565  24.226  0.00  0.00    +0.000 A 
ATOM     28  C   UNL     1      -1.406  13.997  23.275  0.00  0.00    +0.000 A 
ATOM     29  C   UNL     1      -0.237  14.864  22.873  0.00  0.00    +0.000 C 
ENDBRANCH  20  23
ENDBRANCH  16  17
ENDBRANCH   1  16
TORSDOF 8
ENDMDL
MODEL 7
REMARK VINA RESULT:      -7.2      3.516      6.062
REMARK  Name = 
REMARK  11 active torsions:
REMARK  status: ('A' for Active; 'I' for Inactive)
REMARK    1  A    between atoms: C_1  and  C_2
REMARK    2  A    between atoms: C_2  and  C_4
REMARK    3  A    between atoms: C_6  and  C_7
REMARK    4  A    between atoms: C_10  and  O_11
REMARK    5  A    between atoms: O_11  and  C_12
REMARK    6  A    between atoms: C_12  and  C_13
REMARK    7  A    between atoms: C_13  and  O_14
REMARK    8  A    between atoms: C_13  and  C_15
REMARK    9  A    between atoms: C_15  and  N_16
REMARK   10  A    between atoms: N_19  and  C_20
REMARK   11  A    between atoms: C_25  and  C_26
REMARK                            x       y       z     vdW  Elec       q    Type
REMARK                         _______ _______ _______ _____ _____    ______ ____
ROOT
ATOM      1  C   UNL     1       1.396   9.125  18.213  0.00  0.00    +0.000 C 
ENDROOT
BRANCH   1   2
ATOM      2  O   UNL     1       2.181   9.895  17.300  0.00  0.00    +0.000 OA
ATOM      3  H   UNL     1       1.595  10.575  16.918  0.00  0.00    +0.000 HD
ENDBRANCH   1   2
BRANCH   1   4
ATOM      4  C   UNL     1       2.175   8.018  18.929  0.00  0.00    +0.000 C 
BRANCH   4   5
ATOM      5  O   UNL     1       3.202   7.469  18.117  0.00  0.00    +0.000 OA
BRANCH   5  12
ATOM      6  C   UNL     1       4.529   5.304  18.291  0.00  0.00    +0.000 A 
ATOM      7  C   UNL     1       4.387   3.901  18.228  0.00  0.00    +0.000 A 
ATOM      8  C   UNL     1       3.145   3.280  18.044  0.00  0.00    +0.000 A 
ATOM      9  C   UNL     1       3.037   1.784  18.032  0.00  0.00    +0.000 C 
ATOM     10  C   UNL     1       2.015   4.075  17.890  0.00  0.00    +0.000 A 
ATOM     11  C   UNL     1       2.133   5.463  17.935  0.00  0.00    +0.000 A 
ATOM     12  C   UNL     1       3.375   6.103  18.138  0.00  0.00    +0.000 A 
BRANCH   6  14
ATOM     13  C   UNL     1       6.705   6.559  17.606  0.00  0.00    +0.000 C 
ATOM     14  C   UNL     1       5.926   5.756  18.623  0.00  0.00    +0.000 C 
ATOM     15  O   UNL     1       6.483   5.395  19.656  0.00  0.00    +0.000 OA
ENDBRANCH   6  14
ENDBRANCH   5  12
ENDBRANCH   4   5
ENDBRANCH   1   4
BRANCH   1  16
ATOM     16  C   UNL     1       0.733  10.029  19.281  0.00  0.00    +0.000 C 
BRANCH  16  17
ATOM     17  N   UNL     1       0.640  11.485  18.988  0.00  0.00    +0.000 NA
ATOM     18  C   UNL     1      -0.731  11.941  18.673  0.00  0.00    +0.000 C 
ATOM     19  C   UNL     1      -1.751  11.739  19.809  0.00  0.00    +0.000 C 
ATOM     20  N   UNL     1      -1.280  12.352  21.057  0.00  0.00    +0.000 N 
ATOM     21  C   UNL     1       0.135  12.110  21.415  0.00  0.00    +0.000 C 
ATOM     22  C   UNL     1       1.064  12.264  20.181  0.00  0.00    +0.000 C 
BRANCH  20  23
ATOM     23  C   UNL     1      -2.168  12.939  21.952  0.00  0.00    +0.000 A 
ATOM     24  C   UNL     1      -2.732  12.121  22.958  0.00  0.00    +0.000 A 
ATOM     25  C   UNL     1      -3.555  12.625  23.970  0.00  0.00    +0.000 A 
ATOM     26  C   UNL     1      -3.827  13.981  24.018  0.00  0.00    +0.000 A 
ATOM     27  C   UNL     1      -3.308  14.819  23.038  0.00  0.00    +0.000 A 
ATOM     28  C   UNL     1      -2.507  14.312  21.984  0.00  0.00    +0.000 A 
ATOM     29  C   UNL     1      -2.113  15.314  20.926  0.00  0.00    +0.000 C 
ENDBRANCH  20  23
ENDBRANCH  16  17
ENDBRANCH   1  16
TORSDOF 8
ENDMDL
MODEL 8
REMARK VINA RESULT:      -7.2      4.870      7.888
REMARK  Name = 
REMARK  11 active torsions:
REMARK  status: ('A' for Active; 'I' for Inactive)
REMARK    1  A    between atoms: C_1  and  C_2
REMARK    2  A    between atoms: C_2  and  C_4
REMARK    3  A    between atoms: C_6  and  C_7
REMARK    4  A    between atoms: C_10  and  O_11
REMARK    5  A    between atoms: O_11  and  C_12
REMARK    6  A    between atoms: C_12  and  C_13
REMARK    7  A    between atoms: C_13  and  O_14
REMARK    8  A    between atoms: C_13  and  C_15
REMARK    9  A    between atoms: C_15  and  N_16
REMARK   10  A    between atoms: N_19  and  C_20
REMARK   11  A    between atoms: C_25  and  C_26
REMARK                            x       y       z     vdW  Elec       q    Type
REMARK                         _______ _______ _______ _____ _____    ______ ____
ROOT
ATOM      1  C   UNL     1       7.999   8.188  18.558  0.00  0.00    +0.000 C 
ENDROOT
BRANCH   1   2
ATOM      2  O   UNL     1       8.911   7.219  19.079  0.00  0.00    +0.000 OA
ATOM      3  H   UNL     1       8.394   6.611  19.641  0.00  0.00    +0.000 HD
ENDBRANCH   1   2
BRANCH   1   4
ATOM      4  C   UNL     1       8.650   9.524  18.189  0.00  0.00    +0.000 C 
BRANCH   4   5
ATOM      5  O   UNL     1       8.588  10.466  19.249  0.00  0.00    +0.000 OA
BRANCH   5  12
ATOM      6  C   UNL     1       9.172  12.792  18.396  0.00  0.00    +0.000 A 
ATOM      7  C   UNL     1      10.173  13.785  18.462  0.00  0.00    +0.000 A 
ATOM      8  C   UNL     1      11.320  13.643  19.254  0.00  0.00    +0.000 A 
ATOM      9  C   UNL     1      12.333  14.745  19.330  0.00  0.00    +0.000 C 
ATOM     10  C   UNL     1      11.492  12.469  19.980  0.00  0.00    +0.000 A 
ATOM     11  C   UNL     1      10.523  11.470  19.919  0.00  0.00    +0.000 A 
ATOM     12  C   UNL     1       9.353  11.605  19.140  0.00  0.00    +0.000 A 
BRANCH   6  14
ATOM     13  C   UNL     1       7.300  14.526  17.880  0.00  0.00    +0.000 C 
ATOM     14  C   UNL     1       7.968  13.200  17.591  0.00  0.00    +0.000 C 
ATOM     15  O   UNL     1       7.453  12.434  16.781  0.00  0.00    +0.000 OA
ENDBRANCH   6  14
ENDBRANCH   5  12
ENDBRANCH   4   5
ENDBRANCH   1   4
BRANCH   1  16
ATOM     16  C   UNL     1       7.255   7.644  17.314  0.00  0.00    +0.000 C 
BRANCH  16  17
ATOM     17  N   UNL     1       7.470   6.216  16.955  0.00  0.00    +0.000 NA
ATOM     18  C   UNL     1       7.236   5.280  18.075  0.00  0.00    +0.000 C 
ATOM     19  C   UNL     1       5.801   5.297  18.636  0.00  0.00    +0.000 C 
ATOM     20  N   UNL     1       4.815   5.078  17.570  0.00  0.00    +0.000 N 
ATOM     21  C   UNL     1       5.022   5.838  16.317  0.00  0.00    +0.000 C 
ATOM     22  C   UNL     1       6.514   5.819  15.887  0.00  0.00    +0.000 C 
BRANCH  20  23
ATOM     23  C   UNL     1       3.642   4.371  17.807  0.00  0.00    +0.000 A 
ATOM     24  C   UNL     1       3.615   2.998  17.471  0.00  0.00    +0.000 A 
ATOM     25  C   UNL     1       2.527   2.169  17.760  0.00  0.00    +0.000 A 
ATOM     26  C   UNL     1       1.426   2.689  18.416  0.00  0.00    +0.000 A 
ATOM     27  C   UNL     1       1.402   4.039  18.748  0.00  0.00    +0.000 A 
ATOM     28  C   UNL     1       2.482   4.897  18.423  0.00  0.00    +0.000 A 
ATOM     29  C   UNL     1       2.269   6.359  18.734  0.00  0.00    +0.000 C 
ENDBRANCH  20  23
ENDBRANCH  16  17
ENDBRANCH   1  16
TORSDOF 8
ENDMDL
MODEL 9
REMARK VINA RESULT:      -7.1      3.865      6.701
REMARK  Name = 
REMARK  11 active torsions:
REMARK  status: ('A' for Active; 'I' for Inactive)
REMARK    1  A    between atoms: C_1  and  C_2
REMARK    2  A    between atoms: C_2  and  C_4
REMARK    3  A    between atoms: C_6  and  C_7
REMARK    4  A    between atoms: C_10  and  O_11
REMARK    5  A    between atoms: O_11  and  C_12
REMARK    6  A    between atoms: C_12  and  C_13
REMARK    7  A    between atoms: C_13  and  O_14
REMARK    8  A    between atoms: C_13  and  C_15
REMARK    9  A    between atoms: C_15  and  N_16
REMARK   10  A    between atoms: N_19  and  C_20
REMARK   11  A    between atoms: C_25  and  C_26
REMARK                            x       y       z     vdW  Elec       q    Type
REMARK                         _______ _______ _______ _____ _____    ______ ____
ROOT
ATOM      1  C   UNL     1       0.390   8.905  21.317  0.00  0.00    +0.000 C 
ENDROOT
BRANCH   1   2
ATOM      2  O   UNL     1      -0.691   8.073  21.741  0.00  0.00    +0.000 OA
ATOM      3  H   UNL     1      -0.389   7.148  21.665  0.00  0.00    +0.000 HD
ENDBRANCH   1   2
BRANCH   1   4
ATOM      4  C   UNL     1       1.605   8.134  20.792  0.00  0.00    +0.000 C 
BRANCH   4   5
ATOM      5  O   UNL     1       1.365   6.738  20.714  0.00  0.00    +0.000 OA
BRANCH   5  12
ATOM      6  C   UNL     1       2.225   4.624  19.587  0.00  0.00    +0.000 A 
ATOM      7  C   UNL     1       3.083   4.179  18.558  0.00  0.00    +0.000 A 
ATOM      8  C   UNL     1       3.775   5.065  17.723  0.00  0.00    +0.000 A 
ATOM      9  C   UNL     1       4.638   4.546  16.612  0.00  0.00    +0.000 C 
ATOM     10  C   UNL     1       3.634   6.432  17.933  0.00  0.00    +0.000 A 
ATOM     11  C   UNL     1       2.803   6.894  18.951  0.00  0.00    +0.000 A 
ATOM     12  C   UNL     1       2.083   6.014  19.789  0.00  0.00    +0.000 A 
BRANCH   6  14
ATOM     13  C   UNL     1       1.931   3.063  21.650  0.00  0.00    +0.000 C 
ATOM     14  C   UNL     1       1.482   3.512  20.278  0.00  0.00    +0.000 C 
ATOM     15  O   UNL     1       0.589   2.892  19.706  0.00  0.00    +0.000 OA
ENDBRANCH   6  14
ENDBRANCH   5  12
ENDBRANCH   4   5
ENDBRANCH   1   4
BRANCH   1  16
ATOM     16  C   UNL     1      -0.068   9.904  20.224  0.00  0.00    +0.000 C 
BRANCH  16  17
ATOM     17  N   UNL     1      -0.783  11.130  20.670  0.00  0.00    +0.000 NA
ATOM     18  C   UNL     1       0.060  12.058  21.454  0.00  0.00    +0.000 C 
ATOM     19  C   UNL     1       1.281  12.612  20.695  0.00  0.00    +0.000 C 
ATOM     20  N   UNL     1       0.876  13.231  19.426  0.00  0.00    +0.000 N 
ATOM     21  C   UNL     1      -0.099  12.477  18.608  0.00  0.00    +0.000 C 
ATOM     22  C   UNL     1      -1.243  11.900  19.485  0.00  0.00    +0.000 C 
BRANCH  20  23
ATOM     23  C   UNL     1       1.537  14.348  18.926  0.00  0.00    +0.000 A 
ATOM     24  C   UNL     1       2.779  14.149  18.279  0.00  0.00    +0.000 A 
ATOM     25  C   UNL     1       3.478  15.184  17.651  0.00  0.00    +0.000 A 
ATOM     26  C   UNL     1       2.944  16.460  17.635  0.00  0.00    +0.000 A 
ATOM     27  C   UNL     1       1.735  16.704  18.277  0.00  0.00    +0.000 A 
ATOM     28  C   UNL     1       1.038  15.671  18.951  0.00  0.00    +0.000 A 
ATOM     29  C   UNL     1      -0.198  16.103  19.704  0.00  0.00    +0.000 C 
ENDBRANCH  20  23
ENDBRANCH  16  17
ENDBRANCH   1  16
TORSDOF 8
ENDMDL
