MODEL 1
REMARK VINA RESULT:      -7.9      0.000      0.000
REMARK  Name = 
REMARK  4 active torsions:
REMARK  status: ('A' for Active; 'I' for Inactive)
REMARK    1  A    between atoms: C_2  and  O_3
REMARK    2  A    between atoms: C_2  and  C_4
REMARK    3  A    between atoms: C_4  and  C_5
REMARK    4  A    between atoms: C_4  and  N_11
REMARK                            x       y       z     vdW  Elec       q    Type
REMARK                         _______ _______ _______ _____ _____    ______ ____
ROOT
ATOM      1  C   UNL     1       6.684   4.657  18.567  0.00  0.00    +0.000 C 
ENDROOT
BRANCH   1   2
ATOM      2  N   UNL     1       5.448   4.385  19.311  0.00  0.00    +0.000 NA
ATOM      3  C   UNL     1       4.690   3.189  18.914  0.00  0.00    +0.000 C 
ATOM      4  C   UNL     1       3.359   3.401  19.560  0.00  0.00    +0.000 A 
ATOM      5  C   UNL     1       2.380   2.476  19.866  0.00  0.00    +0.000 A 
ATOM      6  C   UNL     1       1.203   2.941  20.451  0.00  0.00    +0.000 A 
ATOM      7  C   UNL     1       1.019   4.314  20.686  0.00  0.00    +0.000 A 
ATOM      8  C   UNL     1       2.020   5.240  20.374  0.00  0.00    +0.000 A 
ATOM      9  C   UNL     1       3.200   4.763  19.834  0.00  0.00    +0.000 A 
ATOM     10  C   UNL     1       4.463   5.483  19.447  0.00  0.00    +0.000 C 
ENDBRANCH   1   2
BRANCH   1  11
ATOM     11  C   UNL     1       6.395   4.923  17.084  0.00  0.00    +0.000 A 
ATOM     12  C   UNL     1       5.490   5.928  16.688  0.00  0.00    +0.000 A 
ATOM     13  C   UNL     1       5.226   6.166  15.339  0.00  0.00    +0.000 A 
ATOM     14  C   UNL     1       5.859   5.403  14.364  0.00  0.00    +0.000 A 
ATOM     15  C   UNL     1       6.743   4.390  14.737  0.00  0.00    +0.000 A 
ATOM     16  C   UNL     1       7.005   4.145  16.088  0.00  0.00    +0.000 A 
ENDBRANCH   1  11
BRANCH   1  18
ATOM     17  O   UNL     1       7.972   6.778  18.623  0.00  0.00    +0.000 OA
ATOM     18  C   UNL     1       7.592   5.756  19.178  0.00  0.00    +0.000 C 
BRANCH  18  19
ATOM     19  O   UNL     1       7.938   5.510  20.476  0.00  0.00    +0.000 OA
ATOM     20  H   UNL     1       7.266   5.796  21.125  0.00  0.00    +0.000 HD
ENDBRANCH  18  19
ENDBRANCH   1  18
TORSDOF 4
ENDMDL
MODEL 2
REMARK VINA RESULT:      -7.9      0.039      1.108
REMARK  Name = 
REMARK  4 active torsions:
REMARK  status: ('A' for Active; 'I' for Inactive)
REMARK    1  A    between atoms: C_2  and  O_3
REMARK    2  A    between atoms: C_2  and  C_4
REMARK    3  A    between atoms: C_4  and  C_5
REMARK    4  A    between atoms: C_4  and  N_11
REMARK                            x       y       z     vdW  Elec       q    Type
REMARK                         _______ _______ _______ _____ _____    ______ ____
ROOT
ATOM      1  C   UNL     1       6.665   4.635  18.557  0.00  0.00    +0.000 C 
ENDROOT
BRANCH   1   2
ATOM      2  N   UNL     1       5.428   4.355  19.295  0.00  0.00    +0.000 NA
ATOM      3  C   UNL     1       4.655   3.180  18.867  0.00  0.00    +0.000 C 
ATOM      4  C   UNL     1       3.329   3.389  19.522  0.00  0.00    +0.000 A 
ATOM      5  C   UNL     1       2.340   2.466  19.804  0.00  0.00    +0.000 A 
ATOM      6  C   UNL     1       1.170   2.928  20.406  0.00  0.00    +0.000 A 
ATOM      7  C   UNL     1       1.002   4.295  20.681  0.00  0.00    +0.000 A 
ATOM      8  C   UNL     1       2.014   5.219  20.393  0.00  0.00    +0.000 A 
ATOM      9  C   UNL     1       3.187   4.744  19.836  0.00  0.00    +0.000 A 
ATOM     10  C   UNL     1       4.457   5.460  19.467  0.00  0.00    +0.000 C 
ENDBRANCH   1   2
BRANCH   1  11
ATOM     11  C   UNL     1       6.381   4.894  17.071  0.00  0.00    +0.000 A 
ATOM     12  C   UNL     1       7.020   4.142  16.067  0.00  0.00    +0.000 A 
ATOM     13  C   UNL     1       6.764   4.382  14.717  0.00  0.00    +0.000 A 
ATOM     14  C   UNL     1       5.868   5.379  14.348  0.00  0.00    +0.000 A 
ATOM     15  C   UNL     1       5.241   6.149  15.328  0.00  0.00    +0.000 A 
ATOM     16  C   UNL     1       5.501   5.914  16.682  0.00  0.00    +0.000 A 
ENDBRANCH   1  11
BRANCH   1  18
ATOM     17  O   UNL     1       7.940   6.763  18.612  0.00  0.00    +0.000 OA
ATOM     18  C   UNL     1       7.563   5.741  19.168  0.00  0.00    +0.000 C 
BRANCH  18  19
ATOM     19  O   UNL     1       7.902   5.503  20.469  0.00  0.00    +0.000 OA
ATOM     20  H   UNL     1       7.518   4.682  20.835  0.00  0.00    +0.000 HD
ENDBRANCH  18  19
ENDBRANCH   1  18
TORSDOF 4
ENDMDL
MODEL 3
REMARK VINA RESULT:      -7.8      2.191      3.200
REMARK  Name = 
REMARK  4 active torsions:
REMARK  status: ('A' for Active; 'I' for Inactive)
REMARK    1  A    between atoms: C_2  and  O_3
REMARK    2  A    between atoms: C_2  and  C_4
REMARK    3  A    between atoms: C_4  and  C_5
REMARK    4  A    between atoms: C_4  and  N_11
REMARK                            x       y       z     vdW  Elec       q    Type
REMARK                         _______ _______ _______ _____ _____    ______ ____
ROOT
ATOM      1  C   UNL     1       5.111   5.326  16.657  0.00  0.00    +0.000 C 
ENDROOT
BRANCH   1   2
ATOM      2  N   UNL     1       4.238   4.655  17.627  0.00  0.00    +0.000 NA
ATOM      3  C   UNL     1       3.260   3.699  17.085  0.00  0.00    +0.000 C 
ATOM      4  C   UNL     1       2.315   3.497  18.223  0.00  0.00    +0.000 A 
ATOM      5  C   UNL     1       1.437   2.455  18.454  0.00  0.00    +0.000 A 
ATOM      6  C   UNL     1       0.637   2.518  19.594  0.00  0.00    +0.000 A 
ATOM      7  C   UNL     1       0.707   3.626  20.454  0.00  0.00    +0.000 A 
ATOM      8  C   UNL     1       1.603   4.673  20.210  0.00  0.00    +0.000 A 
ATOM      9  C   UNL     1       2.423   4.580  19.100  0.00  0.00    +0.000 A 
ATOM     10  C   UNL     1       3.508   5.496  18.603  0.00  0.00    +0.000 C 
ENDBRANCH   1   2
BRANCH   1  11
ATOM     11  C   UNL     1       6.261   6.061  17.357  0.00  0.00    +0.000 A 
ATOM     12  C   UNL     1       6.948   5.474  18.439  0.00  0.00    +0.000 A 
ATOM     13  C   UNL     1       7.991   6.145  19.076  0.00  0.00    +0.000 A 
ATOM     14  C   UNL     1       8.364   7.414  18.647  0.00  0.00    +0.000 A 
ATOM     15  C   UNL     1       7.682   8.020  17.592  0.00  0.00    +0.000 A 
ATOM     16  C   UNL     1       6.632   7.352  16.954  0.00  0.00    +0.000 A 
ENDBRANCH   1  11
BRANCH   1  18
ATOM     17  O   UNL     1       5.396   4.572  14.310  0.00  0.00    +0.000 OA
ATOM     18  C   UNL     1       5.626   4.428  15.503  0.00  0.00    +0.000 C 
BRANCH  18  19
ATOM     19  O   UNL     1       6.437   3.414  15.928  0.00  0.00    +0.000 OA
ATOM     20  H   UNL     1       6.784   3.539  16.833  0.00  0.00    +0.000 HD
ENDBRANCH  18  19
ENDBRANCH   1  18
TORSDOF 4
ENDMDL
MODEL 4
REMARK VINA RESULT:      -7.7      2.188      3.065
REMARK  Name = 
REMARK  4 active torsions:
REMARK  status: ('A' for Active; 'I' for Inactive)
REMARK    1  A    between atoms: C_2  and  O_3
REMARK    2  A    between atoms: C_2  and  C_4
REMARK    3  A    between atoms: C_4  and  C_5
REMARK    4  A    between atoms: C_4  and  N_11
REMARK                            x       y       z     vdW  Elec       q    Type
REMARK                         _______ _______ _______ _____ _____    ______ ____
ROOT
ATOM      1  C   UNL     1       5.125   5.141  16.647  0.00  0.00    +0.000 C 
ENDROOT
BRANCH   1   2
ATOM      2  N   UNL     1       4.283   4.447  17.627  0.00  0.00    +0.000 NA
ATOM      3  C   UNL     1       3.043   3.840  17.120  0.00  0.00    +0.000 C 
ATOM      4  C   UNL     1       2.264   3.569  18.365  0.00  0.00    +0.000 A 
ATOM      5  C   UNL     1       1.219   2.687  18.566  0.00  0.00    +0.000 A 
ATOM      6  C   UNL     1       0.639   2.642  19.833  0.00  0.00    +0.000 A 
ATOM      7  C   UNL     1       1.090   3.494  20.854  0.00  0.00    +0.000 A 
ATOM      8  C   UNL     1       2.152   4.380  20.638  0.00  0.00    +0.000 A 
ATOM      9  C   UNL     1       2.749   4.387  19.391  0.00  0.00    +0.000 A 
ATOM     10  C   UNL     1       3.923   5.169  18.869  0.00  0.00    +0.000 C 
ENDBRANCH   1   2
BRANCH   1  11
ATOM     11  C   UNL     1       6.245   5.933  17.335  0.00  0.00    +0.000 A 
ATOM     12  C   UNL     1       6.541   7.256  16.952  0.00  0.00    +0.000 A 
ATOM     13  C   UNL     1       7.562   7.973  17.576  0.00  0.00    +0.000 A 
ATOM     14  C   UNL     1       8.306   7.380  18.590  0.00  0.00    +0.000 A 
ATOM     15  C   UNL     1       8.042   6.064  18.969  0.00  0.00    +0.000 A 
ATOM     16  C   UNL     1       7.023   5.341  18.341  0.00  0.00    +0.000 A 
ENDBRANCH   1  11
BRANCH   1  18
ATOM     17  O   UNL     1       5.778   4.562  14.324  0.00  0.00    +0.000 OA
ATOM     18  C   UNL     1       5.676   4.251  15.503  0.00  0.00    +0.000 C 
BRANCH  18  19
ATOM     19  O   UNL     1       6.101   3.026  15.929  0.00  0.00    +0.000 OA
ATOM     20  H   UNL     1       6.769   3.065  16.642  0.00  0.00    +0.000 HD
ENDBRANCH  18  19
ENDBRANCH   1  18
TORSDOF 4
ENDMDL
MODEL 5
REMARK VINA RESULT:      -7.6      2.307      3.720
REMARK  Name = 
REMARK  4 active torsions:
REMARK  status: ('A' for Active; 'I' for Inactive)
REMARK    1  A    between atoms: C_2  and  O_3
REMARK    2  A    between atoms: C_2  and  C_4
REMARK    3  A    between atoms: C_4  and  C_5
REMARK    4  A    between atoms: C_4  and  N_11
REMARK                            x       y       z     vdW  Elec       q    Type
REMARK                         _______ _______ _______ _____ _____    ______ ____
ROOT
ATOM      1  C   UNL     1       5.651   5.545  15.830  0.00  0.00    +0.000 C 
ENDROOT
BRANCH   1   2
ATOM      2  N   UNL     1       4.500   4.829  16.391  0.00  0.00    +0.000 NA
ATOM      3  C   UNL     1       3.740   5.521  17.442  0.00  0.00    +0.000 C 
ATOM      4  C   UNL     1       2.919   4.428  18.044  0.00  0.00    +0.000 A 
ATOM      5  C   UNL     1       1.761   4.517  18.792  0.00  0.00    +0.000 A 
ATOM      6  C   UNL     1       1.197   3.332  19.264  0.00  0.00    +0.000 A 
ATOM      7  C   UNL     1       1.816   2.097  19.008  0.00  0.00    +0.000 A 
ATOM      8  C   UNL     1       2.988   2.021  18.246  0.00  0.00    +0.000 A 
ATOM      9  C   UNL     1       3.514   3.198  17.746  0.00  0.00    +0.000 A 
ATOM     10  C   UNL     1       4.709   3.442  16.865  0.00  0.00    +0.000 C 
ENDBRANCH   1   2
BRANCH   1  11
ATOM     11  C   UNL     1       6.597   6.033  16.936  0.00  0.00    +0.000 A 
ATOM     12  C   UNL     1       7.090   5.147  17.913  0.00  0.00    +0.000 A 
ATOM     13  C   UNL     1       7.947   5.593  18.920  0.00  0.00    +0.000 A 
ATOM     14  C   UNL     1       8.323   6.931  18.968  0.00  0.00    +0.000 A 
ATOM     15  C   UNL     1       7.828   7.827  18.021  0.00  0.00    +0.000 A 
ATOM     16  C   UNL     1       6.965   7.385  17.014  0.00  0.00    +0.000 A 
ENDBRANCH   1  11
BRANCH   1  18
ATOM     17  O   UNL     1       5.990   3.871  14.030  0.00  0.00    +0.000 OA
ATOM     18  C   UNL     1       6.419   4.790  14.715  0.00  0.00    +0.000 C 
BRANCH  18  19
ATOM     19  O   UNL     1       7.680   5.270  14.507  0.00  0.00    +0.000 OA
ATOM     20  H   UNL     1       7.703   6.173  14.133  0.00  0.00    +0.000 HD
ENDBRANCH  18  19
ENDBRANCH   1  18
TORSDOF 4
ENDMDL
MODEL 6
REMARK VINA RESULT:      -7.5      2.264      3.554
REMARK  Name = 
REMARK  4 active torsions:
REMARK  status: ('A' for Active; 'I' for Inactive)
REMARK    1  A    between atoms: C_2  and  O_3
REMARK    2  A    between atoms: C_2  and  C_4
REMARK    3  A    between atoms: C_4  and  C_5
REMARK    4  A    between atoms: C_4  and  N_11
REMARK                            x       y       z     vdW  Elec       q    Type
REMARK                         _______ _______ _______ _____ _____    ______ ____
ROOT
ATOM      1  C   UNL     1       5.472   5.518  15.918  0.00  0.00    +0.000 C 
ENDROOT
BRANCH   1   2
ATOM      2  N   UNL     1       4.327   4.829  16.524  0.00  0.00    +0.000 NA
ATOM      3  C   UNL     1       3.660   5.514  17.642  0.00  0.00    +0.000 C 
ATOM      4  C   UNL     1       2.832   4.433  18.256  0.00  0.00    +0.000 A 
ATOM      5  C   UNL     1       1.725   4.542  19.076  0.00  0.00    +0.000 A 
ATOM      6  C   UNL     1       1.140   3.365  19.541  0.00  0.00    +0.000 A 
ATOM      7  C   UNL     1       1.690   2.116  19.207  0.00  0.00    +0.000 A 
ATOM      8  C   UNL     1       2.810   2.020  18.373  0.00  0.00    +0.000 A 
ATOM      9  C   UNL     1       3.355   3.192  17.882  0.00  0.00    +0.000 A 
ATOM     10  C   UNL     1       4.505   3.419  16.938  0.00  0.00    +0.000 C 
ENDBRANCH   1   2
BRANCH   1  11
ATOM     11  C   UNL     1       6.464   5.997  16.987  0.00  0.00    +0.000 A 
ATOM     12  C   UNL     1       6.921   7.329  17.010  0.00  0.00    +0.000 A 
ATOM     13  C   UNL     1       7.825   7.762  17.980  0.00  0.00    +0.000 A 
ATOM     14  C   UNL     1       8.290   6.871  18.941  0.00  0.00    +0.000 A 
ATOM     15  C   UNL     1       7.864   5.543  18.922  0.00  0.00    +0.000 A 
ATOM     16  C   UNL     1       6.963   5.105  17.948  0.00  0.00    +0.000 A 
ENDBRANCH   1  11
BRANCH   1  18
ATOM     17  O   UNL     1       5.651   4.096  13.893  0.00  0.00    +0.000 OA
ATOM     18  C   UNL     1       6.187   4.738  14.785  0.00  0.00    +0.000 C 
BRANCH  18  19
ATOM     19  O   UNL     1       7.548   4.849  14.829  0.00  0.00    +0.000 OA
ATOM     20  H   UNL     1       7.882   5.728  14.560  0.00  0.00    +0.000 HD
ENDBRANCH  18  19
ENDBRANCH   1  18
TORSDOF 4
ENDMDL
MODEL 7
REMARK VINA RESULT:      -7.4      1.926      5.769
REMARK  Name = 
REMARK  4 active torsions:
REMARK  status: ('A' for Active; 'I' for Inactive)
REMARK    1  A    between atoms: C_2  and  O_3
REMARK    2  A    between atoms: C_2  and  C_4
REMARK    3  A    between atoms: C_4  and  C_5
REMARK    4  A    between atoms: C_4  and  N_11
REMARK                            x       y       z     vdW  Elec       q    Type
REMARK                         _______ _______ _______ _____ _____    ______ ____
ROOT
ATOM      1  C   UNL     1       5.071   5.188  17.722  0.00  0.00    +0.000 C 
ENDROOT
BRANCH   1   2
ATOM      2  N   UNL     1       5.389   5.168  16.290  0.00  0.00    +0.000 NA
ATOM      3  C   UNL     1       5.113   3.915  15.571  0.00  0.00    +0.000 C 
ATOM      4  C   UNL     1       5.871   4.083  14.294  0.00  0.00    +0.000 A 
ATOM      5  C   UNL     1       5.700   3.435  13.086  0.00  0.00    +0.000 A 
ATOM      6  C   UNL     1       6.566   3.759  12.043  0.00  0.00    +0.000 A 
ATOM      7  C   UNL     1       7.597   4.693  12.239  0.00  0.00    +0.000 A 
ATOM      8  C   UNL     1       7.757   5.345  13.467  0.00  0.00    +0.000 A 
ATOM      9  C   UNL     1       6.866   5.047  14.481  0.00  0.00    +0.000 A 
ATOM     10  C   UNL     1       6.740   5.606  15.872  0.00  0.00    +0.000 C 
ENDBRANCH   1   2
BRANCH   1  11
ATOM     11  C   UNL     1       3.860   4.299  18.038  0.00  0.00    +0.000 A 
ATOM     12  C   UNL     1       2.547   4.748  17.797  0.00  0.00    +0.000 A 
ATOM     13  C   UNL     1       1.448   3.940  18.087  0.00  0.00    +0.000 A 
ATOM     14  C   UNL     1       1.641   2.673  18.627  0.00  0.00    +0.000 A 
ATOM     15  C   UNL     1       2.934   2.220  18.891  0.00  0.00    +0.000 A 
ATOM     16  C   UNL     1       4.037   3.029  18.607  0.00  0.00    +0.000 A 
ENDBRANCH   1  11
BRANCH   1  18
ATOM     17  O   UNL     1       6.437   5.339  19.789  0.00  0.00    +0.000 OA
ATOM     18  C   UNL     1       6.263   4.884  18.667  0.00  0.00    +0.000 C 
BRANCH  18  19
ATOM     19  O   UNL     1       7.151   3.988  18.144  0.00  0.00    +0.000 OA
ATOM     20  H   UNL     1       7.612   3.450  18.817  0.00  0.00    +0.000 HD
ENDBRANCH  18  19
ENDBRANCH   1  18
TORSDOF 4
ENDMDL
MODEL 8
REMARK VINA RESULT:      -7.4      1.875      5.802
REMARK  Name = 
REMARK  4 active torsions:
REMARK  status: ('A' for Active; 'I' for Inactive)
REMARK    1  A    between atoms: C_2  and  O_3
REMARK    2  A    between atoms: C_2  and  C_4
REMARK    3  A    between atoms: C_4  and  C_5
REMARK    4  A    between atoms: C_4  and  N_11
REMARK                            x       y       z     vdW  Elec       q    Type
REMARK                         _______ _______ _______ _____ _____    ______ ____
ROOT
ATOM      1  C   UNL     1       5.831   5.188  17.647  0.00  0.00    +0.000 C 
ENDROOT
BRANCH   1   2
ATOM      2  N   UNL     1       6.218   4.657  16.335  0.00  0.00    +0.000 NA
ATOM      3  C   UNL     1       6.997   5.551  15.466  0.00  0.00    +0.000 C 
ATOM      4  C   UNL     1       6.898   4.894  14.127  0.00  0.00    +0.000 A 
ATOM      5  C   UNL     1       7.712   5.042  13.021  0.00  0.00    +0.000 A 
ATOM      6  C   UNL     1       7.385   4.325  11.871  0.00  0.00    +0.000 A 
ATOM      7  C   UNL     1       6.242   3.508  11.841  0.00  0.00    +0.000 A 
ATOM      8  C   UNL     1       5.428   3.365  12.971  0.00  0.00    +0.000 A 
ATOM      9  C   UNL     1       5.786   4.047  14.120  0.00  0.00    +0.000 A 
ATOM     10  C   UNL     1       5.161   4.059  15.488  0.00  0.00    +0.000 C 
ENDBRANCH   1   2
BRANCH   1  11
ATOM     11  C   UNL     1       4.457   4.659  18.079  0.00  0.00    +0.000 A 
ATOM     12  C   UNL     1       3.289   5.422  17.883  0.00  0.00    +0.000 A 
ATOM     13  C   UNL     1       2.042   4.941  18.280  0.00  0.00    +0.000 A 
ATOM     14  C   UNL     1       1.939   3.692  18.882  0.00  0.00    +0.000 A 
ATOM     15  C   UNL     1       3.087   2.930  19.103  0.00  0.00    +0.000 A 
ATOM     16  C   UNL     1       4.339   3.412  18.712  0.00  0.00    +0.000 A 
ENDBRANCH   1  11
BRANCH   1  18
ATOM     17  O   UNL     1       6.824   5.458  19.905  0.00  0.00    +0.000 OA
ATOM     18  C   UNL     1       6.888   5.012  18.768  0.00  0.00    +0.000 C 
BRANCH  18  19
ATOM     19  O   UNL     1       7.953   4.246  18.390  0.00  0.00    +0.000 OA
ATOM     20  H   UNL     1       7.721   3.518  17.780  0.00  0.00    +0.000 HD
ENDBRANCH  18  19
ENDBRANCH   1  18
TORSDOF 4
ENDMDL
MODEL 9
REMARK VINA RESULT:      -7.4      1.908      5.835
REMARK  Name = 
REMARK  4 active torsions:
REMARK  status: ('A' for Active; 'I' for Inactive)
REMARK    1  A    between atoms: C_2  and  O_3
REMARK    2  A    between atoms: C_2  and  C_4
REMARK    3  A    between atoms: C_4  and  C_5
REMARK    4  A    between atoms: C_4  and  N_11
REMARK                            x       y       z     vdW  Elec       q    Type
REMARK                         _______ _______ _______ _____ _____    ______ ____
ROOT
ATOM      1  C   UNL     1       5.124   5.226  17.753  0.00  0.00    +0.000 C 
ENDROOT
BRANCH   1   2
ATOM      2  N   UNL     1       5.422   5.189  16.317  0.00  0.00    +0.000 NA
ATOM      3  C   UNL     1       5.131   3.930  15.615  0.00  0.00    +0.000 C 
ATOM      4  C   UNL     1       5.871   4.081  14.326  0.00  0.00    +0.000 A 
ATOM      5  C   UNL     1       5.680   3.421  13.127  0.00  0.00    +0.000 A 
ATOM      6  C   UNL     1       6.533   3.731  12.069  0.00  0.00    +0.000 A 
ATOM      7  C   UNL     1       7.571   4.662  12.240  0.00  0.00    +0.000 A 
ATOM      8  C   UNL     1       7.751   5.326  13.459  0.00  0.00    +0.000 A 
ATOM      9  C   UNL     1       6.873   5.043  14.489  0.00  0.00    +0.000 A 
ATOM     10  C   UNL     1       6.769   5.617  15.876  0.00  0.00    +0.000 C 
ENDBRANCH   1   2
BRANCH   1  11
ATOM     11  C   UNL     1       3.900   4.365  18.091  0.00  0.00    +0.000 A 
ATOM     12  C   UNL     1       4.044   3.104  18.702  0.00  0.00    +0.000 A 
ATOM     13  C   UNL     1       2.930   2.321  19.005  0.00  0.00    +0.000 A 
ATOM     14  C   UNL     1       1.654   2.784  18.701  0.00  0.00    +0.000 A 
ATOM     15  C   UNL     1       1.493   4.021  18.077  0.00  0.00    +0.000 A 
ATOM     16  C   UNL     1       2.608   4.805  17.767  0.00  0.00    +0.000 A 
ENDBRANCH   1  11
BRANCH   1  18
ATOM     17  O   UNL     1       6.528   5.372  19.795  0.00  0.00    +0.000 OA
ATOM     18  C   UNL     1       6.323   4.904  18.684  0.00  0.00    +0.000 C 
BRANCH  18  19
ATOM     19  O   UNL     1       7.176   3.974  18.162  0.00  0.00    +0.000 OA
ATOM     20  H   UNL     1       7.946   4.360  17.698  0.00  0.00    +0.000 HD
ENDBRANCH  18  19
ENDBRANCH   1  18
TORSDOF 4
ENDMDL
