MODEL 1
REMARK VINA RESULT:      -6.6      0.000      0.000
REMARK  Name = 
REMARK  9 active torsions:
REMARK  status: ('A' for Active; 'I' for Inactive)
REMARK    1  A    between atoms: C_2  and  S_3
REMARK    2  A    between atoms: C_2  and  S_14
REMARK    3  A    between atoms: S_3  and  C_4
REMARK    4  A    between atoms: C_4  and  C_5
REMARK    5  A    between atoms: C_5  and  C_6
REMARK    6  A    between atoms: C_9  and  C_10
REMARK    7  A    between atoms: C_10  and  O_11
REMARK    8  A    between atoms: S_14  and  C_15
REMARK    9  A    between atoms: C_15  and  C_16
REMARK                            x       y       z     vdW  Elec       q    Type
REMARK                         _______ _______ _______ _____ _____    ______ ____
ROOT
ATOM      1  O   UNL     1       2.289   3.474  22.086  0.00  0.00    +0.000 OA
ATOM      2  C   UNL     1       1.973   3.550  20.908  0.00  0.00    +0.000 C 
ENDROOT
BRANCH   2   3
ATOM      3  S   UNL     1       2.280   2.269  19.750  0.00  0.00    +0.000 S 
BRANCH   3   4
ATOM      4  C   UNL     1       2.364   3.248  18.216  0.00  0.00    +0.000 C 
BRANCH   4   5
ATOM      5  C   UNL     1       3.628   2.927  17.419  0.00  0.00    +0.000 C 
BRANCH   5   6
ATOM      6  C   UNL     1       4.665   4.021  17.505  0.00  0.00    +0.000 A 
ATOM      7  C   UNL     1       5.054   4.716  16.355  0.00  0.00    +0.000 A 
ATOM      8  C   UNL     1       5.980   5.758  16.434  0.00  0.00    +0.000 A 
ATOM      9  C   UNL     1       6.538   6.129  17.665  0.00  0.00    +0.000 A 
ATOM     10  C   UNL     1       6.177   5.402  18.809  0.00  0.00    +0.000 A 
ATOM     11  C   UNL     1       5.245   4.363  18.730  0.00  0.00    +0.000 A 
BRANCH   9  12
ATOM     12  C   UNL     1       7.552   7.242  17.726  0.00  0.00    +0.000 C 
BRANCH  12  13
ATOM     13  O   UNL     1       8.390   7.139  18.871  0.00  0.00    +0.000 OA
ATOM     14  H   UNL     1       8.833   8.000  18.970  0.00  0.00    +0.000 HD
ENDBRANCH  12  13
ENDBRANCH   9  12
ENDBRANCH   5   6
ENDBRANCH   4   5
ENDBRANCH   3   4
ENDBRANCH   2   3
BRANCH   2  15
ATOM     15  S   UNL     1       1.134   4.925  20.231  0.00  0.00    +0.000 S 
BRANCH  15  16
ATOM     16  C   UNL     1       2.461   6.160  20.340  0.00  0.00    +0.000 C 
BRANCH  16  17
ATOM     17  C   UNL     1       1.923   7.546  20.058  0.00  0.00    +0.000 A 
ATOM     18  C   UNL     1       1.164   8.196  21.051  0.00  0.00    +0.000 A 
ATOM     19  C   UNL     1       0.587   9.444  20.811  0.00  0.00    +0.000 A 
ATOM     20  C   UNL     1       0.760  10.058  19.574  0.00  0.00    +0.000 A 
ATOM     21 CL   UNL     1       0.024  11.583  19.269  0.00  0.00    +0.000 Cl
ATOM     22  C   UNL     1       1.515   9.444  18.581  0.00  0.00    +0.000 A 
ATOM     23  C   UNL     1       2.094   8.193  18.821  0.00  0.00    +0.000 A 
ATOM     24 CL   UNL     1       3.012   7.484  17.540  0.00  0.00    +0.000 Cl
ENDBRANCH  16  17
ENDBRANCH  15  16
ENDBRANCH   2  15
TORSDOF 9
ENDMDL
MODEL 2
REMARK VINA RESULT:      -6.5      2.845      5.488
REMARK  Name = 
REMARK  9 active torsions:
REMARK  status: ('A' for Active; 'I' for Inactive)
REMARK    1  A    between atoms: C_2  and  S_3
REMARK    2  A    between atoms: C_2  and  S_14
REMARK    3  A    between atoms: S_3  and  C_4
REMARK    4  A    between atoms: C_4  and  C_5
REMARK    5  A    between atoms: C_5  and  C_6
REMARK    6  A    between atoms: C_9  and  C_10
REMARK    7  A    between atoms: C_10  and  O_11
REMARK    8  A    between atoms: S_14  and  C_15
REMARK    9  A    between atoms: C_15  and  C_16
REMARK                            x       y       z     vdW  Elec       q    Type
REMARK                         _______ _______ _______ _____ _____    ______ ____
ROOT
ATOM      1  O   UNL     1       3.568   1.925  19.196  0.00  0.00    +0.000 OA
ATOM      2  C   UNL     1       2.679   2.651  18.778  0.00  0.00    +0.000 C 
ENDROOT
BRANCH   2   3
ATOM      3  S   UNL     1       1.141   2.849  19.597  0.00  0.00    +0.000 S 
BRANCH   3   4
ATOM      4  C   UNL     1       1.591   4.139  20.802  0.00  0.00    +0.000 C 
BRANCH   4   5
ATOM      5  C   UNL     1       2.793   4.953  20.323  0.00  0.00    +0.000 C 
BRANCH   5   6
ATOM      6  C   UNL     1       2.413   6.344  19.874  0.00  0.00    +0.000 A 
ATOM      7  C   UNL     1       2.802   6.809  18.612  0.00  0.00    +0.000 A 
ATOM      8  C   UNL     1       2.417   8.077  18.174  0.00  0.00    +0.000 A 
ATOM      9  C   UNL     1       1.635   8.910  18.985  0.00  0.00    +0.000 A 
ATOM     10  C   UNL     1       1.283   8.456  20.265  0.00  0.00    +0.000 A 
ATOM     11  C   UNL     1       1.663   7.184  20.702  0.00  0.00    +0.000 A 
BRANCH   9  12
ATOM     12  C   UNL     1       1.248  10.283  18.501  0.00  0.00    +0.000 C 
BRANCH  12  13
ATOM     13  O   UNL     1       2.145  10.773  17.511  0.00  0.00    +0.000 OA
ATOM     14  H   UNL     1       2.806  10.074  17.364  0.00  0.00    +0.000 HD
ENDBRANCH  12  13
ENDBRANCH   9  12
ENDBRANCH   5   6
ENDBRANCH   4   5
ENDBRANCH   3   4
ENDBRANCH   2   3
BRANCH   2  15
ATOM     15  S   UNL     1       2.839   3.624  17.336  0.00  0.00    +0.000 S 
BRANCH  15  16
ATOM     16  C   UNL     1       4.532   3.168  16.862  0.00  0.00    +0.000 C 
BRANCH  16  17
ATOM     17  C   UNL     1       5.494   4.291  17.180  0.00  0.00    +0.000 A 
ATOM     18  C   UNL     1       5.833   4.536  18.524  0.00  0.00    +0.000 A 
ATOM     19  C   UNL     1       6.661   5.606  18.872  0.00  0.00    +0.000 A 
ATOM     20  C   UNL     1       7.158   6.446  17.880  0.00  0.00    +0.000 A 
ATOM     21 CL   UNL     1       8.154   7.780  18.312  0.00  0.00    +0.000 Cl
ATOM     22  C   UNL     1       6.848   6.218  16.543  0.00  0.00    +0.000 A 
ATOM     23  C   UNL     1       6.021   5.146  16.194  0.00  0.00    +0.000 A 
ATOM     24 CL   UNL     1       5.670   4.927  14.516  0.00  0.00    +0.000 Cl
ENDBRANCH  16  17
ENDBRANCH  15  16
ENDBRANCH   2  15
TORSDOF 9
ENDMDL
MODEL 3
REMARK VINA RESULT:      -6.5      3.070      6.464
REMARK  Name = 
REMARK  9 active torsions:
REMARK  status: ('A' for Active; 'I' for Inactive)
REMARK    1  A    between atoms: C_2  and  S_3
REMARK    2  A    between atoms: C_2  and  S_14
REMARK    3  A    between atoms: S_3  and  C_4
REMARK    4  A    between atoms: C_4  and  C_5
REMARK    5  A    between atoms: C_5  and  C_6
REMARK    6  A    between atoms: C_9  and  C_10
REMARK    7  A    between atoms: C_10  and  O_11
REMARK    8  A    between atoms: S_14  and  C_15
REMARK    9  A    between atoms: C_15  and  C_16
REMARK                            x       y       z     vdW  Elec       q    Type
REMARK                         _______ _______ _______ _____ _____    ______ ____
ROOT
ATOM      1  O   UNL     1       2.515   2.857  21.894  0.00  0.00    +0.000 OA
ATOM      2  C   UNL     1       2.700   3.080  20.707  0.00  0.00    +0.000 C 
ENDROOT
BRANCH   2   3
ATOM      3  S   UNL     1       1.585   4.006  19.721  0.00  0.00    +0.000 S 
BRANCH   3   4
ATOM      4  C   UNL     1       1.843   5.664  20.429  0.00  0.00    +0.000 C 
BRANCH   4   5
ATOM      5  C   UNL     1       2.576   6.580  19.449  0.00  0.00    +0.000 C 
BRANCH   5   6
ATOM      6  C   UNL     1       1.943   7.947  19.344  0.00  0.00    +0.000 A 
ATOM      7  C   UNL     1       1.308   8.517  20.454  0.00  0.00    +0.000 A 
ATOM      8  C   UNL     1       0.758   9.798  20.376  0.00  0.00    +0.000 A 
ATOM      9  C   UNL     1       0.829  10.538  19.188  0.00  0.00    +0.000 A 
ATOM     10  C   UNL     1       1.429   9.946  18.067  0.00  0.00    +0.000 A 
ATOM     11  C   UNL     1       1.985   8.666  18.146  0.00  0.00    +0.000 A 
BRANCH   9  12
ATOM     12  C   UNL     1       0.211  11.910  19.120  0.00  0.00    +0.000 C 
BRANCH  12  13
ATOM     13  O   UNL     1      -0.490  12.120  17.899  0.00  0.00    +0.000 OA
ATOM     14  H   UNL     1      -0.794  11.245  17.599  0.00  0.00    +0.000 HD
ENDBRANCH  12  13
ENDBRANCH   9  12
ENDBRANCH   5   6
ENDBRANCH   4   5
ENDBRANCH   3   4
ENDBRANCH   2   3
BRANCH   2  15
ATOM     15  S   UNL     1       4.124   2.546  19.845  0.00  0.00    +0.000 S 
BRANCH  15  16
ATOM     16  C   UNL     1       4.984   4.138  19.687  0.00  0.00    +0.000 C 
BRANCH  16  17
ATOM     17  C   UNL     1       5.453   4.350  18.264  0.00  0.00    +0.000 A 
ATOM     18  C   UNL     1       4.647   3.886  17.206  0.00  0.00    +0.000 A 
ATOM     19  C   UNL     1       5.071   3.994  15.880  0.00  0.00    +0.000 A 
ATOM     20  C   UNL     1       6.308   4.567  15.595  0.00  0.00    +0.000 A 
ATOM     21 CL   UNL     1       6.842   4.673  13.964  0.00  0.00    +0.000 Cl
ATOM     22  C   UNL     1       7.117   5.044  16.621  0.00  0.00    +0.000 A 
ATOM     23  C   UNL     1       6.692   4.936  17.949  0.00  0.00    +0.000 A 
ATOM     24 CL   UNL     1       7.751   5.542  19.173  0.00  0.00    +0.000 Cl
ENDBRANCH  16  17
ENDBRANCH  15  16
ENDBRANCH   2  15
TORSDOF 9
ENDMDL
MODEL 4
REMARK VINA RESULT:      -6.3      0.882      1.262
REMARK  Name = 
REMARK  9 active torsions:
REMARK  status: ('A' for Active; 'I' for Inactive)
REMARK    1  A    between atoms: C_2  and  S_3
REMARK    2  A    between atoms: C_2  and  S_14
REMARK    3  A    between atoms: S_3  and  C_4
REMARK    4  A    between atoms: C_4  and  C_5
REMARK    5  A    between atoms: C_5  and  C_6
REMARK    6  A    between atoms: C_9  and  C_10
REMARK    7  A    between atoms: C_10  and  O_11
REMARK    8  A    between atoms: S_14  and  C_15
REMARK    9  A    between atoms: C_15  and  C_16
REMARK                            x       y       z     vdW  Elec       q    Type
REMARK                         _______ _______ _______ _____ _____    ______ ____
ROOT
ATOM      1  O   UNL     1       2.239   3.388  22.056  0.00  0.00    +0.000 OA
ATOM      2  C   UNL     1       2.461   3.677  20.890  0.00  0.00    +0.000 C 
ENDROOT
BRANCH   2   3
ATOM      3  S   UNL     1       3.766   2.967  19.959  0.00  0.00    +0.000 S 
BRANCH   3   4
ATOM      4  C   UNL     1       3.169   3.308  18.272  0.00  0.00    +0.000 C 
BRANCH   4   5
ATOM      5  C   UNL     1       4.318   3.309  17.264  0.00  0.00    +0.000 C 
BRANCH   5   6
ATOM      6  C   UNL     1       5.183   4.542  17.368  0.00  0.00    +0.000 A 
ATOM      7  C   UNL     1       6.327   4.535  18.174  0.00  0.00    +0.000 A 
ATOM      8  C   UNL     1       7.155   5.657  18.241  0.00  0.00    +0.000 A 
ATOM      9  C   UNL     1       6.859   6.812  17.504  0.00  0.00    +0.000 A 
ATOM     10  C   UNL     1       5.689   6.829  16.730  0.00  0.00    +0.000 A 
ATOM     11  C   UNL     1       4.863   5.704  16.659  0.00  0.00    +0.000 A 
BRANCH   9  12
ATOM     12  C   UNL     1       7.755   8.019  17.606  0.00  0.00    +0.000 C 
BRANCH  12  13
ATOM     13  O   UNL     1       8.611   7.954  18.741  0.00  0.00    +0.000 OA
ATOM     14  H   UNL     1       9.373   8.528  18.548  0.00  0.00    +0.000 HD
ENDBRANCH  12  13
ENDBRANCH   9  12
ENDBRANCH   5   6
ENDBRANCH   4   5
ENDBRANCH   3   4
ENDBRANCH   2   3
BRANCH   2  15
ATOM     15  S   UNL     1       1.479   4.802  19.981  0.00  0.00    +0.000 S 
BRANCH  15  16
ATOM     16  C   UNL     1       2.614   6.219  19.946  0.00  0.00    +0.000 C 
BRANCH  16  17
ATOM     17  C   UNL     1       1.854   7.514  20.124  0.00  0.00    +0.000 A 
ATOM     18  C   UNL     1       1.149   7.730  21.324  0.00  0.00    +0.000 A 
ATOM     19  C   UNL     1       0.376   8.878  21.506  0.00  0.00    +0.000 A 
ATOM     20  C   UNL     1       0.294   9.824  20.488  0.00  0.00    +0.000 A 
ATOM     21 CL   UNL     1      -0.683  11.224  20.701  0.00  0.00    +0.000 Cl
ATOM     22  C   UNL     1       0.990   9.641  19.297  0.00  0.00    +0.000 A 
ATOM     23  C   UNL     1       1.766   8.492  19.116  0.00  0.00    +0.000 A 
ATOM     24 CL   UNL     1       2.597   8.325  17.609  0.00  0.00    +0.000 Cl
ENDBRANCH  16  17
ENDBRANCH  15  16
ENDBRANCH   2  15
TORSDOF 9
ENDMDL
MODEL 5
REMARK VINA RESULT:      -6.3      2.866      5.887
REMARK  Name = 
REMARK  9 active torsions:
REMARK  status: ('A' for Active; 'I' for Inactive)
REMARK    1  A    between atoms: C_2  and  S_3
REMARK    2  A    between atoms: C_2  and  S_14
REMARK    3  A    between atoms: S_3  and  C_4
REMARK    4  A    between atoms: C_4  and  C_5
REMARK    5  A    between atoms: C_5  and  C_6
REMARK    6  A    between atoms: C_9  and  C_10
REMARK    7  A    between atoms: C_10  and  O_11
REMARK    8  A    between atoms: S_14  and  C_15
REMARK    9  A    between atoms: C_15  and  C_16
REMARK                            x       y       z     vdW  Elec       q    Type
REMARK                         _______ _______ _______ _____ _____    ______ ____
ROOT
ATOM      1  O   UNL     1       2.025   2.579  22.031  0.00  0.00    +0.000 OA
ATOM      2  C   UNL     1       2.479   2.900  20.943  0.00  0.00    +0.000 C 
ENDROOT
BRANCH   2   3
ATOM      3  S   UNL     1       1.589   3.865  19.781  0.00  0.00    +0.000 S 
BRANCH   3   4
ATOM      4  C   UNL     1       1.828   5.521  20.502  0.00  0.00    +0.000 C 
BRANCH   4   5
ATOM      5  C   UNL     1       2.653   6.417  19.577  0.00  0.00    +0.000 C 
BRANCH   5   6
ATOM      6  C   UNL     1       2.051   7.791  19.409  0.00  0.00    +0.000 A 
ATOM      7  C   UNL     1       2.161   8.465  18.187  0.00  0.00    +0.000 A 
ATOM      8  C   UNL     1       1.570   9.718  18.012  0.00  0.00    +0.000 A 
ATOM      9  C   UNL     1       0.855  10.326  19.053  0.00  0.00    +0.000 A 
ATOM     10  C   UNL     1       0.784   9.666  20.289  0.00  0.00    +0.000 A 
ATOM     11  C   UNL     1       1.371   8.409  20.463  0.00  0.00    +0.000 A 
BRANCH   9  12
ATOM     12  C   UNL     1       0.243  11.687  18.849  0.00  0.00    +0.000 C 
BRANCH  12  13
ATOM     13  O   UNL     1      -0.746  11.680  17.826  0.00  0.00    +0.000 OA
ATOM     14  H   UNL     1      -0.786  12.585  17.471  0.00  0.00    +0.000 HD
ENDBRANCH  12  13
ENDBRANCH   9  12
ENDBRANCH   5   6
ENDBRANCH   4   5
ENDBRANCH   3   4
ENDBRANCH   2   3
BRANCH   2  15
ATOM     15  S   UNL     1       4.092   2.478  20.419  0.00  0.00    +0.000 S 
BRANCH  15  16
ATOM     16  C   UNL     1       3.996   3.041  18.695  0.00  0.00    +0.000 C 
BRANCH  16  17
ATOM     17  C   UNL     1       5.031   4.111  18.426  0.00  0.00    +0.000 A 
ATOM     18  C   UNL     1       5.752   4.648  19.510  0.00  0.00    +0.000 A 
ATOM     19  C   UNL     1       6.666   5.686  19.320  0.00  0.00    +0.000 A 
ATOM     20  C   UNL     1       6.869   6.203  18.044  0.00  0.00    +0.000 A 
ATOM     21 CL   UNL     1       7.974   7.502  17.816  0.00  0.00    +0.000 Cl
ATOM     22  C   UNL     1       6.179   5.683  16.954  0.00  0.00    +0.000 A 
ATOM     23  C   UNL     1       5.264   4.641  17.144  0.00  0.00    +0.000 A 
ATOM     24 CL   UNL     1       4.435   4.049  15.748  0.00  0.00    +0.000 Cl
ENDBRANCH  16  17
ENDBRANCH  15  16
ENDBRANCH   2  15
TORSDOF 9
ENDMDL
MODEL 6
REMARK VINA RESULT:      -6.1      3.007      5.941
REMARK  Name = 
REMARK  9 active torsions:
REMARK  status: ('A' for Active; 'I' for Inactive)
REMARK    1  A    between atoms: C_2  and  S_3
REMARK    2  A    between atoms: C_2  and  S_14
REMARK    3  A    between atoms: S_3  and  C_4
REMARK    4  A    between atoms: C_4  and  C_5
REMARK    5  A    between atoms: C_5  and  C_6
REMARK    6  A    between atoms: C_9  and  C_10
REMARK    7  A    between atoms: C_10  and  O_11
REMARK    8  A    between atoms: S_14  and  C_15
REMARK    9  A    between atoms: C_15  and  C_16
REMARK                            x       y       z     vdW  Elec       q    Type
REMARK                         _______ _______ _______ _____ _____    ______ ____
ROOT
ATOM      1  O   UNL     1       2.325   1.457  19.131  0.00  0.00    +0.000 OA
ATOM      2  C   UNL     1       2.148   2.650  19.326  0.00  0.00    +0.000 C 
ENDROOT
BRANCH   2   3
ATOM      3  S   UNL     1       1.895   3.332  20.921  0.00  0.00    +0.000 S 
BRANCH   3   4
ATOM      4  C   UNL     1       1.265   4.978  20.461  0.00  0.00    +0.000 C 
BRANCH   4   5
ATOM      5  C   UNL     1       2.284   6.074  20.776  0.00  0.00    +0.000 C 
BRANCH   5   6
ATOM      6  C   UNL     1       1.880   7.421  20.227  0.00  0.00    +0.000 A 
ATOM      7  C   UNL     1       2.208   7.775  18.913  0.00  0.00    +0.000 A 
ATOM      8  C   UNL     1       1.800   9.001  18.386  0.00  0.00    +0.000 A 
ATOM      9  C   UNL     1       1.054   9.902  19.158  0.00  0.00    +0.000 A 
ATOM     10  C   UNL     1       0.764   9.561  20.488  0.00  0.00    +0.000 A 
ATOM     11  C   UNL     1       1.168   8.331  21.014  0.00  0.00    +0.000 A 
BRANCH   9  12
ATOM     12  C   UNL     1       0.642  11.229  18.576  0.00  0.00    +0.000 C 
BRANCH  12  13
ATOM     13  O   UNL     1      -0.709  11.552  18.888  0.00  0.00    +0.000 OA
ATOM     14  H   UNL     1      -1.219  10.727  18.806  0.00  0.00    +0.000 HD
ENDBRANCH  12  13
ENDBRANCH   9  12
ENDBRANCH   5   6
ENDBRANCH   4   5
ENDBRANCH   3   4
ENDBRANCH   2   3
BRANCH   2  15
ATOM     15  S   UNL     1       2.169   3.841  18.046  0.00  0.00    +0.000 S 
BRANCH  15  16
ATOM     16  C   UNL     1       3.655   3.289  17.159  0.00  0.00    +0.000 C 
BRANCH  16  17
ATOM     17  C   UNL     1       4.835   4.174  17.495  0.00  0.00    +0.000 A 
ATOM     18  C   UNL     1       5.098   4.473  18.846  0.00  0.00    +0.000 A 
ATOM     19  C   UNL     1       6.132   5.342  19.201  0.00  0.00    +0.000 A 
ATOM     20  C   UNL     1       6.914   5.925  18.209  0.00  0.00    +0.000 A 
ATOM     21 CL   UNL     1       8.169   7.018  18.646  0.00  0.00    +0.000 Cl
ATOM     22  C   UNL     1       6.683   5.637  16.868  0.00  0.00    +0.000 A 
ATOM     23  C   UNL     1       5.649   4.766  16.512  0.00  0.00    +0.000 A 
ATOM     24 CL   UNL     1       5.413   4.460  14.828  0.00  0.00    +0.000 Cl
ENDBRANCH  16  17
ENDBRANCH  15  16
ENDBRANCH   2  15
TORSDOF 9
ENDMDL
MODEL 7
REMARK VINA RESULT:      -6.0      1.232      1.599
REMARK  Name = 
REMARK  9 active torsions:
REMARK  status: ('A' for Active; 'I' for Inactive)
REMARK    1  A    between atoms: C_2  and  S_3
REMARK    2  A    between atoms: C_2  and  S_14
REMARK    3  A    between atoms: S_3  and  C_4
REMARK    4  A    between atoms: C_4  and  C_5
REMARK    5  A    between atoms: C_5  and  C_6
REMARK    6  A    between atoms: C_9  and  C_10
REMARK    7  A    between atoms: C_10  and  O_11
REMARK    8  A    between atoms: S_14  and  C_15
REMARK    9  A    between atoms: C_15  and  C_16
REMARK                            x       y       z     vdW  Elec       q    Type
REMARK                         _______ _______ _______ _____ _____    ______ ____
ROOT
ATOM      1  O   UNL     1       0.827   4.210  19.071  0.00  0.00    +0.000 OA
ATOM      2  C   UNL     1       1.680   4.013  19.923  0.00  0.00    +0.000 C 
ENDROOT
BRANCH   2   3
ATOM      3  S   UNL     1       2.352   2.428  20.258  0.00  0.00    +0.000 S 
BRANCH   3   4
ATOM      4  C   UNL     1       4.004   2.626  19.517  0.00  0.00    +0.000 C 
BRANCH   4   5
ATOM      5  C   UNL     1       3.923   3.292  18.143  0.00  0.00    +0.000 C 
BRANCH   5   6
ATOM      6  C   UNL     1       4.873   4.457  18.003  0.00  0.00    +0.000 A 
ATOM      7  C   UNL     1       5.902   4.644  18.934  0.00  0.00    +0.000 A 
ATOM      8  C   UNL     1       6.810   5.694  18.786  0.00  0.00    +0.000 A 
ATOM      9  C   UNL     1       6.711   6.581  17.706  0.00  0.00    +0.000 A 
ATOM     10  C   UNL     1       5.653   6.416  16.800  0.00  0.00    +0.000 A 
ATOM     11  C   UNL     1       4.747   5.361  16.944  0.00  0.00    +0.000 A 
BRANCH   9  12
ATOM     12  C   UNL     1       7.689   7.720  17.577  0.00  0.00    +0.000 C 
BRANCH  12  13
ATOM     13  O   UNL     1       8.530   7.835  18.720  0.00  0.00    +0.000 OA
ATOM     14  H   UNL     1       9.389   8.163  18.402  0.00  0.00    +0.000 HD
ENDBRANCH  12  13
ENDBRANCH   9  12
ENDBRANCH   5   6
ENDBRANCH   4   5
ENDBRANCH   3   4
ENDBRANCH   2   3
BRANCH   2  15
ATOM     15  S   UNL     1       2.377   5.291  20.890  0.00  0.00    +0.000 S 
BRANCH  15  16
ATOM     16  C   UNL     1       2.543   6.569  19.609  0.00  0.00    +0.000 C 
BRANCH  16  17
ATOM     17  C   UNL     1       1.741   7.798  19.977  0.00  0.00    +0.000 A 
ATOM     18  C   UNL     1       1.082   7.833  21.221  0.00  0.00    +0.000 A 
ATOM     19  C   UNL     1       0.273   8.915  21.574  0.00  0.00    +0.000 A 
ATOM     20  C   UNL     1       0.110   9.974  20.686  0.00  0.00    +0.000 A 
ATOM     21 CL   UNL     1      -0.911  11.292  21.110  0.00  0.00    +0.000 Cl
ATOM     22  C   UNL     1       0.759   9.969  19.456  0.00  0.00    +0.000 A 
ATOM     23  C   UNL     1       1.571   8.887  19.102  0.00  0.00    +0.000 A 
ATOM     24 CL   UNL     1       2.340   8.943  17.556  0.00  0.00    +0.000 Cl
ENDBRANCH  16  17
ENDBRANCH  15  16
ENDBRANCH   2  15
TORSDOF 9
ENDMDL
MODEL 8
REMARK VINA RESULT:      -5.9      4.056      5.279
REMARK  Name = 
REMARK  9 active torsions:
REMARK  status: ('A' for Active; 'I' for Inactive)
REMARK    1  A    between atoms: C_2  and  S_3
REMARK    2  A    between atoms: C_2  and  S_14
REMARK    3  A    between atoms: S_3  and  C_4
REMARK    4  A    between atoms: C_4  and  C_5
REMARK    5  A    between atoms: C_5  and  C_6
REMARK    6  A    between atoms: C_9  and  C_10
REMARK    7  A    between atoms: C_10  and  O_11
REMARK    8  A    between atoms: S_14  and  C_15
REMARK    9  A    between atoms: C_15  and  C_16
REMARK                            x       y       z     vdW  Elec       q    Type
REMARK                         _______ _______ _______ _____ _____    ______ ____
ROOT
ATOM      1  O   UNL     1       1.140  10.330  18.300  0.00  0.00    +0.000 OA
ATOM      2  C   UNL     1       0.778   9.814  19.348  0.00  0.00    +0.000 C 
ENDROOT
BRANCH   2   3
ATOM      3  S   UNL     1       1.541   8.388  20.026  0.00  0.00    +0.000 S 
BRANCH   3   4
ATOM      4  C   UNL     1       2.452   7.795  18.564  0.00  0.00    +0.000 C 
BRANCH   4   5
ATOM      5  C   UNL     1       2.580   6.272  18.568  0.00  0.00    +0.000 C 
BRANCH   5   6
ATOM      6  C   UNL     1       3.665   5.776  17.642  0.00  0.00    +0.000 A 
ATOM      7  C   UNL     1       3.774   4.412  17.349  0.00  0.00    +0.000 A 
ATOM      8  C   UNL     1       4.747   3.952  16.460  0.00  0.00    +0.000 A 
ATOM      9  C   UNL     1       5.634   4.845  15.844  0.00  0.00    +0.000 A 
ATOM     10  C   UNL     1       5.549   6.206  16.173  0.00  0.00    +0.000 A 
ATOM     11  C   UNL     1       4.570   6.667  17.058  0.00  0.00    +0.000 A 
BRANCH   9  12
ATOM     12  C   UNL     1       6.691   4.326  14.904  0.00  0.00    +0.000 C 
BRANCH  12  13
ATOM     13  O   UNL     1       7.612   5.341  14.522  0.00  0.00    +0.000 OA
ATOM     14  H   UNL     1       8.368   4.890  14.107  0.00  0.00    +0.000 HD
ENDBRANCH  12  13
ENDBRANCH   9  12
ENDBRANCH   5   6
ENDBRANCH   4   5
ENDBRANCH   3   4
ENDBRANCH   2   3
BRANCH   2  15
ATOM     15  S   UNL     1      -0.515  10.456  20.332  0.00  0.00    +0.000 S 
BRANCH  15  16
ATOM     16  C   UNL     1      -1.030  11.838  19.272  0.00  0.00    +0.000 C 
BRANCH  16  17
ATOM     17  C   UNL     1      -2.501  11.730  18.935  0.00  0.00    +0.000 A 
ATOM     18  C   UNL     1      -3.434  12.427  19.728  0.00  0.00    +0.000 A 
ATOM     19  C   UNL     1      -4.805  12.302  19.499  0.00  0.00    +0.000 A 
ATOM     20  C   UNL     1      -5.262  11.476  18.476  0.00  0.00    +0.000 A 
ATOM     21 CL   UNL     1      -6.953  11.300  18.215  0.00  0.00    +0.000 Cl
ATOM     22  C   UNL     1      -4.362  10.786  17.671  0.00  0.00    +0.000 A 
ATOM     23  C   UNL     1      -2.988  10.912  17.899  0.00  0.00    +0.000 A 
ATOM     24 CL   UNL     1      -1.927  10.021  16.866  0.00  0.00    +0.000 Cl
ENDBRANCH  16  17
ENDBRANCH  15  16
ENDBRANCH   2  15
TORSDOF 9
ENDMDL
MODEL 9
REMARK VINA RESULT:      -5.9      3.976      8.129
REMARK  Name = 
REMARK  9 active torsions:
REMARK  status: ('A' for Active; 'I' for Inactive)
REMARK    1  A    between atoms: C_2  and  S_3
REMARK    2  A    between atoms: C_2  and  S_14
REMARK    3  A    between atoms: S_3  and  C_4
REMARK    4  A    between atoms: C_4  and  C_5
REMARK    5  A    between atoms: C_5  and  C_6
REMARK    6  A    between atoms: C_9  and  C_10
REMARK    7  A    between atoms: C_10  and  O_11
REMARK    8  A    between atoms: S_14  and  C_15
REMARK    9  A    between atoms: C_15  and  C_16
REMARK                            x       y       z     vdW  Elec       q    Type
REMARK                         _______ _______ _______ _____ _____    ______ ____
ROOT
ATOM      1  O   UNL     1       1.542   5.777  21.039  0.00  0.00    +0.000 OA
ATOM      2  C   UNL     1       1.623   6.866  20.493  0.00  0.00    +0.000 C 
ENDROOT
BRANCH   2   3
ATOM      3  S   UNL     1       0.896   8.322  21.146  0.00  0.00    +0.000 S 
BRANCH   3   4
ATOM      4  C   UNL     1       1.133   9.450  19.736  0.00  0.00    +0.000 C 
BRANCH   4   5
ATOM      5  C   UNL     1       0.311  10.729  19.901  0.00  0.00    +0.000 C 
BRANCH   5   6
ATOM      6  C   UNL     1      -0.859  10.796  18.949  0.00  0.00    +0.000 A 
ATOM      7  C   UNL     1      -0.885   9.989  17.805  0.00  0.00    +0.000 A 
ATOM      8  C   UNL     1      -1.983  10.014  16.944  0.00  0.00    +0.000 A 
ATOM      9  C   UNL     1      -3.080  10.846  17.204  0.00  0.00    +0.000 A 
ATOM     10  C   UNL     1      -3.032  11.684  18.328  0.00  0.00    +0.000 A 
ATOM     11  C   UNL     1      -1.935  11.654  19.195  0.00  0.00    +0.000 A 
BRANCH   9  12
ATOM     12  C   UNL     1      -4.246  10.874  16.250  0.00  0.00    +0.000 C 
BRANCH  12  13
ATOM     13  O   UNL     1      -5.358  11.581  16.786  0.00  0.00    +0.000 OA
ATOM     14  H   UNL     1      -5.339  11.442  17.749  0.00  0.00    +0.000 HD
ENDBRANCH  12  13
ENDBRANCH   9  12
ENDBRANCH   5   6
ENDBRANCH   4   5
ENDBRANCH   3   4
ENDBRANCH   2   3
BRANCH   2  15
ATOM     15  S   UNL     1       2.514   7.128  19.012  0.00  0.00    +0.000 S 
BRANCH  15  16
ATOM     16  C   UNL     1       2.599   5.415  18.415  0.00  0.00    +0.000 C 
BRANCH  16  17
ATOM     17  C   UNL     1       3.765   5.239  17.467  0.00  0.00    +0.000 A 
ATOM     18  C   UNL     1       4.353   6.383  16.892  0.00  0.00    +0.000 A 
ATOM     19  C   UNL     1       5.384   6.267  15.958  0.00  0.00    +0.000 A 
ATOM     20  C   UNL     1       5.838   5.005  15.584  0.00  0.00    +0.000 A 
ATOM     21 CL   UNL     1       7.089   4.863  14.411  0.00  0.00    +0.000 Cl
ATOM     22  C   UNL     1       5.283   3.860  16.146  0.00  0.00    +0.000 A 
ATOM     23  C   UNL     1       4.251   3.976  17.083  0.00  0.00    +0.000 A 
ATOM     24 CL   UNL     1       3.602   2.512  17.734  0.00  0.00    +0.000 Cl
ENDBRANCH  16  17
ENDBRANCH  15  16
ENDBRANCH   2  15
TORSDOF 9
ENDMDL
