MODEL 1
REMARK VINA RESULT:      -9.7      0.000      0.000
REMARK  Name = 
REMARK  5 active torsions:
REMARK  status: ('A' for Active; 'I' for Inactive)
REMARK    1  A    between atoms: C_2  and  C_3
REMARK    2  A    between atoms: C_7  and  C_8
REMARK    3  A    between atoms: C_13  and  O_14
REMARK    4  A    between atoms: O_14  and  C_15
REMARK    5  A    between atoms: C_18  and  N_19
REMARK                            x       y       z     vdW  Elec       q    Type
REMARK                         _______ _______ _______ _____ _____    ______ ____
ROOT
ATOM      1  C   UNL     1       2.290   7.436  19.243  0.00  0.00    +0.000 A 
ATOM      2  C   UNL     1       1.688   8.036  20.351  0.00  0.00    +0.000 A 
ATOM      3  C   UNL     1       1.015   9.263  20.222  0.00  0.00    +0.000 A 
ATOM      4  C   UNL     1       0.946   9.927  18.987  0.00  0.00    +0.000 A 
ATOM      5  C   UNL     1       1.502   9.282  17.876  0.00  0.00    +0.000 A 
ATOM      6  C   UNL     1       2.177   8.060  18.001  0.00  0.00    +0.000 A 
ENDROOT
BRANCH   4   7
ATOM      7  N   UNL     1       0.400  11.227  18.929  0.00  0.00    +0.000 N 
ATOM      8  C   UNL     1       1.082  12.387  18.732  0.00  0.00    +0.000 A 
ATOM      9  N   UNL     1       2.365  12.514  18.476  0.00  0.00    +0.000 NA
ATOM     10  C   UNL     1       2.740  13.843  18.432  0.00  0.00    +0.000 A 
ATOM     11  C   UNL     1       4.049  14.323  18.226  0.00  0.00    +0.000 A 
ATOM     12  C   UNL     1       4.293  15.699  18.220  0.00  0.00    +0.000 A 
ATOM     13  C   UNL     1       3.249  16.599  18.408  0.00  0.00    +0.000 A 
ATOM     14  C   UNL     1       1.940  16.147  18.610  0.00  0.00    +0.000 A 
ATOM     15  C   UNL     1       1.709  14.760  18.626  0.00  0.00    +0.000 A 
ATOM     16  S   UNL     1       0.242  13.894  18.876  0.00  0.00    +0.000 S 
ATOM     17  H   UNL     1      -0.522  11.312  19.337  0.00  0.00    +0.000 HD
ENDBRANCH   4   7
BRANCH   1  18
ATOM     18  O   UNL     1       3.072   6.321  19.478  0.00  0.00    +0.000 OA
BRANCH  18  24
ATOM     19  C   UNL     1       3.214   4.369  18.055  0.00  0.00    +0.000 A 
ATOM     20  C   UNL     1       2.660   3.099  17.775  0.00  0.00    +0.000 A 
ATOM     21  C   UNL     1       1.589   2.588  18.501  0.00  0.00    +0.000 A 
ATOM     22  C   UNL     1       1.091   3.346  19.535  0.00  0.00    +0.000 A 
ATOM     23  N   UNL     1       1.576   4.557  19.861  0.00  0.00    +0.000 NA
ATOM     24  C   UNL     1       2.595   5.067  19.113  0.00  0.00    +0.000 A 
BRANCH  19  29
ATOM     25  C   UNL     1       6.438   6.153  17.006  0.00  0.00    +0.000 A 
ATOM     26  C   UNL     1       6.839   5.391  15.911  0.00  0.00    +0.000 A 
ATOM     27  C   UNL     1       6.020   4.364  15.458  0.00  0.00    +0.000 A 
ATOM     28  C   UNL     1       4.814   4.097  16.114  0.00  0.00    +0.000 A 
ATOM     29  C   UNL     1       4.401   4.811  17.265  0.00  0.00    +0.000 A 
ATOM     30  C   UNL     1       5.235   5.863  17.677  0.00  0.00    +0.000 A 
BRANCH  25  32
ATOM     31  N   UNL     1       7.951   8.088  17.847  0.00  0.00    +0.000 NA
ATOM     32  C   UNL     1       7.274   7.220  17.474  0.00  0.00    +0.000 C 
ENDBRANCH  25  32
ENDBRANCH  19  29
ENDBRANCH  18  24
ENDBRANCH   1  18
TORSDOF 5
ENDMDL
MODEL 2
REMARK VINA RESULT:      -9.7      1.368      1.726
REMARK  Name = 
REMARK  5 active torsions:
REMARK  status: ('A' for Active; 'I' for Inactive)
REMARK    1  A    between atoms: C_2  and  C_3
REMARK    2  A    between atoms: C_7  and  C_8
REMARK    3  A    between atoms: C_13  and  O_14
REMARK    4  A    between atoms: O_14  and  C_15
REMARK    5  A    between atoms: C_18  and  N_19
REMARK                            x       y       z     vdW  Elec       q    Type
REMARK                         _______ _______ _______ _____ _____    ______ ____
ROOT
ATOM      1  C   UNL     1       2.360   7.283  19.276  0.00  0.00    +0.000 A 
ATOM      2  C   UNL     1       1.757   7.875  20.387  0.00  0.00    +0.000 A 
ATOM      3  C   UNL     1       1.057   9.087  20.259  0.00  0.00    +0.000 A 
ATOM      4  C   UNL     1       0.962   9.744  19.022  0.00  0.00    +0.000 A 
ATOM      5  C   UNL     1       1.520   9.106  17.909  0.00  0.00    +0.000 A 
ATOM      6  C   UNL     1       2.223   7.899  18.032  0.00  0.00    +0.000 A 
ENDROOT
BRANCH   4   7
ATOM      7  N   UNL     1       0.388  11.032  18.964  0.00  0.00    +0.000 N 
ATOM      8  C   UNL     1       1.043  12.205  18.751  0.00  0.00    +0.000 A 
ATOM      9  N   UNL     1       2.320  12.357  18.478  0.00  0.00    +0.000 NA
ATOM     10  C   UNL     1       2.666  13.693  18.421  0.00  0.00    +0.000 A 
ATOM     11  C   UNL     1       3.961  14.199  18.195  0.00  0.00    +0.000 A 
ATOM     12  C   UNL     1       4.177  15.580  18.178  0.00  0.00    +0.000 A 
ATOM     13  C   UNL     1       3.117  16.459  18.374  0.00  0.00    +0.000 A 
ATOM     14  C   UNL     1       1.820  15.981  18.596  0.00  0.00    +0.000 A 
ATOM     15  C   UNL     1       1.618  14.589  18.623  0.00  0.00    +0.000 A 
ATOM     16  S   UNL     1       0.173  13.694  18.897  0.00  0.00    +0.000 S 
ATOM     17  H   UNL     1      -0.531  11.100  19.383  0.00  0.00    +0.000 HD
ENDBRANCH   4   7
BRANCH   1  18
ATOM     18  O   UNL     1       3.168   6.186  19.508  0.00  0.00    +0.000 OA
BRANCH  18  24
ATOM     19  C   UNL     1       3.321   3.926  18.655  0.00  0.00    +0.000 A 
ATOM     20  C   UNL     1       2.693   2.661  18.615  0.00  0.00    +0.000 A 
ATOM     21  C   UNL     1       1.487   2.417  19.264  0.00  0.00    +0.000 A 
ATOM     22  C   UNL     1       0.924   3.445  19.983  0.00  0.00    +0.000 A 
ATOM     23  N   UNL     1       1.472   4.669  20.072  0.00  0.00    +0.000 NA
ATOM     24  C   UNL     1       2.630   4.909  19.394  0.00  0.00    +0.000 A 
BRANCH  19  29
ATOM     25  C   UNL     1       6.033   4.187  15.963  0.00  0.00    +0.000 A 
ATOM     26  C   UNL     1       7.100   4.717  16.687  0.00  0.00    +0.000 A 
ATOM     27  C   UNL     1       6.969   4.899  18.057  0.00  0.00    +0.000 A 
ATOM     28  C   UNL     1       5.768   4.566  18.692  0.00  0.00    +0.000 A 
ATOM     29  C   UNL     1       4.644   4.080  17.981  0.00  0.00    +0.000 A 
ATOM     30  C   UNL     1       4.819   3.876  16.603  0.00  0.00    +0.000 A 
BRANCH  25  32
ATOM     31  N   UNL     1       6.266   3.832  13.401  0.00  0.00    +0.000 NA
ATOM     32  C   UNL     1       6.163   3.988  14.549  0.00  0.00    +0.000 C 
ENDBRANCH  25  32
ENDBRANCH  19  29
ENDBRANCH  18  24
ENDBRANCH   1  18
TORSDOF 5
ENDMDL
MODEL 3
REMARK VINA RESULT:      -9.6      3.029      5.389
REMARK  Name = 
REMARK  5 active torsions:
REMARK  status: ('A' for Active; 'I' for Inactive)
REMARK    1  A    between atoms: C_2  and  C_3
REMARK    2  A    between atoms: C_7  and  C_8
REMARK    3  A    between atoms: C_13  and  O_14
REMARK    4  A    between atoms: O_14  and  C_15
REMARK    5  A    between atoms: C_18  and  N_19
REMARK                            x       y       z     vdW  Elec       q    Type
REMARK                         _______ _______ _______ _____ _____    ______ ____
ROOT
ATOM      1  C   UNL     1       2.721   7.575  18.166  0.00  0.00    +0.000 A 
ATOM      2  C   UNL     1       2.390   8.777  17.537  0.00  0.00    +0.000 A 
ATOM      3  C   UNL     1       1.617   9.743  18.205  0.00  0.00    +0.000 A 
ATOM      4  C   UNL     1       1.141   9.520  19.507  0.00  0.00    +0.000 A 
ATOM      5  C   UNL     1       1.533   8.337  20.143  0.00  0.00    +0.000 A 
ATOM      6  C   UNL     1       2.301   7.369  19.480  0.00  0.00    +0.000 A 
ENDROOT
BRANCH   4   7
ATOM      7  N   UNL     1       0.240  10.441  20.083  0.00  0.00    +0.000 N 
ATOM      8  C   UNL     1      -1.005  10.751  19.631  0.00  0.00    +0.000 A 
ATOM      9  N   UNL     1      -1.640  10.195  18.624  0.00  0.00    +0.000 NA
ATOM     10  C   UNL     1      -2.846  10.823  18.382  0.00  0.00    +0.000 A 
ATOM     11  C   UNL     1      -3.747  10.504  17.346  0.00  0.00    +0.000 A 
ATOM     12  C   UNL     1      -4.931  11.234  17.204  0.00  0.00    +0.000 A 
ATOM     13  C   UNL     1      -5.230  12.268  18.084  0.00  0.00    +0.000 A 
ATOM     14  C   UNL     1      -4.353  12.601  19.124  0.00  0.00    +0.000 A 
ATOM     15  C   UNL     1      -3.159  11.868  19.249  0.00  0.00    +0.000 A 
ATOM     16  S   UNL     1      -1.877  12.044  20.384  0.00  0.00    +0.000 S 
ATOM     17  H   UNL     1       0.669  11.108  20.712  0.00  0.00    +0.000 HD
ENDBRANCH   4   7
BRANCH   1  18
ATOM     18  O   UNL     1       3.338   6.610  17.393  0.00  0.00    +0.000 OA
BRANCH  18  24
ATOM     19  C   UNL     1       4.983   5.022  18.187  0.00  0.00    +0.000 A 
ATOM     20  C   UNL     1       6.362   4.790  18.389  0.00  0.00    +0.000 A 
ATOM     21  C   UNL     1       7.324   5.742  18.066  0.00  0.00    +0.000 A 
ATOM     22  C   UNL     1       6.896   6.925  17.509  0.00  0.00    +0.000 A 
ATOM     23  N   UNL     1       5.602   7.208  17.281  0.00  0.00    +0.000 NA
ATOM     24  C   UNL     1       4.667   6.285  17.644  0.00  0.00    +0.000 A 
BRANCH  19  29
ATOM     25  C   UNL     1       2.435   2.817  20.008  0.00  0.00    +0.000 A 
ATOM     26  C   UNL     1       1.956   2.021  18.969  0.00  0.00    +0.000 A 
ATOM     27  C   UNL     1       2.524   2.135  17.706  0.00  0.00    +0.000 A 
ATOM     28  C   UNL     1       3.554   3.055  17.488  0.00  0.00    +0.000 A 
ATOM     29  C   UNL     1       4.027   3.920  18.504  0.00  0.00    +0.000 A 
ATOM     30  C   UNL     1       3.456   3.757  19.777  0.00  0.00    +0.000 A 
BRANCH  25  32
ATOM     31  N   UNL     1       1.396   2.609  22.378  0.00  0.00    +0.000 NA
ATOM     32  C   UNL     1       1.860   2.699  21.316  0.00  0.00    +0.000 C 
ENDBRANCH  25  32
ENDBRANCH  19  29
ENDBRANCH  18  24
ENDBRANCH   1  18
TORSDOF 5
ENDMDL
MODEL 4
REMARK VINA RESULT:      -9.5      1.639      2.197
REMARK  Name = 
REMARK  5 active torsions:
REMARK  status: ('A' for Active; 'I' for Inactive)
REMARK    1  A    between atoms: C_2  and  C_3
REMARK    2  A    between atoms: C_7  and  C_8
REMARK    3  A    between atoms: C_13  and  O_14
REMARK    4  A    between atoms: O_14  and  C_15
REMARK    5  A    between atoms: C_18  and  N_19
REMARK                            x       y       z     vdW  Elec       q    Type
REMARK                         _______ _______ _______ _____ _____    ______ ____
ROOT
ATOM      1  C   UNL     1       2.624   7.019  19.521  0.00  0.00    +0.000 A 
ATOM      2  C   UNL     1       2.608   7.573  18.239  0.00  0.00    +0.000 A 
ATOM      3  C   UNL     1       1.835   8.714  17.964  0.00  0.00    +0.000 A 
ATOM      4  C   UNL     1       1.046   9.314  18.958  0.00  0.00    +0.000 A 
ATOM      5  C   UNL     1       1.123   8.782  20.250  0.00  0.00    +0.000 A 
ATOM      6  C   UNL     1       1.890   7.643  20.529  0.00  0.00    +0.000 A 
ENDROOT
BRANCH   4   7
ATOM      7  N   UNL     1       0.166  10.360  18.606  0.00  0.00    +0.000 N 
ATOM      8  C   UNL     1       0.417  11.694  18.682  0.00  0.00    +0.000 A 
ATOM      9  N   UNL     1       1.552  12.265  19.016  0.00  0.00    +0.000 NA
ATOM     10  C   UNL     1       1.423  13.639  19.085  0.00  0.00    +0.000 A 
ATOM     11  C   UNL     1       2.436  14.544  19.460  0.00  0.00    +0.000 A 
ATOM     12  C   UNL     1       2.165  15.915  19.503  0.00  0.00    +0.000 A 
ATOM     13  C   UNL     1       0.902  16.392  19.168  0.00  0.00    +0.000 A 
ATOM     14  C   UNL     1      -0.119  15.513  18.787  0.00  0.00    +0.000 A 
ATOM     15  C   UNL     1       0.162  14.136  18.760  0.00  0.00    +0.000 A 
ATOM     16  S   UNL     1      -0.868  12.812  18.370  0.00  0.00    +0.000 S 
ATOM     17  H   UNL     1      -0.808  10.087  18.558  0.00  0.00    +0.000 HD
ENDBRANCH   4   7
BRANCH   1  18
ATOM     18  O   UNL     1       3.272   5.807  19.675  0.00  0.00    +0.000 OA
BRANCH  18  24
ATOM     19  C   UNL     1       3.240   3.776  18.360  0.00  0.00    +0.000 A 
ATOM     20  C   UNL     1       2.504   2.610  18.051  0.00  0.00    +0.000 A 
ATOM     21  C   UNL     1       1.269   2.343  18.634  0.00  0.00    +0.000 A 
ATOM     22  C   UNL     1       0.786   3.242  19.557  0.00  0.00    +0.000 A 
ATOM     23  N   UNL     1       1.438   4.365  19.904  0.00  0.00    +0.000 NA
ATOM     24  C   UNL     1       2.625   4.637  19.291  0.00  0.00    +0.000 A 
BRANCH  19  29
ATOM     25  C   UNL     1       6.037   4.119  15.765  0.00  0.00    +0.000 A 
ATOM     26  C   UNL     1       7.080   4.623  16.539  0.00  0.00    +0.000 A 
ATOM     27  C   UNL     1       6.907   4.761  17.910  0.00  0.00    +0.000 A 
ATOM     28  C   UNL     1       5.686   4.409  18.495  0.00  0.00    +0.000 A 
ATOM     29  C   UNL     1       4.584   3.949  17.733  0.00  0.00    +0.000 A 
ATOM     30  C   UNL     1       4.803   3.789  16.355  0.00  0.00    +0.000 A 
BRANCH  25  32
ATOM     31  N   UNL     1       6.347   3.841  13.202  0.00  0.00    +0.000 NA
ATOM     32  C   UNL     1       6.212   3.965  14.350  0.00  0.00    +0.000 C 
ENDBRANCH  25  32
ENDBRANCH  19  29
ENDBRANCH  18  24
ENDBRANCH   1  18
TORSDOF 5
ENDMDL
MODEL 5
REMARK VINA RESULT:      -9.3      2.208      4.416
REMARK  Name = 
REMARK  5 active torsions:
REMARK  status: ('A' for Active; 'I' for Inactive)
REMARK    1  A    between atoms: C_2  and  C_3
REMARK    2  A    between atoms: C_7  and  C_8
REMARK    3  A    between atoms: C_13  and  O_14
REMARK    4  A    between atoms: O_14  and  C_15
REMARK    5  A    between atoms: C_18  and  N_19
REMARK                            x       y       z     vdW  Elec       q    Type
REMARK                         _______ _______ _______ _____ _____    ______ ____
ROOT
ATOM      1  C   UNL     1       2.802   7.471  18.193  0.00  0.00    +0.000 A 
ATOM      2  C   UNL     1       2.247   8.635  17.657  0.00  0.00    +0.000 A 
ATOM      3  C   UNL     1       1.401   9.445  18.433  0.00  0.00    +0.000 A 
ATOM      4  C   UNL     1       1.075   9.101  19.754  0.00  0.00    +0.000 A 
ATOM      5  C   UNL     1       1.689   7.964  20.294  0.00  0.00    +0.000 A 
ATOM      6  C   UNL     1       2.531   7.151  19.523  0.00  0.00    +0.000 A 
ENDROOT
BRANCH   4   7
ATOM      7  N   UNL     1       0.102   9.852  20.447  0.00  0.00    +0.000 N 
ATOM      8  C   UNL     1       0.200  11.154  20.828  0.00  0.00    +0.000 A 
ATOM      9  N   UNL     1       1.181  11.984  20.554  0.00  0.00    +0.000 NA
ATOM     10  C   UNL     1       1.001  13.200  21.183  0.00  0.00    +0.000 A 
ATOM     11  C   UNL     1       1.890  14.293  21.135  0.00  0.00    +0.000 A 
ATOM     12  C   UNL     1       1.592  15.466  21.835  0.00  0.00    +0.000 A 
ATOM     13  C   UNL     1       0.416  15.565  22.572  0.00  0.00    +0.000 A 
ATOM     14  C   UNL     1      -0.485  14.495  22.631  0.00  0.00    +0.000 A 
ATOM     15  C   UNL     1      -0.168  13.316  21.933  0.00  0.00    +0.000 A 
ATOM     16  S   UNL     1      -1.038  11.834  21.828  0.00  0.00    +0.000 S 
ATOM     17  H   UNL     1      -0.594   9.295  20.925  0.00  0.00    +0.000 HD
ENDBRANCH   4   7
BRANCH   1  18
ATOM     18  O   UNL     1       3.486   6.641  17.323  0.00  0.00    +0.000 OA
BRANCH  18  24
ATOM     19  C   UNL     1       5.081   5.024  18.157  0.00  0.00    +0.000 A 
ATOM     20  C   UNL     1       6.450   4.768  18.395  0.00  0.00    +0.000 A 
ATOM     21  C   UNL     1       7.437   5.704  18.100  0.00  0.00    +0.000 A 
ATOM     22  C   UNL     1       7.045   6.895  17.534  0.00  0.00    +0.000 A 
ATOM     23  N   UNL     1       5.762   7.201  17.273  0.00  0.00    +0.000 NA
ATOM     24  C   UNL     1       4.802   6.293  17.608  0.00  0.00    +0.000 A 
BRANCH  19  29
ATOM     25  C   UNL     1       2.498   2.822  19.932  0.00  0.00    +0.000 A 
ATOM     26  C   UNL     1       1.981   2.082  18.870  0.00  0.00    +0.000 A 
ATOM     27  C   UNL     1       2.532   2.230  17.604  0.00  0.00    +0.000 A 
ATOM     28  C   UNL     1       3.586   3.128  17.405  0.00  0.00    +0.000 A 
ATOM     29  C   UNL     1       4.099   3.938  18.447  0.00  0.00    +0.000 A 
ATOM     30  C   UNL     1       3.543   3.742  19.721  0.00  0.00    +0.000 A 
BRANCH  25  32
ATOM     31  N   UNL     1       1.492   2.540  22.309  0.00  0.00    +0.000 NA
ATOM     32  C   UNL     1       1.940   2.669  21.244  0.00  0.00    +0.000 C 
ENDBRANCH  25  32
ENDBRANCH  19  29
ENDBRANCH  18  24
ENDBRANCH   1  18
TORSDOF 5
ENDMDL
MODEL 6
REMARK VINA RESULT:      -9.3      3.041      3.881
REMARK  Name = 
REMARK  5 active torsions:
REMARK  status: ('A' for Active; 'I' for Inactive)
REMARK    1  A    between atoms: C_2  and  C_3
REMARK    2  A    between atoms: C_7  and  C_8
REMARK    3  A    between atoms: C_13  and  O_14
REMARK    4  A    between atoms: O_14  and  C_15
REMARK    5  A    between atoms: C_18  and  N_19
REMARK                            x       y       z     vdW  Elec       q    Type
REMARK                         _______ _______ _______ _____ _____    ______ ____
ROOT
ATOM      1  C   UNL     1       2.633   7.002  19.543  0.00  0.00    +0.000 A 
ATOM      2  C   UNL     1       2.594   7.579  18.272  0.00  0.00    +0.000 A 
ATOM      3  C   UNL     1       1.810   8.720  18.029  0.00  0.00    +0.000 A 
ATOM      4  C   UNL     1       1.032   9.296  19.045  0.00  0.00    +0.000 A 
ATOM      5  C   UNL     1       1.131   8.741  20.326  0.00  0.00    +0.000 A 
ATOM      6  C   UNL     1       1.909   7.602  20.573  0.00  0.00    +0.000 A 
ENDROOT
BRANCH   4   7
ATOM      7  N   UNL     1       0.139  10.341  18.726  0.00  0.00    +0.000 N 
ATOM      8  C   UNL     1      -0.615  11.062  19.599  0.00  0.00    +0.000 A 
ATOM      9  N   UNL     1      -0.595  10.981  20.910  0.00  0.00    +0.000 NA
ATOM     10  C   UNL     1      -1.562  11.788  21.478  0.00  0.00    +0.000 A 
ATOM     11  C   UNL     1      -1.838  11.899  22.856  0.00  0.00    +0.000 A 
ATOM     12  C   UNL     1      -2.859  12.746  23.296  0.00  0.00    +0.000 A 
ATOM     13  C   UNL     1      -3.600  13.488  22.382  0.00  0.00    +0.000 A 
ATOM     14  C   UNL     1      -3.341  13.399  21.009  0.00  0.00    +0.000 A 
ATOM     15  C   UNL     1      -2.320  12.534  20.577  0.00  0.00    +0.000 A 
ATOM     16  S   UNL     1      -1.782  12.181  18.981  0.00  0.00    +0.000 S 
ATOM     17  H   UNL     1      -0.155  10.359  17.757  0.00  0.00    +0.000 HD
ENDBRANCH   4   7
BRANCH   1  18
ATOM     18  O   UNL     1       3.291   5.792  19.665  0.00  0.00    +0.000 OA
BRANCH  18  24
ATOM     19  C   UNL     1       3.256   3.765  18.344  0.00  0.00    +0.000 A 
ATOM     20  C   UNL     1       2.519   2.600  18.033  0.00  0.00    +0.000 A 
ATOM     21  C   UNL     1       1.285   2.333  18.616  0.00  0.00    +0.000 A 
ATOM     22  C   UNL     1       0.803   3.229  19.542  0.00  0.00    +0.000 A 
ATOM     23  N   UNL     1       1.456   4.351  19.892  0.00  0.00    +0.000 NA
ATOM     24  C   UNL     1       2.642   4.624  19.279  0.00  0.00    +0.000 A 
BRANCH  19  29
ATOM     25  C   UNL     1       6.049   4.114  15.746  0.00  0.00    +0.000 A 
ATOM     26  C   UNL     1       7.094   4.615  16.520  0.00  0.00    +0.000 A 
ATOM     27  C   UNL     1       6.922   4.750  17.891  0.00  0.00    +0.000 A 
ATOM     28  C   UNL     1       5.702   4.397  18.477  0.00  0.00    +0.000 A 
ATOM     29  C   UNL     1       4.599   3.939  17.716  0.00  0.00    +0.000 A 
ATOM     30  C   UNL     1       4.816   3.783  16.337  0.00  0.00    +0.000 A 
BRANCH  25  32
ATOM     31  N   UNL     1       6.356   3.846  13.181  0.00  0.00    +0.000 NA
ATOM     32  C   UNL     1       6.222   3.964  14.330  0.00  0.00    +0.000 C 
ENDBRANCH  25  32
ENDBRANCH  19  29
ENDBRANCH  18  24
ENDBRANCH   1  18
TORSDOF 5
ENDMDL
MODEL 7
REMARK VINA RESULT:      -9.2      0.820      1.349
REMARK  Name = 
REMARK  5 active torsions:
REMARK  status: ('A' for Active; 'I' for Inactive)
REMARK    1  A    between atoms: C_2  and  C_3
REMARK    2  A    between atoms: C_7  and  C_8
REMARK    3  A    between atoms: C_13  and  O_14
REMARK    4  A    between atoms: O_14  and  C_15
REMARK    5  A    between atoms: C_18  and  N_19
REMARK                            x       y       z     vdW  Elec       q    Type
REMARK                         _______ _______ _______ _____ _____    ______ ____
ROOT
ATOM      1  C   UNL     1       2.552   7.209  19.548  0.00  0.00    +0.000 A 
ATOM      2  C   UNL     1       2.497   7.824  18.295  0.00  0.00    +0.000 A 
ATOM      3  C   UNL     1       1.685   8.953  18.090  0.00  0.00    +0.000 A 
ATOM      4  C   UNL     1       0.895   9.478  19.125  0.00  0.00    +0.000 A 
ATOM      5  C   UNL     1       1.010   8.885  20.388  0.00  0.00    +0.000 A 
ATOM      6  C   UNL     1       1.816   7.757  20.597  0.00  0.00    +0.000 A 
ENDROOT
BRANCH   4   7
ATOM      7  N   UNL     1      -0.023  10.511  18.840  0.00  0.00    +0.000 N 
ATOM      8  C   UNL     1       0.242  11.843  18.791  0.00  0.00    +0.000 A 
ATOM      9  N   UNL     1       1.417  12.419  18.916  0.00  0.00    +0.000 NA
ATOM     10  C   UNL     1       1.305  13.795  18.913  0.00  0.00    +0.000 A 
ATOM     11  C   UNL     1       2.367  14.708  19.075  0.00  0.00    +0.000 A 
ATOM     12  C   UNL     1       2.111  16.083  19.068  0.00  0.00    +0.000 A 
ATOM     13  C   UNL     1       0.815  16.556  18.893  0.00  0.00    +0.000 A 
ATOM     14  C   UNL     1      -0.255  15.669  18.725  0.00  0.00    +0.000 A 
ATOM     15  C   UNL     1       0.013  14.288  18.747  0.00  0.00    +0.000 A 
ATOM     16  S   UNL     1      -1.070  12.957  18.600  0.00  0.00    +0.000 S 
ATOM     17  H   UNL     1      -0.995  10.250  18.954  0.00  0.00    +0.000 HD
ENDBRANCH   4   7
BRANCH   1  18
ATOM     18  O   UNL     1       3.240   6.011  19.630  0.00  0.00    +0.000 OA
BRANCH  18  24
ATOM     19  C   UNL     1       3.179   4.202  18.025  0.00  0.00    +0.000 A 
ATOM     20  C   UNL     1       2.502   3.023  17.636  0.00  0.00    +0.000 A 
ATOM     21  C   UNL     1       1.394   2.548  18.330  0.00  0.00    +0.000 A 
ATOM     22  C   UNL     1       0.981   3.247  19.440  0.00  0.00    +0.000 A 
ATOM     23  N   UNL     1       1.584   4.369  19.871  0.00  0.00    +0.000 NA
ATOM     24  C   UNL     1       2.640   4.849  19.156  0.00  0.00    +0.000 A 
BRANCH  19  29
ATOM     25  C   UNL     1       6.444   5.927  17.010  0.00  0.00    +0.000 A 
ATOM     26  C   UNL     1       6.883   5.112  15.968  0.00  0.00    +0.000 A 
ATOM     27  C   UNL     1       6.078   4.066  15.537  0.00  0.00    +0.000 A 
ATOM     28  C   UNL     1       4.848   3.832  16.160  0.00  0.00    +0.000 A 
ATOM     29  C   UNL     1       4.396   4.603  17.259  0.00  0.00    +0.000 A 
ATOM     30  C   UNL     1       5.217   5.673  17.649  0.00  0.00    +0.000 A 
BRANCH  25  32
ATOM     31  N   UNL     1       7.928   7.900  17.814  0.00  0.00    +0.000 NA
ATOM     32  C   UNL     1       7.266   7.015  17.455  0.00  0.00    +0.000 C 
ENDBRANCH  25  32
ENDBRANCH  19  29
ENDBRANCH  18  24
ENDBRANCH   1  18
TORSDOF 5
ENDMDL
MODEL 8
REMARK VINA RESULT:      -9.1      2.403      3.369
REMARK  Name = 
REMARK  5 active torsions:
REMARK  status: ('A' for Active; 'I' for Inactive)
REMARK    1  A    between atoms: C_2  and  C_3
REMARK    2  A    between atoms: C_7  and  C_8
REMARK    3  A    between atoms: C_13  and  O_14
REMARK    4  A    between atoms: O_14  and  C_15
REMARK    5  A    between atoms: C_18  and  N_19
REMARK                            x       y       z     vdW  Elec       q    Type
REMARK                         _______ _______ _______ _____ _____    ______ ____
ROOT
ATOM      1  C   UNL     1       2.325   7.366  19.266  0.00  0.00    +0.000 A 
ATOM      2  C   UNL     1       1.708   7.929  20.385  0.00  0.00    +0.000 A 
ATOM      3  C   UNL     1       1.043   9.163  20.289  0.00  0.00    +0.000 A 
ATOM      4  C   UNL     1       0.998   9.872  19.078  0.00  0.00    +0.000 A 
ATOM      5  C   UNL     1       1.569   9.265  17.954  0.00  0.00    +0.000 A 
ATOM      6  C   UNL     1       2.236   8.035  18.045  0.00  0.00    +0.000 A 
ENDROOT
BRANCH   4   7
ATOM      7  N   UNL     1       0.460  11.177  19.059  0.00  0.00    +0.000 N 
ATOM      8  C   UNL     1      -0.336  11.742  20.005  0.00  0.00    +0.000 A 
ATOM      9  N   UNL     1      -0.689  11.215  21.156  0.00  0.00    +0.000 NA
ATOM     10  C   UNL     1      -1.586  12.025  21.826  0.00  0.00    +0.000 A 
ATOM     11  C   UNL     1      -2.194  11.733  23.063  0.00  0.00    +0.000 A 
ATOM     12  C   UNL     1      -3.100  12.638  23.625  0.00  0.00    +0.000 A 
ATOM     13  C   UNL     1      -3.396  13.831  22.974  0.00  0.00    +0.000 A 
ATOM     14  C   UNL     1      -2.800  14.146  21.747  0.00  0.00    +0.000 A 
ATOM     15  C   UNL     1      -1.901  13.222  21.186  0.00  0.00    +0.000 A 
ATOM     16  S   UNL     1      -1.036  13.296  19.699  0.00  0.00    +0.000 S 
ATOM     17  H   UNL     1       0.449  11.611  18.144  0.00  0.00    +0.000 HD
ENDBRANCH   4   7
BRANCH   1  18
ATOM     18  O   UNL     1       3.098   6.238  19.473  0.00  0.00    +0.000 OA
BRANCH  18  24
ATOM     19  C   UNL     1       3.221   4.318  18.006  0.00  0.00    +0.000 A 
ATOM     20  C   UNL     1       2.655   3.060  17.699  0.00  0.00    +0.000 A 
ATOM     21  C   UNL     1       1.578   2.543  18.413  0.00  0.00    +0.000 A 
ATOM     22  C   UNL     1       1.088   3.283  19.463  0.00  0.00    +0.000 A 
ATOM     23  N   UNL     1       1.584   4.481  19.817  0.00  0.00    +0.000 NA
ATOM     24  C   UNL     1       2.608   4.998  19.080  0.00  0.00    +0.000 A 
BRANCH  19  29
ATOM     25  C   UNL     1       6.449   6.110  16.989  0.00  0.00    +0.000 A 
ATOM     26  C   UNL     1       6.857   5.355  15.891  0.00  0.00    +0.000 A 
ATOM     27  C   UNL     1       6.042   4.331  15.427  0.00  0.00    +0.000 A 
ATOM     28  C   UNL     1       4.832   4.059  16.074  0.00  0.00    +0.000 A 
ATOM     29  C   UNL     1       4.412   4.766  17.227  0.00  0.00    +0.000 A 
ATOM     30  C   UNL     1       5.243   5.816  17.651  0.00  0.00    +0.000 A 
BRANCH  25  32
ATOM     31  N   UNL     1       7.960   8.037  17.852  0.00  0.00    +0.000 NA
ATOM     32  C   UNL     1       7.282   7.175  17.469  0.00  0.00    +0.000 C 
ENDBRANCH  25  32
ENDBRANCH  19  29
ENDBRANCH  18  24
ENDBRANCH   1  18
TORSDOF 5
ENDMDL
MODEL 9
REMARK VINA RESULT:      -9.1      2.765      3.622
REMARK  Name = 
REMARK  5 active torsions:
REMARK  status: ('A' for Active; 'I' for Inactive)
REMARK    1  A    between atoms: C_2  and  C_3
REMARK    2  A    between atoms: C_7  and  C_8
REMARK    3  A    between atoms: C_13  and  O_14
REMARK    4  A    between atoms: O_14  and  C_15
REMARK    5  A    between atoms: C_18  and  N_19
REMARK                            x       y       z     vdW  Elec       q    Type
REMARK                         _______ _______ _______ _____ _____    ______ ____
ROOT
ATOM      1  C   UNL     1       2.498   7.344  19.440  0.00  0.00    +0.000 A 
ATOM      2  C   UNL     1       2.384   7.956  18.190  0.00  0.00    +0.000 A 
ATOM      3  C   UNL     1       1.527   9.055  18.009  0.00  0.00    +0.000 A 
ATOM      4  C   UNL     1       0.751   9.553  19.068  0.00  0.00    +0.000 A 
ATOM      5  C   UNL     1       0.924   8.966  20.326  0.00  0.00    +0.000 A 
ATOM      6  C   UNL     1       1.774   7.867  20.511  0.00  0.00    +0.000 A 
ENDROOT
BRANCH   4   7
ATOM      7  N   UNL     1      -0.211  10.554  18.811  0.00  0.00    +0.000 N 
ATOM      8  C   UNL     1      -0.952  11.225  19.733  0.00  0.00    +0.000 A 
ATOM      9  N   UNL     1      -0.855  11.133  21.040  0.00  0.00    +0.000 NA
ATOM     10  C   UNL     1      -1.830  11.883  21.670  0.00  0.00    +0.000 A 
ATOM     11  C   UNL     1      -2.034  11.966  23.062  0.00  0.00    +0.000 A 
ATOM     12  C   UNL     1      -3.072  12.754  23.568  0.00  0.00    +0.000 A 
ATOM     13  C   UNL     1      -3.899  13.465  22.706  0.00  0.00    +0.000 A 
ATOM     14  C   UNL     1      -3.713  13.403  21.320  0.00  0.00    +0.000 A 
ATOM     15  C   UNL     1      -2.673  12.597  20.822  0.00  0.00    +0.000 A 
ATOM     16  S   UNL     1      -2.207  12.288  19.193  0.00  0.00    +0.000 S 
ATOM     17  H   UNL     1      -0.559  10.565  17.860  0.00  0.00    +0.000 HD
ENDBRANCH   4   7
BRANCH   1  18
ATOM     18  O   UNL     1       3.228   6.171  19.501  0.00  0.00    +0.000 OA
BRANCH  18  24
ATOM     19  C   UNL     1       3.172   4.293  17.976  0.00  0.00    +0.000 A 
ATOM     20  C   UNL     1       2.509   3.090  17.648  0.00  0.00    +0.000 A 
ATOM     21  C   UNL     1       1.418   2.628  18.377  0.00  0.00    +0.000 A 
ATOM     22  C   UNL     1       1.010   3.369  19.463  0.00  0.00    +0.000 A 
ATOM     23  N   UNL     1       1.601   4.517  19.836  0.00  0.00    +0.000 NA
ATOM     24  C   UNL     1       2.640   4.981  19.086  0.00  0.00    +0.000 A 
BRANCH  19  29
ATOM     25  C   UNL     1       6.372   6.052  16.818  0.00  0.00    +0.000 A 
ATOM     26  C   UNL     1       6.836   5.177  15.837  0.00  0.00    +0.000 A 
ATOM     27  C   UNL     1       6.067   4.075  15.489  0.00  0.00    +0.000 A 
ATOM     28  C   UNL     1       4.848   3.845  16.134  0.00  0.00    +0.000 A 
ATOM     29  C   UNL     1       4.372   4.679  17.175  0.00  0.00    +0.000 A 
ATOM     30  C   UNL     1       5.157   5.803  17.482  0.00  0.00    +0.000 A 
BRANCH  25  32
ATOM     31  N   UNL     1       7.788   8.130  17.467  0.00  0.00    +0.000 NA
ATOM     32  C   UNL     1       7.157   7.197  17.178  0.00  0.00    +0.000 C 
ENDBRANCH  25  32
ENDBRANCH  19  29
ENDBRANCH  18  24
ENDBRANCH   1  18
TORSDOF 5
ENDMDL
