MODEL 1
REMARK VINA RESULT:      -6.4      0.000      0.000
REMARK  Name = 
REMARK  1 active torsions:
REMARK  status: ('A' for Active; 'I' for Inactive)
REMARK    1  A    between atoms: C_2  and  C_3
REMARK                            x       y       z     vdW  Elec       q    Type
REMARK                         _______ _______ _______ _____ _____    ______ ____
ROOT
ATOM      1  O   UNL     1      -0.200  10.146  23.583  0.00  0.00    +0.000 OA
ATOM      2  C   UNL     1      -0.681  10.868  22.711  0.00  0.00    +0.000 C 
ATOM      3  N   UNL     1      -0.563  10.572  21.342  0.00  0.00    +0.000 N 
ATOM      4  C   UNL     1      -0.060   9.256  20.946  0.00  0.00    +0.000 C 
ATOM      5  C   UNL     1       0.970   9.360  19.825  0.00  0.00    +0.000 C 
ATOM      6  C   UNL     1       0.444  10.188  18.650  0.00  0.00    +0.000 C 
ATOM      7  C   UNL     1      -0.035  11.573  19.111  0.00  0.00    +0.000 C 
ATOM      8  C   UNL     1      -0.669  12.381  17.955  0.00  0.00    +0.000 C 
ATOM      9  C   UNL     1      -0.387  13.841  18.311  0.00  0.00    +0.000 C 
ATOM     10  N   UNL     1       0.913  13.746  18.919  0.00  0.00    +0.000 N 
ATOM     11  C   UNL     1       1.677  14.831  19.234  0.00  0.00    +0.000 A 
ATOM     12  N   UNL     1       1.203  16.063  18.982  0.00  0.00    +0.000 NA
ATOM     13  C   UNL     1       2.010  17.104  19.261  0.00  0.00    +0.000 A 
ATOM     14  C   UNL     1       3.282  16.972  19.756  0.00  0.00    +0.000 A 
ATOM     15  C   UNL     1       3.682  15.682  19.982  0.00  0.00    +0.000 A 
ATOM     16  N   UNL     1       2.902  14.612  19.747  0.00  0.00    +0.000 NA
ATOM     17  C   UNL     1       1.148  12.471  19.566  0.00  0.00    +0.000 C 
ATOM     18  C   UNL     1      -1.059  11.411  20.248  0.00  0.00    +0.000 C 
ENDROOT
BRANCH   2  19
ATOM     19  C   UNL     1      -1.361  12.121  23.157  0.00  0.00    +0.000 A 
ATOM     20  C   UNL     1      -2.724  12.090  23.418  0.00  0.00    +0.000 A 
ATOM     21  N   UNL     1      -3.401  13.165  23.903  0.00  0.00    +0.000 NA
ATOM     22  C   UNL     1      -2.651  14.273  24.110  0.00  0.00    +0.000 A 
ATOM     23  C   UNL     1      -1.299  14.318  23.820  0.00  0.00    +0.000 A 
ATOM     24  N   UNL     1      -0.629  13.258  23.314  0.00  0.00    +0.000 NA
ENDBRANCH   2  19
TORSDOF 1
ENDMDL
MODEL 2
REMARK VINA RESULT:      -6.2      0.789      1.137
REMARK  Name = 
REMARK  1 active torsions:
REMARK  status: ('A' for Active; 'I' for Inactive)
REMARK    1  A    between atoms: C_2  and  C_3
REMARK                            x       y       z     vdW  Elec       q    Type
REMARK                         _______ _______ _______ _____ _____    ______ ____
ROOT
ATOM      1  O   UNL     1      -0.093  10.020  23.751  0.00  0.00    +0.000 OA
ATOM      2  C   UNL     1      -0.657  10.592  22.819  0.00  0.00    +0.000 C 
ATOM      3  N   UNL     1      -0.477  10.202  21.480  0.00  0.00    +0.000 N 
ATOM      4  C   UNL     1       0.212   8.943  21.199  0.00  0.00    +0.000 C 
ATOM      5  C   UNL     1       1.235   9.097  20.078  0.00  0.00    +0.000 C 
ATOM      6  C   UNL     1       0.617   9.741  18.835  0.00  0.00    +0.000 C 
ATOM      7  C   UNL     1      -0.059  11.079  19.175  0.00  0.00    +0.000 C 
ATOM      8  C   UNL     1      -0.783  11.689  17.953  0.00  0.00    +0.000 C 
ATOM      9  C   UNL     1      -0.715  13.200  18.184  0.00  0.00    +0.000 C 
ATOM     10  N   UNL     1       0.577  13.340  18.804  0.00  0.00    +0.000 N 
ATOM     11  C   UNL     1       1.176  14.545  19.028  0.00  0.00    +0.000 A 
ATOM     12  N   UNL     1       0.536  15.672  18.671  0.00  0.00    +0.000 NA
ATOM     13  C   UNL     1       1.185  16.837  18.864  0.00  0.00    +0.000 A 
ATOM     14  C   UNL     1       2.455  16.927  19.374  0.00  0.00    +0.000 A 
ATOM     15  C   UNL     1       3.029  15.730  19.709  0.00  0.00    +0.000 A 
ATOM     16  N   UNL     1       2.410  14.545  19.562  0.00  0.00    +0.000 NA
ATOM     17  C   UNL     1       0.978  12.170  19.557  0.00  0.00    +0.000 C 
ATOM     18  C   UNL     1      -1.068  10.869  20.318  0.00  0.00    +0.000 C 
ENDROOT
BRANCH   2  19
ATOM     19  C   UNL     1      -1.513  11.768  23.155  0.00  0.00    +0.000 A 
ATOM     20  C   UNL     1      -0.958  13.039  23.108  0.00  0.00    +0.000 A 
ATOM     21  N   UNL     1      -1.690  14.165  23.324  0.00  0.00    +0.000 NA
ATOM     22  C   UNL     1      -3.001  13.958  23.592  0.00  0.00    +0.000 A 
ATOM     23  C   UNL     1      -3.550  12.691  23.674  0.00  0.00    +0.000 A 
ATOM     24  N   UNL     1      -2.820  11.570  23.484  0.00  0.00    +0.000 NA
ENDBRANCH   2  19
TORSDOF 1
ENDMDL
MODEL 3
REMARK VINA RESULT:      -5.9      6.560      9.699
REMARK  Name = 
REMARK  1 active torsions:
REMARK  status: ('A' for Active; 'I' for Inactive)
REMARK    1  A    between atoms: C_2  and  C_3
REMARK                            x       y       z     vdW  Elec       q    Type
REMARK                         _______ _______ _______ _____ _____    ______ ____
ROOT
ATOM      1  O   UNL     1       5.776   3.582  15.877  0.00  0.00    +0.000 OA
ATOM      2  C   UNL     1       5.566   3.993  17.017  0.00  0.00    +0.000 C 
ATOM      3  N   UNL     1       4.505   3.513  17.805  0.00  0.00    +0.000 N 
ATOM      4  C   UNL     1       3.771   2.331  17.353  0.00  0.00    +0.000 C 
ATOM      5  C   UNL     1       2.263   2.513  17.498  0.00  0.00    +0.000 C 
ATOM      6  C   UNL     1       1.882   2.963  18.910  0.00  0.00    +0.000 C 
ATOM      7  C   UNL     1       2.650   4.228  19.322  0.00  0.00    +0.000 C 
ATOM      8  C   UNL     1       2.358   4.632  20.786  0.00  0.00    +0.000 C 
ATOM      9  C   UNL     1       2.516   6.154  20.800  0.00  0.00    +0.000 C 
ATOM     10  N   UNL     1       2.005   6.511  19.503  0.00  0.00    +0.000 N 
ATOM     11  C   UNL     1       1.762   7.796  19.119  0.00  0.00    +0.000 A 
ATOM     12  N   UNL     1       2.018   8.797  19.978  0.00  0.00    +0.000 NA
ATOM     13  C   UNL     1       1.715  10.048  19.576  0.00  0.00    +0.000 A 
ATOM     14  C   UNL     1       1.144  10.343  18.366  0.00  0.00    +0.000 A 
ATOM     15  C   UNL     1       0.918   9.262  17.556  0.00  0.00    +0.000 A 
ATOM     16  N   UNL     1       1.229   8.000  17.900  0.00  0.00    +0.000 NA
ATOM     17  C   UNL     1       2.191   5.471  18.511  0.00  0.00    +0.000 C 
ATOM     18  C   UNL     1       4.160   3.994  19.145  0.00  0.00    +0.000 C 
ENDROOT
BRANCH   2  19
ATOM     19  C   UNL     1       6.457   5.077  17.529  0.00  0.00    +0.000 A 
ATOM     20  C   UNL     1       6.469   6.302  16.877  0.00  0.00    +0.000 A 
ATOM     21  N   UNL     1       7.192   7.363  17.326  0.00  0.00    +0.000 NA
ATOM     22  C   UNL     1       7.905   7.138  18.455  0.00  0.00    +0.000 A 
ATOM     23  C   UNL     1       7.923   5.908  19.088  0.00  0.00    +0.000 A 
ATOM     24  N   UNL     1       7.225   4.845  18.630  0.00  0.00    +0.000 NA
ENDBRANCH   2  19
TORSDOF 1
ENDMDL
MODEL 4
REMARK VINA RESULT:      -5.7      6.429      9.508
REMARK  Name = 
REMARK  1 active torsions:
REMARK  status: ('A' for Active; 'I' for Inactive)
REMARK    1  A    between atoms: C_2  and  C_3
REMARK                            x       y       z     vdW  Elec       q    Type
REMARK                         _______ _______ _______ _____ _____    ______ ____
ROOT
ATOM      1  O   UNL     1       6.036   4.376  15.650  0.00  0.00    +0.000 OA
ATOM      2  C   UNL     1       5.776   4.672  16.815  0.00  0.00    +0.000 C 
ATOM      3  N   UNL     1       4.725   4.066  17.527  0.00  0.00    +0.000 N 
ATOM      4  C   UNL     1       4.071   2.890  16.953  0.00  0.00    +0.000 C 
ATOM      5  C   UNL     1       2.552   2.976  17.070  0.00  0.00    +0.000 C 
ATOM      6  C   UNL     1       2.113   3.277  18.504  0.00  0.00    +0.000 C 
ATOM      7  C   UNL     1       2.797   4.541  19.047  0.00  0.00    +0.000 C 
ATOM      8  C   UNL     1       2.448   4.797  20.531  0.00  0.00    +0.000 C 
ATOM      9  C   UNL     1       2.518   6.317  20.683  0.00  0.00    +0.000 C 
ATOM     10  N   UNL     1       2.018   6.759  19.408  0.00  0.00    +0.000 N 
ATOM     11  C   UNL     1       1.711   8.059  19.130  0.00  0.00    +0.000 A 
ATOM     12  N   UNL     1       1.889   8.992  20.080  0.00  0.00    +0.000 NA
ATOM     13  C   UNL     1       1.525  10.255  19.781  0.00  0.00    +0.000 A 
ATOM     14  C   UNL     1       0.967  10.624  18.585  0.00  0.00    +0.000 A 
ATOM     15  C   UNL     1       0.822   9.609  17.677  0.00  0.00    +0.000 A 
ATOM     16  N   UNL     1       1.197   8.340  17.919  0.00  0.00    +0.000 NA
ATOM     17  C   UNL     1       2.288   5.824  18.334  0.00  0.00    +0.000 C 
ATOM     18  C   UNL     1       4.322   4.407  18.893  0.00  0.00    +0.000 C 
ENDROOT
BRANCH   2  19
ATOM     19  C   UNL     1       6.591   5.753  17.445  0.00  0.00    +0.000 A 
ATOM     20  C   UNL     1       7.379   5.447  18.546  0.00  0.00    +0.000 A 
ATOM     21  N   UNL     1       8.209   6.354  19.126  0.00  0.00    +0.000 NA
ATOM     22  C   UNL     1       8.210   7.582  18.556  0.00  0.00    +0.000 A 
ATOM     23  C   UNL     1       7.401   7.901  17.480  0.00  0.00    +0.000 A 
ATOM     24  N   UNL     1       6.557   7.008  16.917  0.00  0.00    +0.000 NA
ENDBRANCH   2  19
TORSDOF 1
ENDMDL
MODEL 5
REMARK VINA RESULT:      -5.6      2.112      5.857
REMARK  Name = 
REMARK  1 active torsions:
REMARK  status: ('A' for Active; 'I' for Inactive)
REMARK    1  A    between atoms: C_2  and  C_3
REMARK                            x       y       z     vdW  Elec       q    Type
REMARK                         _______ _______ _______ _____ _____    ______ ____
ROOT
ATOM      1  O   UNL     1       1.826  15.310  22.784  0.00  0.00    +0.000 OA
ATOM      2  C   UNL     1       1.275  14.975  21.736  0.00  0.00    +0.000 C 
ATOM      3  N   UNL     1      -0.020  14.429  21.710  0.00  0.00    +0.000 N 
ATOM      4  C   UNL     1      -0.828  14.474  22.929  0.00  0.00    +0.000 C 
ATOM      5  C   UNL     1      -1.528  13.144  23.191  0.00  0.00    +0.000 C 
ATOM      6  C   UNL     1      -2.306  12.663  21.964  0.00  0.00    +0.000 C 
ATOM      7  C   UNL     1      -1.405  12.596  20.721  0.00  0.00    +0.000 C 
ATOM      8  C   UNL     1      -2.200  12.218  19.449  0.00  0.00    +0.000 C 
ATOM      9  C   UNL     1      -1.187  11.481  18.572  0.00  0.00    +0.000 C 
ATOM     10  N   UNL     1      -0.407  10.778  19.556  0.00  0.00    +0.000 N 
ATOM     11  C   UNL     1       0.513   9.821  19.244  0.00  0.00    +0.000 A 
ATOM     12  N   UNL     1       0.727   9.514  17.953  0.00  0.00    +0.000 NA
ATOM     13  C   UNL     1       1.607   8.528  17.691  0.00  0.00    +0.000 A 
ATOM     14  C   UNL     1       2.265   7.816  18.660  0.00  0.00    +0.000 A 
ATOM     15  C   UNL     1       1.986   8.197  19.946  0.00  0.00    +0.000 A 
ATOM     16  N   UNL     1       1.138   9.193  20.256  0.00  0.00    +0.000 NA
ATOM     17  C   UNL     1      -0.350  11.461  20.833  0.00  0.00    +0.000 C 
ATOM     18  C   UNL     1      -0.715  13.956  20.511  0.00  0.00    +0.000 C 
ENDROOT
BRANCH   2  19
ATOM     19  C   UNL     1       2.060  15.119  20.474  0.00  0.00    +0.000 A 
ATOM     20  C   UNL     1       2.020  16.326  19.790  0.00  0.00    +0.000 A 
ATOM     21  N   UNL     1       2.767  16.563  18.679  0.00  0.00    +0.000 NA
ATOM     22  C   UNL     1       3.552  15.534  18.282  0.00  0.00    +0.000 A 
ATOM     23  C   UNL     1       3.569  14.317  18.940  0.00  0.00    +0.000 A 
ATOM     24  N   UNL     1       2.809  14.071  20.031  0.00  0.00    +0.000 NA
ENDBRANCH   2  19
TORSDOF 1
ENDMDL
MODEL 6
REMARK VINA RESULT:      -5.6      3.156      5.659
REMARK  Name = 
REMARK  1 active torsions:
REMARK  status: ('A' for Active; 'I' for Inactive)
REMARK    1  A    between atoms: C_2  and  C_3
REMARK                            x       y       z     vdW  Elec       q    Type
REMARK                         _______ _______ _______ _____ _____    ______ ____
ROOT
ATOM      1  O   UNL     1      -4.871  14.952  20.318  0.00  0.00    +0.000 OA
ATOM      2  C   UNL     1      -4.508  13.850  20.727  0.00  0.00    +0.000 C 
ATOM      3  N   UNL     1      -3.690  13.702  21.861  0.00  0.00    +0.000 N 
ATOM      4  C   UNL     1      -3.453  14.866  22.715  0.00  0.00    +0.000 C 
ATOM      5  C   UNL     1      -1.983  14.990  23.105  0.00  0.00    +0.000 C 
ATOM      6  C   UNL     1      -1.444  13.684  23.694  0.00  0.00    +0.000 C 
ATOM      7  C   UNL     1      -1.682  12.500  22.743  0.00  0.00    +0.000 C 
ATOM      8  C   UNL     1      -1.242  11.157  23.369  0.00  0.00    +0.000 C 
ATOM      9  C   UNL     1      -0.824  10.298  22.174  0.00  0.00    +0.000 C 
ATOM     10  N   UNL     1      -0.235  11.280  21.303  0.00  0.00    +0.000 N 
ATOM     11  C   UNL     1       0.463  10.963  20.175  0.00  0.00    +0.000 A 
ATOM     12  N   UNL     1       0.607   9.671  19.835  0.00  0.00    +0.000 NA
ATOM     13  C   UNL     1       1.346   9.399  18.742  0.00  0.00    +0.000 A 
ATOM     14  C   UNL     1       1.971  10.357  17.986  0.00  0.00    +0.000 A 
ATOM     15  C   UNL     1       1.769  11.645  18.405  0.00  0.00    +0.000 A 
ATOM     16  N   UNL     1       1.016  11.967  19.472  0.00  0.00    +0.000 NA
ATOM     17  C   UNL     1      -0.807  12.602  21.464  0.00  0.00    +0.000 C 
ATOM     18  C   UNL     1      -3.174  12.431  22.372  0.00  0.00    +0.000 C 
ENDROOT
BRANCH   2  19
ATOM     19  C   UNL     1      -4.927  12.655  19.936  0.00  0.00    +0.000 A 
ATOM     20  C   UNL     1      -6.161  12.075  20.196  0.00  0.00    +0.000 A 
ATOM     21  N   UNL     1      -6.649  11.035  19.468  0.00  0.00    +0.000 NA
ATOM     22  C   UNL     1      -5.842  10.600  18.472  0.00  0.00    +0.000 A 
ATOM     23  C   UNL     1      -4.597  11.153  18.231  0.00  0.00    +0.000 A 
ATOM     24  N   UNL     1      -4.099  12.171  18.969  0.00  0.00    +0.000 NA
ENDBRANCH   2  19
TORSDOF 1
ENDMDL
MODEL 7
REMARK VINA RESULT:      -5.6      2.923      6.160
REMARK  Name = 
REMARK  1 active torsions:
REMARK  status: ('A' for Active; 'I' for Inactive)
REMARK    1  A    between atoms: C_2  and  C_3
REMARK                            x       y       z     vdW  Elec       q    Type
REMARK                         _______ _______ _______ _____ _____    ______ ____
ROOT
ATOM      1  O   UNL     1      -0.386   9.916  18.040  0.00  0.00    +0.000 OA
ATOM      2  C   UNL     1      -0.890  11.031  18.161  0.00  0.00    +0.000 C 
ATOM      3  N   UNL     1      -0.212  12.100  18.772  0.00  0.00    +0.000 N 
ATOM      4  C   UNL     1       1.214  11.954  19.065  0.00  0.00    +0.000 C 
ATOM      5  C   UNL     1       1.557  12.457  20.464  0.00  0.00    +0.000 C 
ATOM      6  C   UNL     1       1.030  13.875  20.699  0.00  0.00    +0.000 C 
ATOM      7  C   UNL     1      -0.477  13.967  20.416  0.00  0.00    +0.000 C 
ATOM      8  C   UNL     1      -1.004  15.415  20.542  0.00  0.00    +0.000 C 
ATOM      9  C   UNL     1      -2.458  15.255  20.987  0.00  0.00    +0.000 C 
ATOM     10  N   UNL     1      -2.375  14.102  21.844  0.00  0.00    +0.000 N 
ATOM     11  C   UNL     1      -3.400  13.679  22.638  0.00  0.00    +0.000 A 
ATOM     12  N   UNL     1      -4.562  14.354  22.623  0.00  0.00    +0.000 NA
ATOM     13  C   UNL     1      -5.531  13.934  23.460  0.00  0.00    +0.000 A 
ATOM     14  C   UNL     1      -5.384  12.885  24.331  0.00  0.00    +0.000 A 
ATOM     15  C   UNL     1      -4.168  12.256  24.277  0.00  0.00    +0.000 A 
ATOM     16  N   UNL     1      -3.182  12.621  23.439  0.00  0.00    +0.000 NA
ATOM     17  C   UNL     1      -1.311  13.191  21.472  0.00  0.00    +0.000 C 
ATOM     18  C   UNL     1      -0.768  13.436  19.001  0.00  0.00    +0.000 C 
ENDROOT
BRANCH   2  19
ATOM     19  C   UNL     1      -2.292  11.204  17.676  0.00  0.00    +0.000 A 
ATOM     20  C   UNL     1      -2.557  11.066  16.321  0.00  0.00    +0.000 A 
ATOM     21  N   UNL     1      -3.816  11.130  15.811  0.00  0.00    +0.000 NA
ATOM     22  C   UNL     1      -4.797  11.343  16.721  0.00  0.00    +0.000 A 
ATOM     23  C   UNL     1      -4.533  11.515  18.068  0.00  0.00    +0.000 A 
ATOM     24  N   UNL     1      -3.280  11.476  18.574  0.00  0.00    +0.000 NA
ENDBRANCH   2  19
TORSDOF 1
ENDMDL
MODEL 8
REMARK VINA RESULT:      -5.5      2.053      5.609
REMARK  Name = 
REMARK  1 active torsions:
REMARK  status: ('A' for Active; 'I' for Inactive)
REMARK    1  A    between atoms: C_2  and  C_3
REMARK                            x       y       z     vdW  Elec       q    Type
REMARK                         _______ _______ _______ _____ _____    ______ ____
ROOT
ATOM      1  O   UNL     1       0.558  15.265  23.092  0.00  0.00    +0.000 OA
ATOM      2  C   UNL     1       0.250  14.942  21.946  0.00  0.00    +0.000 C 
ATOM      3  N   UNL     1      -0.980  14.335  21.641  0.00  0.00    +0.000 N 
ATOM      4  C   UNL     1      -2.021  14.296  22.669  0.00  0.00    +0.000 C 
ATOM      5  C   UNL     1      -2.685  12.925  22.748  0.00  0.00    +0.000 C 
ATOM      6  C   UNL     1      -3.169  12.452  21.375  0.00  0.00    +0.000 C 
ATOM      7  C   UNL     1      -2.032  12.474  20.342  0.00  0.00    +0.000 C 
ATOM      8  C   UNL     1      -2.529  12.104  18.925  0.00  0.00    +0.000 C 
ATOM      9  C   UNL     1      -1.320  11.449  18.256  0.00  0.00    +0.000 C 
ATOM     10  N   UNL     1      -0.720  10.750  19.361  0.00  0.00    +0.000 N 
ATOM     11  C   UNL     1       0.296   9.851  19.219  0.00  0.00    +0.000 A 
ATOM     12  N   UNL     1       0.785   9.601  17.992  0.00  0.00    +0.000 NA
ATOM     13  C   UNL     1       1.752   8.670  17.891  0.00  0.00    +0.000 A 
ATOM     14  C   UNL     1       2.238   7.955  18.956  0.00  0.00    +0.000 A 
ATOM     15  C   UNL     1       1.682   8.276  20.167  0.00  0.00    +0.000 A 
ATOM     16  N   UNL     1       0.736   9.218  20.321  0.00  0.00    +0.000 NA
ATOM     17  C   UNL     1      -0.961  11.388  20.639  0.00  0.00    +0.000 C 
ATOM     18  C   UNL     1      -1.390  13.872  20.313  0.00  0.00    +0.000 C 
ENDROOT
BRANCH   2  19
ATOM     19  C   UNL     1       1.267  15.169  20.875  0.00  0.00    +0.000 A 
ATOM     20  C   UNL     1       2.244  14.208  20.660  0.00  0.00    +0.000 A 
ATOM     21  N   UNL     1       3.156  14.303  19.656  0.00  0.00    +0.000 NA
ATOM     22  C   UNL     1       3.046  15.407  18.880  0.00  0.00    +0.000 A 
ATOM     23  C   UNL     1       2.095  16.385  19.112  0.00  0.00    +0.000 A 
ATOM     24  N   UNL     1       1.203  16.304  20.125  0.00  0.00    +0.000 NA
ENDBRANCH   2  19
TORSDOF 1
ENDMDL
MODEL 9
REMARK VINA RESULT:      -5.5      6.587      9.557
REMARK  Name = 
REMARK  1 active torsions:
REMARK  status: ('A' for Active; 'I' for Inactive)
REMARK    1  A    between atoms: C_2  and  C_3
REMARK                            x       y       z     vdW  Elec       q    Type
REMARK                         _______ _______ _______ _____ _____    ______ ____
ROOT
ATOM      1  O   UNL     1       7.429  12.671  16.774  0.00  0.00    +0.000 OA
ATOM      2  C   UNL     1       7.778  13.495  17.618  0.00  0.00    +0.000 C 
ATOM      3  N   UNL     1       9.008  13.404  18.293  0.00  0.00    +0.000 N 
ATOM      4  C   UNL     1      10.002  12.442  17.817  0.00  0.00    +0.000 C 
ATOM      5  C   UNL     1      10.634  11.668  18.970  0.00  0.00    +0.000 C 
ATOM      6  C   UNL     1      11.167  12.606  20.055  0.00  0.00    +0.000 C 
ATOM      7  C   UNL     1      10.076  13.569  20.548  0.00  0.00    +0.000 C 
ATOM      8  C   UNL     1      10.625  14.596  21.565  0.00  0.00    +0.000 C 
ATOM      9  C   UNL     1       9.433  14.913  22.469  0.00  0.00    +0.000 C 
ATOM     10  N   UNL     1       8.772  13.637  22.537  0.00  0.00    +0.000 N 
ATOM     11  C   UNL     1       7.745  13.366  23.392  0.00  0.00    +0.000 A 
ATOM     12  N   UNL     1       7.304  14.333  24.214  0.00  0.00    +0.000 NA
ATOM     13  C   UNL     1       6.323  14.009  25.078  0.00  0.00    +0.000 A 
ATOM     14  C   UNL     1       5.778  12.754  25.178  0.00  0.00    +0.000 A 
ATOM     15  C   UNL     1       6.287  11.833  24.302  0.00  0.00    +0.000 A 
ATOM     16  N   UNL     1       7.246  12.117  23.403  0.00  0.00    +0.000 NA
ATOM     17  C   UNL     1       8.972  12.828  21.351  0.00  0.00    +0.000 C 
ATOM     18  C   UNL     1       9.464  14.312  19.347  0.00  0.00    +0.000 C 
ENDROOT
BRANCH   2  19
ATOM     19  C   UNL     1       6.813  14.585  17.950  0.00  0.00    +0.000 A 
ATOM     20  C   UNL     1       5.454  14.304  17.950  0.00  0.00    +0.000 A 
ATOM     21  N   UNL     1       4.517  15.220  18.317  0.00  0.00    +0.000 NA
ATOM     22  C   UNL     1       5.004  16.430  18.679  0.00  0.00    +0.000 A 
ATOM     23  C   UNL     1       6.356  16.724  18.648  0.00  0.00    +0.000 A 
ATOM     24  N   UNL     1       7.287  15.824  18.260  0.00  0.00    +0.000 NA
ENDBRANCH   2  19
TORSDOF 1
ENDMDL
