MODEL 1
REMARK VINA RESULT:      -6.8      0.000      0.000
REMARK  Name = 
REMARK  8 active torsions:
REMARK  status: ('A' for Active; 'I' for Inactive)
REMARK    1  A    between atoms: C_1  and  C_2
REMARK    2  A    between atoms: C_2  and  C_3
REMARK    3  A    between atoms: C_6  and  C_8
REMARK    4  A    between atoms: C_13  and  N_14
REMARK    5  A    between atoms: C_15  and  C_17
REMARK    6  A    between atoms: C_17  and  O_18
REMARK    7  A    between atoms: C_21  and  O_22
REMARK    8  A    between atoms: C_21  and  C_23
REMARK                            x       y       z     vdW  Elec       q    Type
REMARK                         _______ _______ _______ _____ _____    ______ ____
ROOT
ATOM      1  C   UNL     1      -0.890   8.628  20.679  0.00  0.00    +0.000 C 
ATOM      2  C   UNL     1       0.022   9.880  20.509  0.00  0.00    +0.000 C 
ATOM      3  C   UNL     1      -0.309  10.805  21.698  0.00  0.00    +0.000 C 
ATOM      4  C   UNL     1       1.480   9.386  20.611  0.00  0.00    +0.000 C 
ATOM      5  N   UNL     1       1.810   8.505  19.483  0.00  0.00    +0.000 N 
ATOM      6  C   UNL     1       2.193   7.190  19.757  0.00  0.00    +0.000 C 
ATOM      7  O   UNL     1       2.249   6.751  20.907  0.00  0.00    +0.000 OA
ATOM      8  C   UNL     1       1.667   9.110  18.153  0.00  0.00    +0.000 C 
ATOM      9  C   UNL     1       0.279   9.717  17.951  0.00  0.00    +0.000 C 
ATOM     10  C   UNL     1      -0.213  10.603  19.125  0.00  0.00    +0.000 C 
ENDROOT
BRANCH  10  11
ATOM     11  C   UNL     1       0.370  12.040  19.007  0.00  0.00    +0.000 A 
ATOM     12  C   UNL     1      -0.484  13.163  18.932  0.00  0.00    +0.000 A 
ATOM     13  C   UNL     1       0.012  14.465  18.788  0.00  0.00    +0.000 A 
ATOM     14  C   UNL     1       1.380  14.686  18.717  0.00  0.00    +0.000 A 
ATOM     15 CL   UNL     1       1.998  16.277  18.524  0.00  0.00    +0.000 Cl
ATOM     16  C   UNL     1       2.253  13.611  18.800  0.00  0.00    +0.000 A 
ATOM     17  C   UNL     1       1.749  12.311  18.947  0.00  0.00    +0.000 A 
ENDBRANCH  10  11
BRANCH   6  18
ATOM     18  C   UNL     1       2.530   6.285  18.578  0.00  0.00    +0.000 C 
ATOM     19  C   UNL     1       4.037   6.183  18.284  0.00  0.00    +0.000 C 
ATOM     20  C   UNL     1       4.284   5.341  17.027  0.00  0.00    +0.000 C 
ATOM     21  C   UNL     1       3.557   3.993  17.037  0.00  0.00    +0.000 C 
ATOM     22  C   UNL     1       2.088   4.115  17.442  0.00  0.00    +0.000 C 
ATOM     23  C   UNL     1       1.928   4.880  18.759  0.00  0.00    +0.000 C 
BRANCH  23  24
ATOM     24  N   UNL     1       2.515   4.132  19.874  0.00  0.00    +0.000 N 
ATOM     25  C   UNL     1       1.775   3.240  20.617  0.00  0.00    +0.000 C 
ATOM     26  O   UNL     1       0.571   3.058  20.469  0.00  0.00    +0.000 OA
ATOM     27  H   UNL     1       3.516   4.156  20.010  0.00  0.00    +0.000 HD
BRANCH  25  28
ATOM     28  C   UNL     1       2.567   2.481  21.683  0.00  0.00    +0.000 C 
BRANCH  28  29
ATOM     29  O   UNL     1       3.897   2.221  21.258  0.00  0.00    +0.000 OA
ATOM     30  H   UNL     1       4.355   3.088  21.264  0.00  0.00    +0.000 HD
ENDBRANCH  28  29
ENDBRANCH  25  28
ENDBRANCH  23  24
ENDBRANCH   6  18
BRANCH  10  31
ATOM     31  O   UNL     1      -1.641  10.745  18.941  0.00  0.00    +0.000 OA
ATOM     32  H   UNL     1      -1.822  11.601  18.519  0.00  0.00    +0.000 HD
ENDBRANCH  10  31
TORSDOF 6
ENDMDL
MODEL 2
REMARK VINA RESULT:      -6.2      5.302      7.712
REMARK  Name = 
REMARK  8 active torsions:
REMARK  status: ('A' for Active; 'I' for Inactive)
REMARK    1  A    between atoms: C_1  and  C_2
REMARK    2  A    between atoms: C_2  and  C_3
REMARK    3  A    between atoms: C_6  and  C_8
REMARK    4  A    between atoms: C_13  and  N_14
REMARK    5  A    between atoms: C_15  and  C_17
REMARK    6  A    between atoms: C_17  and  O_18
REMARK    7  A    between atoms: C_21  and  O_22
REMARK    8  A    between atoms: C_21  and  C_23
REMARK                            x       y       z     vdW  Elec       q    Type
REMARK                         _______ _______ _______ _____ _____    ______ ____
ROOT
ATOM      1  C   UNL     1       1.926  16.206  20.694  0.00  0.00    +0.000 C 
ATOM      2  C   UNL     1       3.377  15.726  20.387  0.00  0.00    +0.000 C 
ATOM      3  C   UNL     1       4.283  16.452  21.402  0.00  0.00    +0.000 C 
ATOM      4  C   UNL     1       3.406  14.205  20.643  0.00  0.00    +0.000 C 
ATOM      5  N   UNL     1       2.548  13.500  19.681  0.00  0.00    +0.000 N 
ATOM      6  C   UNL     1       1.477  12.750  20.172  0.00  0.00    +0.000 C 
ATOM      7  O   UNL     1       1.229  12.674  21.377  0.00  0.00    +0.000 OA
ATOM      8  C   UNL     1       2.901  13.692  18.269  0.00  0.00    +0.000 C 
ATOM      9  C   UNL     1       2.988  15.173  17.901  0.00  0.00    +0.000 C 
ATOM     10  C   UNL     1       3.803  16.037  18.898  0.00  0.00    +0.000 C 
ENDROOT
BRANCH  10  11
ATOM     11  C   UNL     1       5.325  15.931  18.596  0.00  0.00    +0.000 A 
ATOM     12  C   UNL     1       6.189  17.020  18.846  0.00  0.00    +0.000 A 
ATOM     13  C   UNL     1       7.557  16.967  18.549  0.00  0.00    +0.000 A 
ATOM     14  C   UNL     1       8.105  15.820  17.995  0.00  0.00    +0.000 A 
ATOM     15 CL   UNL     1       9.778  15.749  17.612  0.00  0.00    +0.000 Cl
ATOM     16  C   UNL     1       7.293  14.722  17.747  0.00  0.00    +0.000 A 
ATOM     17  C   UNL     1       5.925  14.783  18.049  0.00  0.00    +0.000 A 
ENDBRANCH  10  11
BRANCH   6  18
ATOM     18  C   UNL     1       0.593  12.025  19.164  0.00  0.00    +0.000 C 
ATOM     19  C   UNL     1       0.693  10.491  19.239  0.00  0.00    +0.000 C 
ATOM     20  C   UNL     1      -0.145   9.843  18.130  0.00  0.00    +0.000 C 
ATOM     21  C   UNL     1      -1.580  10.373  18.054  0.00  0.00    +0.000 C 
ATOM     22  C   UNL     1      -1.650  11.899  18.094  0.00  0.00    +0.000 C 
ATOM     23  C   UNL     1      -0.876  12.469  19.286  0.00  0.00    +0.000 C 
BRANCH  23  24
ATOM     24  N   UNL     1      -1.501  12.077  20.552  0.00  0.00    +0.000 N 
ATOM     25  C   UNL     1      -2.345  12.924  21.235  0.00  0.00    +0.000 C 
ATOM     26  O   UNL     1      -2.576  14.080  20.897  0.00  0.00    +0.000 OA
ATOM     27  H   UNL     1      -1.434  11.117  20.858  0.00  0.00    +0.000 HD
BRANCH  25  28
ATOM     28  C   UNL     1      -2.979  12.322  22.490  0.00  0.00    +0.000 C 
BRANCH  28  29
ATOM     29  O   UNL     1      -4.397  12.373  22.433  0.00  0.00    +0.000 OA
ATOM     30  H   UNL     1      -4.651  13.235  22.825  0.00  0.00    +0.000 HD
ENDBRANCH  28  29
ENDBRANCH  25  28
ENDBRANCH  23  24
ENDBRANCH   6  18
BRANCH  10  31
ATOM     31  O   UNL     1       3.444  17.410  18.617  0.00  0.00    +0.000 OA
ATOM     32  H   UNL     1       3.148  17.476  17.694  0.00  0.00    +0.000 HD
ENDBRANCH  10  31
TORSDOF 6
ENDMDL
MODEL 3
REMARK VINA RESULT:      -6.2      4.422      9.385
REMARK  Name = 
REMARK  8 active torsions:
REMARK  status: ('A' for Active; 'I' for Inactive)
REMARK    1  A    between atoms: C_1  and  C_2
REMARK    2  A    between atoms: C_2  and  C_3
REMARK    3  A    between atoms: C_6  and  C_8
REMARK    4  A    between atoms: C_13  and  N_14
REMARK    5  A    between atoms: C_15  and  C_17
REMARK    6  A    between atoms: C_17  and  O_18
REMARK    7  A    between atoms: C_21  and  O_22
REMARK    8  A    between atoms: C_21  and  C_23
REMARK                            x       y       z     vdW  Elec       q    Type
REMARK                         _______ _______ _______ _____ _____    ______ ____
ROOT
ATOM      1  C   UNL     1       0.026  13.732  18.749  0.00  0.00    +0.000 C 
ATOM      2  C   UNL     1       0.861  12.494  19.198  0.00  0.00    +0.000 C 
ATOM      3  C   UNL     1       2.093  12.461  18.272  0.00  0.00    +0.000 C 
ATOM      4  C   UNL     1       1.298  12.757  20.654  0.00  0.00    +0.000 C 
ATOM      5  N   UNL     1       0.134  12.789  21.548  0.00  0.00    +0.000 N 
ATOM      6  C   UNL     1      -0.123  13.962  22.263  0.00  0.00    +0.000 C 
ATOM      7  O   UNL     1       0.588  14.963  22.155  0.00  0.00    +0.000 OA
ATOM      8  C   UNL     1      -0.674  11.563  21.570  0.00  0.00    +0.000 C 
ATOM      9  C   UNL     1      -1.107  11.143  20.166  0.00  0.00    +0.000 C 
ATOM     10  C   UNL     1       0.030  11.154  19.111  0.00  0.00    +0.000 C 
ENDROOT
BRANCH  10  11
ATOM     11  C   UNL     1       0.858   9.841  19.187  0.00  0.00    +0.000 A 
ATOM     12  C   UNL     1       1.477   9.309  18.034  0.00  0.00    +0.000 A 
ATOM     13  C   UNL     1       2.198   8.108  18.064  0.00  0.00    +0.000 A 
ATOM     14  C   UNL     1       2.326   7.403  19.251  0.00  0.00    +0.000 A 
ATOM     15 CL   UNL     1       3.195   5.921  19.296  0.00  0.00    +0.000 Cl
ATOM     16  C   UNL     1       1.745   7.898  20.410  0.00  0.00    +0.000 A 
ATOM     17  C   UNL     1       1.027   9.102  20.371  0.00  0.00    +0.000 A 
ENDBRANCH  10  11
BRANCH   6  18
ATOM     18  C   UNL     1      -1.335  13.984  23.186  0.00  0.00    +0.000 C 
ATOM     19  C   UNL     1      -1.247  15.037  24.305  0.00  0.00    +0.000 C 
ATOM     20  C   UNL     1      -2.452  14.926  25.245  0.00  0.00    +0.000 C 
ATOM     21  C   UNL     1      -3.800  14.899  24.517  0.00  0.00    +0.000 C 
ATOM     22  C   UNL     1      -3.818  13.923  23.341  0.00  0.00    +0.000 C 
ATOM     23  C   UNL     1      -2.641  14.162  22.391  0.00  0.00    +0.000 C 
BRANCH  23  24
ATOM     24  N   UNL     1      -2.753  15.468  21.736  0.00  0.00    +0.000 N 
ATOM     25  C   UNL     1      -3.772  15.751  20.855  0.00  0.00    +0.000 C 
ATOM     26  O   UNL     1      -4.607  14.932  20.486  0.00  0.00    +0.000 OA
ATOM     27  H   UNL     1      -2.161  16.226  22.047  0.00  0.00    +0.000 HD
BRANCH  25  28
ATOM     28  C   UNL     1      -3.789  17.190  20.335  0.00  0.00    +0.000 C 
BRANCH  28  29
ATOM     29  O   UNL     1      -2.920  17.352  19.223  0.00  0.00    +0.000 OA
ATOM     30  H   UNL     1      -2.130  16.803  19.417  0.00  0.00    +0.000 HD
ENDBRANCH  28  29
ENDBRANCH  25  28
ENDBRANCH  23  24
ENDBRANCH   6  18
BRANCH  10  31
ATOM     31  O   UNL     1      -0.627  11.128  17.823  0.00  0.00    +0.000 OA
ATOM     32  H   UNL     1      -0.295  10.370  17.314  0.00  0.00    +0.000 HD
ENDBRANCH  10  31
TORSDOF 6
ENDMDL
MODEL 4
REMARK VINA RESULT:      -6.2      0.913      1.110
REMARK  Name = 
REMARK  8 active torsions:
REMARK  status: ('A' for Active; 'I' for Inactive)
REMARK    1  A    between atoms: C_1  and  C_2
REMARK    2  A    between atoms: C_2  and  C_3
REMARK    3  A    between atoms: C_6  and  C_8
REMARK    4  A    between atoms: C_13  and  N_14
REMARK    5  A    between atoms: C_15  and  C_17
REMARK    6  A    between atoms: C_17  and  O_18
REMARK    7  A    between atoms: C_21  and  O_22
REMARK    8  A    between atoms: C_21  and  C_23
REMARK                            x       y       z     vdW  Elec       q    Type
REMARK                         _______ _______ _______ _____ _____    ______ ____
ROOT
ATOM      1  C   UNL     1      -0.811   8.362  20.824  0.00  0.00    +0.000 C 
ATOM      2  C   UNL     1       0.234   9.517  20.888  0.00  0.00    +0.000 C 
ATOM      3  C   UNL     1      -0.100  10.315  22.165  0.00  0.00    +0.000 C 
ATOM      4  C   UNL     1       1.620   8.855  21.024  0.00  0.00    +0.000 C 
ATOM      5  N   UNL     1       1.952   8.093  19.813  0.00  0.00    +0.000 N 
ATOM      6  C   UNL     1       2.177   6.719  19.933  0.00  0.00    +0.000 C 
ATOM      7  O   UNL     1       2.092   6.134  21.014  0.00  0.00    +0.000 OA
ATOM      8  C   UNL     1       1.982   8.873  18.569  0.00  0.00    +0.000 C 
ATOM      9  C   UNL     1       0.685   9.651  18.355  0.00  0.00    +0.000 C 
ATOM     10  C   UNL     1       0.189  10.431  19.601  0.00  0.00    +0.000 C 
ENDROOT
BRANCH  10  11
ATOM     11  C   UNL     1       0.922  11.797  19.718  0.00  0.00    +0.000 A 
ATOM     12  C   UNL     1       1.782  12.247  18.692  0.00  0.00    +0.000 A 
ATOM     13  C   UNL     1       2.484  13.455  18.787  0.00  0.00    +0.000 A 
ATOM     14  C   UNL     1       2.346  14.254  19.912  0.00  0.00    +0.000 A 
ATOM     15 CL   UNL     1       3.215  15.730  20.046  0.00  0.00    +0.000 Cl
ATOM     16  C   UNL     1       1.500  13.855  20.937  0.00  0.00    +0.000 A 
ATOM     17  C   UNL     1       0.799  12.645  20.833  0.00  0.00    +0.000 A 
ENDBRANCH  10  11
BRANCH   6  18
ATOM     18  C   UNL     1       2.517   5.939  18.669  0.00  0.00    +0.000 C 
ATOM     19  C   UNL     1       4.011   5.972  18.301  0.00  0.00    +0.000 C 
ATOM     20  C   UNL     1       4.254   5.253  16.969  0.00  0.00    +0.000 C 
ATOM     21  C   UNL     1       3.624   3.859  16.899  0.00  0.00    +0.000 C 
ATOM     22  C   UNL     1       2.173   3.840  17.377  0.00  0.00    +0.000 C 
ATOM     23  C   UNL     1       2.025   4.483  18.759  0.00  0.00    +0.000 C 
BRANCH  23  24
ATOM     24  N   UNL     1       2.718   3.694  19.781  0.00  0.00    +0.000 N 
ATOM     25  C   UNL     1       2.029   2.929  20.695  0.00  0.00    +0.000 C 
ATOM     26  O   UNL     1       0.806   2.906  20.786  0.00  0.00    +0.000 OA
ATOM     27  H   UNL     1       3.721   3.588  19.723  0.00  0.00    +0.000 HD
BRANCH  25  28
ATOM     28  C   UNL     1       2.911   2.100  21.631  0.00  0.00    +0.000 C 
BRANCH  28  29
ATOM     29  O   UNL     1       4.262   2.081  21.194  0.00  0.00    +0.000 OA
ATOM     30  H   UNL     1       4.808   2.102  22.008  0.00  0.00    +0.000 HD
ENDBRANCH  28  29
ENDBRANCH  25  28
ENDBRANCH  23  24
ENDBRANCH   6  18
BRANCH  10  31
ATOM     31  O   UNL     1      -1.197  10.752  19.340  0.00  0.00    +0.000 OA
ATOM     32  H   UNL     1      -1.238  11.556  18.795  0.00  0.00    +0.000 HD
ENDBRANCH  10  31
TORSDOF 6
ENDMDL
MODEL 5
REMARK VINA RESULT:      -6.1      8.955     11.227
REMARK  Name = 
REMARK  8 active torsions:
REMARK  status: ('A' for Active; 'I' for Inactive)
REMARK    1  A    between atoms: C_1  and  C_2
REMARK    2  A    between atoms: C_2  and  C_3
REMARK    3  A    between atoms: C_6  and  C_8
REMARK    4  A    between atoms: C_13  and  N_14
REMARK    5  A    between atoms: C_15  and  C_17
REMARK    6  A    between atoms: C_17  and  O_18
REMARK    7  A    between atoms: C_21  and  O_22
REMARK    8  A    between atoms: C_21  and  C_23
REMARK                            x       y       z     vdW  Elec       q    Type
REMARK                         _______ _______ _______ _____ _____    ______ ____
ROOT
ATOM      1  C   UNL     1       8.767  15.087  24.342  0.00  0.00    +0.000 C 
ATOM      2  C   UNL     1       7.540  14.146  24.539  0.00  0.00    +0.000 C 
ATOM      3  C   UNL     1       6.486  14.983  25.293  0.00  0.00    +0.000 C 
ATOM      4  C   UNL     1       7.024  13.789  23.130  0.00  0.00    +0.000 C 
ATOM      5  N   UNL     1       8.017  12.989  22.400  0.00  0.00    +0.000 N 
ATOM      6  C   UNL     1       8.531  13.499  21.205  0.00  0.00    +0.000 C 
ATOM      7  O   UNL     1       8.186  14.593  20.758  0.00  0.00    +0.000 OA
ATOM      8  C   UNL     1       8.395  11.723  23.040  0.00  0.00    +0.000 C 
ATOM      9  C   UNL     1       8.852  11.930  24.484  0.00  0.00    +0.000 C 
ATOM     10  C   UNL     1       7.919  12.834  25.331  0.00  0.00    +0.000 C 
ENDROOT
BRANCH  10  11
ATOM     11  C   UNL     1       6.721  12.014  25.888  0.00  0.00    +0.000 A 
ATOM     12  C   UNL     1       5.954  11.186  25.038  0.00  0.00    +0.000 A 
ATOM     13  C   UNL     1       4.846  10.465  25.504  0.00  0.00    +0.000 A 
ATOM     14  C   UNL     1       4.473  10.547  26.837  0.00  0.00    +0.000 A 
ATOM     15 CL   UNL     1       3.107   9.680  27.415  0.00  0.00    +0.000 Cl
ATOM     16  C   UNL     1       5.208  11.338  27.708  0.00  0.00    +0.000 A 
ATOM     17  C   UNL     1       6.317  12.055  27.234  0.00  0.00    +0.000 A 
ENDBRANCH  10  11
BRANCH   6  18
ATOM     18  C   UNL     1       9.563  12.661  20.459  0.00  0.00    +0.000 C 
ATOM     19  C   UNL     1       8.975  11.838  19.299  0.00  0.00    +0.000 C 
ATOM     20  C   UNL     1      10.054  10.950  18.668  0.00  0.00    +0.000 C 
ATOM     21  C   UNL     1      11.339  11.703  18.312  0.00  0.00    +0.000 C 
ATOM     22  C   UNL     1      11.836  12.598  19.447  0.00  0.00    +0.000 C 
ATOM     23  C   UNL     1      10.731  13.528  19.957  0.00  0.00    +0.000 C 
BRANCH  23  24
ATOM     24  N   UNL     1      10.341  14.493  18.925  0.00  0.00    +0.000 N 
ATOM     25  C   UNL     1      10.928  15.735  18.836  0.00  0.00    +0.000 C 
ATOM     26  O   UNL     1      11.747  16.165  19.641  0.00  0.00    +0.000 OA
ATOM     27  H   UNL     1       9.739  14.191  18.172  0.00  0.00    +0.000 HD
BRANCH  25  28
ATOM     28  C   UNL     1      10.467  16.578  17.646  0.00  0.00    +0.000 C 
BRANCH  28  29
ATOM     29  O   UNL     1      10.577  15.862  16.425  0.00  0.00    +0.000 OA
ATOM     30  H   UNL     1       9.660  15.752  16.094  0.00  0.00    +0.000 HD
ENDBRANCH  28  29
ENDBRANCH  25  28
ENDBRANCH  23  24
ENDBRANCH   6  18
BRANCH  10  31
ATOM     31  O   UNL     1       8.693  13.227  26.488  0.00  0.00    +0.000 OA
ATOM     32  H   UNL     1       8.392  14.101  26.787  0.00  0.00    +0.000 HD
ENDBRANCH  10  31
TORSDOF 6
ENDMDL
MODEL 6
REMARK VINA RESULT:      -6.1      1.218      1.391
REMARK  Name = 
REMARK  8 active torsions:
REMARK  status: ('A' for Active; 'I' for Inactive)
REMARK    1  A    between atoms: C_1  and  C_2
REMARK    2  A    between atoms: C_2  and  C_3
REMARK    3  A    between atoms: C_6  and  C_8
REMARK    4  A    between atoms: C_13  and  N_14
REMARK    5  A    between atoms: C_15  and  C_17
REMARK    6  A    between atoms: C_17  and  O_18
REMARK    7  A    between atoms: C_21  and  O_22
REMARK    8  A    between atoms: C_21  and  C_23
REMARK                            x       y       z     vdW  Elec       q    Type
REMARK                         _______ _______ _______ _____ _____    ______ ____
ROOT
ATOM      1  C   UNL     1      -0.841   9.197  19.755  0.00  0.00    +0.000 C 
ATOM      2  C   UNL     1       0.322  10.182  20.082  0.00  0.00    +0.000 C 
ATOM      3  C   UNL     1      -0.204  11.089  21.214  0.00  0.00    +0.000 C 
ATOM      4  C   UNL     1       1.499   9.326  20.594  0.00  0.00    +0.000 C 
ATOM      5  N   UNL     1       2.011   8.457  19.526  0.00  0.00    +0.000 N 
ATOM      6  C   UNL     1       1.972   7.073  19.718  0.00  0.00    +0.000 C 
ATOM      7  O   UNL     1       1.513   6.568  20.745  0.00  0.00    +0.000 OA
ATOM      8  C   UNL     1       2.492   9.154  18.327  0.00  0.00    +0.000 C 
ATOM      9  C   UNL     1       1.439  10.107  17.762  0.00  0.00    +0.000 C 
ATOM     10  C   UNL     1       0.764  11.020  18.819  0.00  0.00    +0.000 C 
ENDROOT
BRANCH  10  11
ATOM     11  C   UNL     1       1.650  12.264  19.113  0.00  0.00    +0.000 A 
ATOM     12  C   UNL     1       2.445  12.841  18.098  0.00  0.00    +0.000 A 
ATOM     13  C   UNL     1       3.281  13.939  18.342  0.00  0.00    +0.000 A 
ATOM     14  C   UNL     1       3.346  14.495  19.611  0.00  0.00    +0.000 A 
ATOM     15 CL   UNL     1       4.379  15.831  19.925  0.00  0.00    +0.000 Cl
ATOM     16  C   UNL     1       2.571  13.967  20.633  0.00  0.00    +0.000 A 
ATOM     17  C   UNL     1       1.734  12.870  20.379  0.00  0.00    +0.000 A 
ENDBRANCH  10  11
BRANCH   6  18
ATOM     18  C   UNL     1       2.503   6.183  18.602  0.00  0.00    +0.000 C 
ATOM     19  C   UNL     1       4.030   5.992  18.632  0.00  0.00    +0.000 C 
ATOM     20  C   UNL     1       4.495   5.171  17.423  0.00  0.00    +0.000 C 
ATOM     21  C   UNL     1       3.706   3.874  17.222  0.00  0.00    +0.000 C 
ATOM     22  C   UNL     1       2.194   4.080  17.308  0.00  0.00    +0.000 C 
ATOM     23  C   UNL     1       1.797   4.815  18.591  0.00  0.00    +0.000 C 
BRANCH  23  24
ATOM     24  N   UNL     1       2.086   4.000  19.774  0.00  0.00    +0.000 N 
ATOM     25  C   UNL     1       1.262   2.966  20.159  0.00  0.00    +0.000 C 
ATOM     26  O   UNL     1       0.198   2.696  19.611  0.00  0.00    +0.000 OA
ATOM     27  H   UNL     1       2.981   4.096  20.231  0.00  0.00    +0.000 HD
BRANCH  25  28
ATOM     28  C   UNL     1       1.761   2.163  21.362  0.00  0.00    +0.000 C 
BRANCH  28  29
ATOM     29  O   UNL     1       2.492   2.978  22.266  0.00  0.00    +0.000 OA
ATOM     30  H   UNL     1       2.727   3.789  21.768  0.00  0.00    +0.000 HD
ENDBRANCH  28  29
ENDBRANCH  25  28
ENDBRANCH  23  24
ENDBRANCH   6  18
BRANCH  10  31
ATOM     31  O   UNL     1      -0.434  11.533  18.192  0.00  0.00    +0.000 OA
ATOM     32  H   UNL     1      -1.106  10.832  18.174  0.00  0.00    +0.000 HD
ENDBRANCH  10  31
TORSDOF 6
ENDMDL
MODEL 7
REMARK VINA RESULT:      -5.9      4.933      9.016
REMARK  Name = 
REMARK  8 active torsions:
REMARK  status: ('A' for Active; 'I' for Inactive)
REMARK    1  A    between atoms: C_1  and  C_2
REMARK    2  A    between atoms: C_2  and  C_3
REMARK    3  A    between atoms: C_6  and  C_8
REMARK    4  A    between atoms: C_13  and  N_14
REMARK    5  A    between atoms: C_15  and  C_17
REMARK    6  A    between atoms: C_17  and  O_18
REMARK    7  A    between atoms: C_21  and  O_22
REMARK    8  A    between atoms: C_21  and  C_23
REMARK                            x       y       z     vdW  Elec       q    Type
REMARK                         _______ _______ _______ _____ _____    ______ ____
ROOT
ATOM      1  C   UNL     1      -0.155  14.113  19.724  0.00  0.00    +0.000 C 
ATOM      2  C   UNL     1       0.150  12.620  20.053  0.00  0.00    +0.000 C 
ATOM      3  C   UNL     1       1.444  12.632  20.893  0.00  0.00    +0.000 C 
ATOM      4  C   UNL     1      -1.029  12.103  20.903  0.00  0.00    +0.000 C 
ATOM      5  N   UNL     1      -2.268  12.084  20.115  0.00  0.00    +0.000 N 
ATOM      6  C   UNL     1      -3.344  12.862  20.551  0.00  0.00    +0.000 C 
ATOM      7  O   UNL     1      -3.277  13.563  21.562  0.00  0.00    +0.000 OA
ATOM      8  C   UNL     1      -2.229  11.254  18.905  0.00  0.00    +0.000 C 
ATOM      9  C   UNL     1      -1.046  11.613  18.006  0.00  0.00    +0.000 C 
ATOM     10  C   UNL     1       0.309  11.745  18.749  0.00  0.00    +0.000 C 
ENDROOT
BRANCH  10  11
ATOM     11  C   UNL     1       0.960  10.347  18.950  0.00  0.00    +0.000 A 
ATOM     12  C   UNL     1       1.713   9.745  17.918  0.00  0.00    +0.000 A 
ATOM     13  C   UNL     1       2.279   8.470  18.058  0.00  0.00    +0.000 A 
ATOM     14  C   UNL     1       2.112   7.760  19.237  0.00  0.00    +0.000 A 
ATOM     15 CL   UNL     1       2.789   6.190  19.413  0.00  0.00    +0.000 Cl
ATOM     16  C   UNL     1       1.391   8.322  20.281  0.00  0.00    +0.000 A 
ATOM     17  C   UNL     1       0.830   9.598  20.133  0.00  0.00    +0.000 A 
ENDBRANCH  10  11
BRANCH   6  18
ATOM     18  C   UNL     1      -4.623  12.837  19.723  0.00  0.00    +0.000 C 
ATOM     19  C   UNL     1      -5.051  11.426  19.282  0.00  0.00    +0.000 C 
ATOM     20  C   UNL     1      -6.283  11.496  18.372  0.00  0.00    +0.000 C 
ATOM     21  C   UNL     1      -7.423  12.344  18.946  0.00  0.00    +0.000 C 
ATOM     22  C   UNL     1      -6.946  13.695  19.478  0.00  0.00    +0.000 C 
ATOM     23  C   UNL     1      -5.781  13.536  20.458  0.00  0.00    +0.000 C 
BRANCH  23  24
ATOM     24  N   UNL     1      -6.209  12.838  21.673  0.00  0.00    +0.000 N 
ATOM     25  C   UNL     1      -6.688  13.519  22.769  0.00  0.00    +0.000 C 
ATOM     26  O   UNL     1      -6.720  14.742  22.856  0.00  0.00    +0.000 OA
ATOM     27  H   UNL     1      -6.297  11.831  21.656  0.00  0.00    +0.000 HD
BRANCH  25  28
ATOM     28  C   UNL     1      -7.174  12.629  23.915  0.00  0.00    +0.000 C 
BRANCH  28  29
ATOM     29  O   UNL     1      -7.908  11.513  23.432  0.00  0.00    +0.000 OA
ATOM     30  H   UNL     1      -7.570  11.340  22.528  0.00  0.00    +0.000 HD
ENDBRANCH  28  29
ENDBRANCH  25  28
ENDBRANCH  23  24
ENDBRANCH   6  18
BRANCH  10  31
ATOM     31  O   UNL     1       1.186  12.458  17.846  0.00  0.00    +0.000 OA
ATOM     32  H   UNL     1       1.172  12.019  16.980  0.00  0.00    +0.000 HD
ENDBRANCH  10  31
TORSDOF 6
ENDMDL
MODEL 8
REMARK VINA RESULT:      -5.9      5.119      9.230
REMARK  Name = 
REMARK  8 active torsions:
REMARK  status: ('A' for Active; 'I' for Inactive)
REMARK    1  A    between atoms: C_1  and  C_2
REMARK    2  A    between atoms: C_2  and  C_3
REMARK    3  A    between atoms: C_6  and  C_8
REMARK    4  A    between atoms: C_13  and  N_14
REMARK    5  A    between atoms: C_15  and  C_17
REMARK    6  A    between atoms: C_17  and  O_18
REMARK    7  A    between atoms: C_21  and  O_22
REMARK    8  A    between atoms: C_21  and  C_23
REMARK                            x       y       z     vdW  Elec       q    Type
REMARK                         _______ _______ _______ _____ _____    ______ ____
ROOT
ATOM      1  C   UNL     1      -0.384  14.188  19.931  0.00  0.00    +0.000 C 
ATOM      2  C   UNL     1      -0.080  12.675  20.147  0.00  0.00    +0.000 C 
ATOM      3  C   UNL     1       1.171  12.623  21.047  0.00  0.00    +0.000 C 
ATOM      4  C   UNL     1      -1.293  12.080  20.892  0.00  0.00    +0.000 C 
ATOM      5  N   UNL     1      -2.493  12.121  20.045  0.00  0.00    +0.000 N 
ATOM      6  C   UNL     1      -3.597  12.853  20.492  0.00  0.00    +0.000 C 
ATOM      7  O   UNL     1      -3.586  13.467  21.561  0.00  0.00    +0.000 OA
ATOM      8  C   UNL     1      -2.388  11.397  18.773  0.00  0.00    +0.000 C 
ATOM      9  C   UNL     1      -1.166  11.838  17.967  0.00  0.00    +0.000 C 
ATOM     10  C   UNL     1       0.150  11.914  18.783  0.00  0.00    +0.000 C 
ENDROOT
BRANCH  10  11
ATOM     11  C   UNL     1       0.804  10.508  18.898  0.00  0.00    +0.000 A 
ATOM     12  C   UNL     1       0.655   9.734  20.070  0.00  0.00    +0.000 A 
ATOM     13  C   UNL     1       1.264   8.481  20.216  0.00  0.00    +0.000 A 
ATOM     14  C   UNL     1       2.041   7.960  19.192  0.00  0.00    +0.000 A 
ATOM     15 CL   UNL     1       2.805   6.432  19.367  0.00  0.00    +0.000 Cl
ATOM     16  C   UNL     1       2.202   8.683  18.018  0.00  0.00    +0.000 A 
ATOM     17  C   UNL     1       1.587   9.935  17.879  0.00  0.00    +0.000 A 
ENDBRANCH  10  11
BRANCH   6  18
ATOM     18  C   UNL     1      -4.834  12.890  19.604  0.00  0.00    +0.000 C 
ATOM     19  C   UNL     1      -5.338  11.499  19.180  0.00  0.00    +0.000 C 
ATOM     20  C   UNL     1      -6.518  11.626  18.210  0.00  0.00    +0.000 C 
ATOM     21  C   UNL     1      -7.622  12.567  18.704  0.00  0.00    +0.000 C 
ATOM     22  C   UNL     1      -7.077  13.898  19.221  0.00  0.00    +0.000 C 
ATOM     23  C   UNL     1      -5.973  13.690  20.262  0.00  0.00    +0.000 C 
BRANCH  23  24
ATOM     24  N   UNL     1      -6.506  13.060  21.472  0.00  0.00    +0.000 N 
ATOM     25  C   UNL     1      -6.938  13.805  22.546  0.00  0.00    +0.000 C 
ATOM     26  O   UNL     1      -6.842  15.026  22.617  0.00  0.00    +0.000 OA
ATOM     27  H   UNL     1      -6.700  12.068  21.466  0.00  0.00    +0.000 HD
BRANCH  25  28
ATOM     28  C   UNL     1      -7.548  12.990  23.688  0.00  0.00    +0.000 C 
BRANCH  28  29
ATOM     29  O   UNL     1      -7.781  13.793  24.836  0.00  0.00    +0.000 OA
ATOM     30  H   UNL     1      -7.260  13.386  25.560  0.00  0.00    +0.000 HD
ENDBRANCH  28  29
ENDBRANCH  25  28
ENDBRANCH  23  24
ENDBRANCH   6  18
BRANCH  10  31
ATOM     31  O   UNL     1       1.063  12.705  17.988  0.00  0.00    +0.000 OA
ATOM     32  H   UNL     1       1.713  13.124  18.576  0.00  0.00    +0.000 HD
ENDBRANCH  10  31
TORSDOF 6
ENDMDL
MODEL 9
REMARK VINA RESULT:      -5.8      5.148      9.656
REMARK  Name = 
REMARK  8 active torsions:
REMARK  status: ('A' for Active; 'I' for Inactive)
REMARK    1  A    between atoms: C_1  and  C_2
REMARK    2  A    between atoms: C_2  and  C_3
REMARK    3  A    between atoms: C_6  and  C_8
REMARK    4  A    between atoms: C_13  and  N_14
REMARK    5  A    between atoms: C_15  and  C_17
REMARK    6  A    between atoms: C_17  and  O_18
REMARK    7  A    between atoms: C_21  and  O_22
REMARK    8  A    between atoms: C_21  and  C_23
REMARK                            x       y       z     vdW  Elec       q    Type
REMARK                         _______ _______ _______ _____ _____    ______ ____
ROOT
ATOM      1  C   UNL     1      -0.398  14.434  19.755  0.00  0.00    +0.000 C 
ATOM      2  C   UNL     1      -0.061  12.954  20.108  0.00  0.00    +0.000 C 
ATOM      3  C   UNL     1       1.272  13.000  20.882  0.00  0.00    +0.000 C 
ATOM      4  C   UNL     1      -1.191  12.450  21.029  0.00  0.00    +0.000 C 
ATOM      5  N   UNL     1      -2.468  12.399  20.305  0.00  0.00    +0.000 N 
ATOM      6  C   UNL     1      -3.529  13.178  20.773  0.00  0.00    +0.000 C 
ATOM      7  O   UNL     1      -3.420  13.908  21.760  0.00  0.00    +0.000 OA
ATOM      8  C   UNL     1      -2.481  11.535  19.117  0.00  0.00    +0.000 C 
ATOM      9  C   UNL     1      -1.347  11.880  18.152  0.00  0.00    +0.000 C 
ATOM     10  C   UNL     1       0.042  12.044  18.822  0.00  0.00    +0.000 C 
ENDROOT
BRANCH  10  11
ATOM     11  C   UNL     1       0.716  10.659  19.028  0.00  0.00    +0.000 A 
ATOM     12  C   UNL     1       1.473  10.062  17.996  0.00  0.00    +0.000 A 
ATOM     13  C   UNL     1       2.060   8.797  18.141  0.00  0.00    +0.000 A 
ATOM     14  C   UNL     1       1.911   8.092  19.325  0.00  0.00    +0.000 A 
ATOM     15 CL   UNL     1       2.614   6.535  19.507  0.00  0.00    +0.000 Cl
ATOM     16  C   UNL     1       1.187   8.649  20.369  0.00  0.00    +0.000 A 
ATOM     17  C   UNL     1       0.604   9.916  20.217  0.00  0.00    +0.000 A 
ENDBRANCH  10  11
BRANCH   6  18
ATOM     18  C   UNL     1      -4.847  13.119  20.011  0.00  0.00    +0.000 C 
ATOM     19  C   UNL     1      -5.755  11.948  20.429  0.00  0.00    +0.000 C 
ATOM     20  C   UNL     1      -7.010  11.899  19.549  0.00  0.00    +0.000 C 
ATOM     21  C   UNL     1      -7.735  13.244  19.437  0.00  0.00    +0.000 C 
ATOM     22  C   UNL     1      -6.788  14.404  19.131  0.00  0.00    +0.000 C 
ATOM     23  C   UNL     1      -5.615  14.449  20.114  0.00  0.00    +0.000 C 
BRANCH  23  24
ATOM     24  N   UNL     1      -6.078  14.753  21.470  0.00  0.00    +0.000 N 
ATOM     25  C   UNL     1      -6.026  16.029  21.984  0.00  0.00    +0.000 C 
ATOM     26  O   UNL     1      -5.524  16.983  21.400  0.00  0.00    +0.000 OA
ATOM     27  H   UNL     1      -6.584  14.047  21.986  0.00  0.00    +0.000 HD
BRANCH  25  28
ATOM     28  C   UNL     1      -6.635  16.183  23.379  0.00  0.00    +0.000 C 
BRANCH  28  29
ATOM     29  O   UNL     1      -6.205  15.149  24.253  0.00  0.00    +0.000 OA
ATOM     30  H   UNL     1      -6.190  14.330  23.713  0.00  0.00    +0.000 HD
ENDBRANCH  28  29
ENDBRANCH  25  28
ENDBRANCH  23  24
ENDBRANCH   6  18
BRANCH  10  31
ATOM     31  O   UNL     1       0.866  12.740  17.858  0.00  0.00    +0.000 OA
ATOM     32  H   UNL     1       1.799  12.640  18.109  0.00  0.00    +0.000 HD
ENDBRANCH  10  31
TORSDOF 6
ENDMDL
