MODEL 1
REMARK VINA RESULT:      -8.2      0.000      0.000
REMARK  Name = 
REMARK  12 active torsions:
REMARK  status: ('A' for Active; 'I' for Inactive)
REMARK    1  A    between atoms: C_1  and  C_2
REMARK    2  A    between atoms: C_2  and  C_3
REMARK    3  A    between atoms: C_3  and  C_4
REMARK    4  A    between atoms: C_4  and  C_5
REMARK    5  A    between atoms: C_5  and  N_6
REMARK    6  A    between atoms: C_7  and  C_9
REMARK    7  A    between atoms: C_9  and  N_10
REMARK    8  A    between atoms: C_13  and  O_14
REMARK    9  A    between atoms: C_20  and  C_21
REMARK   10  A    between atoms: C_24  and  O_25
REMARK   11  A    between atoms: C_26  and  O_27
REMARK   12  A    between atoms: O_27  and  C_28
REMARK                            x       y       z     vdW  Elec       q    Type
REMARK                         _______ _______ _______ _____ _____    ______ ____
ROOT
ATOM      1  N   UNL     1       4.685   5.929  18.586  0.00  0.00    +0.000 NA
ATOM      2  C   UNL     1       5.529   4.743  18.845  0.00  0.00    +0.000 C 
ATOM      3  C   UNL     1       4.892   3.415  18.418  0.00  0.00    +0.000 C 
ATOM      4  C   UNL     1       3.521   3.219  19.076  0.00  0.00    +0.000 C 
ATOM      5  C   UNL     1       2.790   1.995  18.489  0.00  0.00    +0.000 C 
ATOM      6  C   UNL     1       1.399   1.800  19.100  0.00  0.00    +0.000 C 
ATOM      7  C   UNL     1       0.556   3.071  19.043  0.00  0.00    +0.000 C 
ATOM      8  C   UNL     1       1.295   4.267  19.640  0.00  0.00    +0.000 C 
ATOM      9  C   UNL     1       2.633   4.475  18.901  0.00  0.00    +0.000 C 
ATOM     10  C   UNL     1       3.391   5.772  19.318  0.00  0.00    +0.000 C 
ENDROOT
BRANCH  10  11
ATOM     11  C   UNL     1       2.543   7.048  19.241  0.00  0.00    +0.000 A 
ATOM     12  C   UNL     1       2.328   7.677  18.010  0.00  0.00    +0.000 A 
ATOM     13  C   UNL     1       1.619   8.882  17.944  0.00  0.00    +0.000 A 
ATOM     14  C   UNL     1       1.098   9.466  19.105  0.00  0.00    +0.000 A 
ATOM     15  C   UNL     1       1.243   8.826  20.337  0.00  0.00    +0.000 A 
ATOM     16  C   UNL     1       1.962   7.626  20.385  0.00  0.00    +0.000 A 
BRANCH  14  17
ATOM     17  O   UNL     1       0.458  10.669  18.999  0.00  0.00    +0.000 OA
ATOM     18  H   UNL     1       0.271  11.004  19.891  0.00  0.00    +0.000 HD
ENDBRANCH  14  17
BRANCH  15  19
ATOM     19  O   UNL     1       0.785   9.205  21.568  0.00  0.00    +0.000 OA
ATOM     20  C   UNL     1      -0.514   8.792  21.961  0.00  0.00    +0.000 C 
ENDBRANCH  15  19
ENDBRANCH  10  11
BRANCH   4  21
ATOM     21  O   UNL     1       3.739   2.985  20.476  0.00  0.00    +0.000 OA
ATOM     22  H   UNL     1       3.272   3.683  20.973  0.00  0.00    +0.000 HD
ENDBRANCH   4  21
BRANCH   1  23
ATOM     23  C   UNL     1       4.486   6.161  17.135  0.00  0.00    +0.000 C 
BRANCH  23  25
ATOM     24  N   UNL     1       5.797   5.106  15.379  0.00  0.00    +0.000 N 
ATOM     25  C   UNL     1       5.782   6.103  16.331  0.00  0.00    +0.000 C 
ATOM     26  O   UNL     1       6.734   6.845  16.558  0.00  0.00    +0.000 OA
ATOM     27  H   UNL     1       4.929   4.623  15.178  0.00  0.00    +0.000 HD
BRANCH  24  28
ATOM     28  C   UNL     1       6.992   4.757  14.651  0.00  0.00    +0.000 C 
BRANCH  28  29
ATOM     29  C   UNL     1       6.668   4.093  13.309  0.00  0.00    +0.000 C 
BRANCH  29  30
ATOM     30  C   UNL     1       5.154   4.011  13.121  0.00  0.00    +0.000 C 
BRANCH  30  32
ATOM     31  C   UNL     1       5.829   2.187  11.546  0.00  0.00    +0.000 C 
ATOM     32  C   UNL     1       4.749   3.204  11.891  0.00  0.00    +0.000 C 
ENDBRANCH  30  32
ENDBRANCH  29  30
ENDBRANCH  28  29
ENDBRANCH  24  28
ENDBRANCH  23  25
ENDBRANCH   1  23
TORSDOF 10
ENDMDL
MODEL 2
REMARK VINA RESULT:      -7.9      2.636      4.207
REMARK  Name = 
REMARK  12 active torsions:
REMARK  status: ('A' for Active; 'I' for Inactive)
REMARK    1  A    between atoms: C_1  and  C_2
REMARK    2  A    between atoms: C_2  and  C_3
REMARK    3  A    between atoms: C_3  and  C_4
REMARK    4  A    between atoms: C_4  and  C_5
REMARK    5  A    between atoms: C_5  and  N_6
REMARK    6  A    between atoms: C_7  and  C_9
REMARK    7  A    between atoms: C_9  and  N_10
REMARK    8  A    between atoms: C_13  and  O_14
REMARK    9  A    between atoms: C_20  and  C_21
REMARK   10  A    between atoms: C_24  and  O_25
REMARK   11  A    between atoms: C_26  and  O_27
REMARK   12  A    between atoms: O_27  and  C_28
REMARK                            x       y       z     vdW  Elec       q    Type
REMARK                         _______ _______ _______ _____ _____    ______ ____
ROOT
ATOM      1  N   UNL     1       4.827   6.022  18.980  0.00  0.00    +0.000 NA
ATOM      2  C   UNL     1       5.622   4.852  19.409  0.00  0.00    +0.000 C 
ATOM      3  C   UNL     1       5.119   3.515  18.852  0.00  0.00    +0.000 C 
ATOM      4  C   UNL     1       3.644   3.285  19.203  0.00  0.00    +0.000 C 
ATOM      5  C   UNL     1       3.081   2.052  18.470  0.00  0.00    +0.000 C 
ATOM      6  C   UNL     1       1.596   1.824  18.771  0.00  0.00    +0.000 C 
ATOM      7  C   UNL     1       0.758   3.078  18.539  0.00  0.00    +0.000 C 
ATOM      8  C   UNL     1       1.327   4.284  19.284  0.00  0.00    +0.000 C 
ATOM      9  C   UNL     1       2.787   4.524  18.847  0.00  0.00    +0.000 C 
ATOM     10  C   UNL     1       3.411   5.833  19.420  0.00  0.00    +0.000 C 
ENDROOT
BRANCH  10  11
ATOM     11  C   UNL     1       2.572   7.092  19.168  0.00  0.00    +0.000 A 
ATOM     12  C   UNL     1       2.506   7.650  17.886  0.00  0.00    +0.000 A 
ATOM     13  C   UNL     1       1.804   8.840  17.667  0.00  0.00    +0.000 A 
ATOM     14  C   UNL     1       1.140   9.481  18.721  0.00  0.00    +0.000 A 
ATOM     15  C   UNL     1       1.136   8.911  19.995  0.00  0.00    +0.000 A 
ATOM     16  C   UNL     1       1.851   7.726  20.198  0.00  0.00    +0.000 A 
BRANCH  14  17
ATOM     17  O   UNL     1       0.512  10.669  18.470  0.00  0.00    +0.000 OA
ATOM     18  H   UNL     1       0.126  11.000  19.297  0.00  0.00    +0.000 HD
ENDBRANCH  14  17
BRANCH  15  19
ATOM     19  O   UNL     1       0.528   9.352  21.137  0.00  0.00    +0.000 OA
ATOM     20  C   UNL     1       1.246   9.274  22.357  0.00  0.00    +0.000 C 
ENDBRANCH  15  19
ENDBRANCH  10  11
BRANCH   4  21
ATOM     21  O   UNL     1       3.564   3.045  20.616  0.00  0.00    +0.000 OA
ATOM     22  H   UNL     1       2.648   2.776  20.823  0.00  0.00    +0.000 HD
ENDBRANCH   4  21
BRANCH   1  23
ATOM     23  C   UNL     1       4.936   6.262  17.521  0.00  0.00    +0.000 C 
BRANCH  23  25
ATOM     24  N   UNL     1       6.822   7.766  17.832  0.00  0.00    +0.000 N 
ATOM     25  C   UNL     1       6.326   6.718  17.086  0.00  0.00    +0.000 C 
ATOM     26  O   UNL     1       6.912   6.225  16.126  0.00  0.00    +0.000 OA
ATOM     27  H   UNL     1       6.328   8.029  18.677  0.00  0.00    +0.000 HD
BRANCH  24  28
ATOM     28  C   UNL     1       8.025   8.470  17.463  0.00  0.00    +0.000 C 
BRANCH  28  29
ATOM     29  C   UNL     1       8.657   9.186  18.660  0.00  0.00    +0.000 C 
BRANCH  29  30
ATOM     30  C   UNL     1       8.962  10.638  18.296  0.00  0.00    +0.000 C 
BRANCH  30  32
ATOM     31  C   UNL     1      10.030  11.388  20.431  0.00  0.00    +0.000 C 
ATOM     32  C   UNL     1      10.243  11.158  18.942  0.00  0.00    +0.000 C 
ENDBRANCH  30  32
ENDBRANCH  29  30
ENDBRANCH  28  29
ENDBRANCH  24  28
ENDBRANCH  23  25
ENDBRANCH   1  23
TORSDOF 10
ENDMDL
MODEL 3
REMARK VINA RESULT:      -7.9      0.804      1.687
REMARK  Name = 
REMARK  12 active torsions:
REMARK  status: ('A' for Active; 'I' for Inactive)
REMARK    1  A    between atoms: C_1  and  C_2
REMARK    2  A    between atoms: C_2  and  C_3
REMARK    3  A    between atoms: C_3  and  C_4
REMARK    4  A    between atoms: C_4  and  C_5
REMARK    5  A    between atoms: C_5  and  N_6
REMARK    6  A    between atoms: C_7  and  C_9
REMARK    7  A    between atoms: C_9  and  N_10
REMARK    8  A    between atoms: C_13  and  O_14
REMARK    9  A    between atoms: C_20  and  C_21
REMARK   10  A    between atoms: C_24  and  O_25
REMARK   11  A    between atoms: C_26  and  O_27
REMARK   12  A    between atoms: O_27  and  C_28
REMARK                            x       y       z     vdW  Elec       q    Type
REMARK                         _______ _______ _______ _____ _____    ______ ____
ROOT
ATOM      1  N   UNL     1       4.608   5.831  18.893  0.00  0.00    +0.000 NA
ATOM      2  C   UNL     1       5.425   4.602  18.985  0.00  0.00    +0.000 C 
ATOM      3  C   UNL     1       4.752   3.357  18.393  0.00  0.00    +0.000 C 
ATOM      4  C   UNL     1       3.382   3.108  19.033  0.00  0.00    +0.000 C 
ATOM      5  C   UNL     1       2.617   1.989  18.298  0.00  0.00    +0.000 C 
ATOM      6  C   UNL     1       1.226   1.748  18.892  0.00  0.00    +0.000 C 
ATOM      7  C   UNL     1       0.414   3.034  19.011  0.00  0.00    +0.000 C 
ATOM      8  C   UNL     1       1.186   4.124  19.753  0.00  0.00    +0.000 C 
ATOM      9  C   UNL     1       2.523   4.396  19.034  0.00  0.00    +0.000 C 
ATOM     10  C   UNL     1       3.316   5.609  19.610  0.00  0.00    +0.000 C 
ENDROOT
BRANCH  10  11
ATOM     11  C   UNL     1       2.499   6.903  19.710  0.00  0.00    +0.000 A 
ATOM     12  C   UNL     1       1.745   7.174  20.858  0.00  0.00    +0.000 A 
ATOM     13  C   UNL     1       0.940   8.316  20.923  0.00  0.00    +0.000 A 
ATOM     14  C   UNL     1       0.890   9.215  19.850  0.00  0.00    +0.000 A 
ATOM     15  C   UNL     1       1.681   9.002  18.720  0.00  0.00    +0.000 A 
ATOM     16  C   UNL     1       2.474   7.850  18.669  0.00  0.00    +0.000 A 
BRANCH  14  17
ATOM     17  O   UNL     1       0.048  10.289  19.938  0.00  0.00    +0.000 OA
ATOM     18  H   UNL     1      -0.842  10.012  19.667  0.00  0.00    +0.000 HD
ENDBRANCH  14  17
BRANCH  15  19
ATOM     19  O   UNL     1       1.804   9.767  17.594  0.00  0.00    +0.000 OA
ATOM     20  C   UNL     1       2.342  11.073  17.721  0.00  0.00    +0.000 C 
ENDBRANCH  15  19
ENDBRANCH  10  11
BRANCH   4  21
ATOM     21  O   UNL     1       3.603   2.686  20.388  0.00  0.00    +0.000 OA
ATOM     22  H   UNL     1       4.564   2.713  20.557  0.00  0.00    +0.000 HD
ENDBRANCH   4  21
BRANCH   1  23
ATOM     23  C   UNL     1       4.405   6.257  17.487  0.00  0.00    +0.000 C 
BRANCH  23  25
ATOM     24  N   UNL     1       5.863   5.317  15.783  0.00  0.00    +0.000 N 
ATOM     25  C   UNL     1       5.703   6.343  16.689  0.00  0.00    +0.000 C 
ATOM     26  O   UNL     1       6.541   7.220  16.884  0.00  0.00    +0.000 OA
ATOM     27  H   UNL     1       5.072   4.710  15.602  0.00  0.00    +0.000 HD
BRANCH  24  28
ATOM     28  C   UNL     1       7.101   5.106  15.073  0.00  0.00    +0.000 C 
BRANCH  28  29
ATOM     29  C   UNL     1       6.863   4.791  13.593  0.00  0.00    +0.000 C 
BRANCH  29  30
ATOM     30  C   UNL     1       5.842   3.663  13.459  0.00  0.00    +0.000 C 
BRANCH  30  32
ATOM     31  C   UNL     1       4.369   3.267  11.475  0.00  0.00    +0.000 C 
ATOM     32  C   UNL     1       5.768   3.090  12.046  0.00  0.00    +0.000 C 
ENDBRANCH  30  32
ENDBRANCH  29  30
ENDBRANCH  28  29
ENDBRANCH  24  28
ENDBRANCH  23  25
ENDBRANCH   1  23
TORSDOF 10
ENDMDL
MODEL 4
REMARK VINA RESULT:      -7.5      0.771      1.211
REMARK  Name = 
REMARK  12 active torsions:
REMARK  status: ('A' for Active; 'I' for Inactive)
REMARK    1  A    between atoms: C_1  and  C_2
REMARK    2  A    between atoms: C_2  and  C_3
REMARK    3  A    between atoms: C_3  and  C_4
REMARK    4  A    between atoms: C_4  and  C_5
REMARK    5  A    between atoms: C_5  and  N_6
REMARK    6  A    between atoms: C_7  and  C_9
REMARK    7  A    between atoms: C_9  and  N_10
REMARK    8  A    between atoms: C_13  and  O_14
REMARK    9  A    between atoms: C_20  and  C_21
REMARK   10  A    between atoms: C_24  and  O_25
REMARK   11  A    between atoms: C_26  and  O_27
REMARK   12  A    between atoms: O_27  and  C_28
REMARK                            x       y       z     vdW  Elec       q    Type
REMARK                         _______ _______ _______ _____ _____    ______ ____
ROOT
ATOM      1  N   UNL     1       4.581   6.016  18.614  0.00  0.00    +0.000 NA
ATOM      2  C   UNL     1       5.427   4.829  18.861  0.00  0.00    +0.000 C 
ATOM      3  C   UNL     1       4.771   3.499  18.470  0.00  0.00    +0.000 C 
ATOM      4  C   UNL     1       3.421   3.318  19.175  0.00  0.00    +0.000 C 
ATOM      5  C   UNL     1       2.665   2.091  18.627  0.00  0.00    +0.000 C 
ATOM      6  C   UNL     1       1.294   1.910  19.285  0.00  0.00    +0.000 C 
ATOM      7  C   UNL     1       0.456   3.185  19.239  0.00  0.00    +0.000 C 
ATOM      8  C   UNL     1       1.219   4.384  19.797  0.00  0.00    +0.000 C 
ATOM      9  C   UNL     1       2.534   4.576  19.013  0.00  0.00    +0.000 C 
ATOM     10  C   UNL     1       3.311   5.874  19.389  0.00  0.00    +0.000 C 
ENDROOT
BRANCH  10  11
ATOM     11  C   UNL     1       2.467   7.153  19.324  0.00  0.00    +0.000 A 
ATOM     12  C   UNL     1       2.249   7.792  18.097  0.00  0.00    +0.000 A 
ATOM     13  C   UNL     1       1.544   8.999  18.042  0.00  0.00    +0.000 A 
ATOM     14  C   UNL     1       1.029   9.577  19.209  0.00  0.00    +0.000 A 
ATOM     15  C   UNL     1       1.176   8.928  20.436  0.00  0.00    +0.000 A 
ATOM     16  C   UNL     1       1.892   7.726  20.473  0.00  0.00    +0.000 A 
BRANCH  14  17
ATOM     17  O   UNL     1       0.393  10.783  19.114  0.00  0.00    +0.000 OA
ATOM     18  H   UNL     1       1.037  11.456  18.840  0.00  0.00    +0.000 HD
ENDBRANCH  14  17
BRANCH  15  19
ATOM     19  O   UNL     1       0.724   9.301  21.671  0.00  0.00    +0.000 OA
ATOM     20  C   UNL     1      -0.532   8.806  22.107  0.00  0.00    +0.000 C 
ENDBRANCH  15  19
ENDBRANCH  10  11
BRANCH   4  21
ATOM     21  O   UNL     1       3.682   3.100  20.570  0.00  0.00    +0.000 OA
ATOM     22  H   UNL     1       4.487   3.600  20.805  0.00  0.00    +0.000 HD
ENDBRANCH   4  21
BRANCH   1  23
ATOM     23  C   UNL     1       4.337   6.232  17.168  0.00  0.00    +0.000 C 
BRANCH  23  25
ATOM     24  N   UNL     1       5.503   5.102  15.357  0.00  0.00    +0.000 N 
ATOM     25  C   UNL     1       5.594   6.089  16.315  0.00  0.00    +0.000 C 
ATOM     26  O   UNL     1       6.604   6.760  16.511  0.00  0.00    +0.000 OA
ATOM     27  H   UNL     1       4.596   4.683  15.185  0.00  0.00    +0.000 HD
BRANCH  24  28
ATOM     28  C   UNL     1       6.642   4.676  14.582  0.00  0.00    +0.000 C 
BRANCH  28  29
ATOM     29  C   UNL     1       6.231   3.778  13.411  0.00  0.00    +0.000 C 
BRANCH  29  30
ATOM     30  C   UNL     1       7.040   4.142  12.168  0.00  0.00    +0.000 C 
BRANCH  30  32
ATOM     31  C   UNL     1       7.889   6.340  11.322  0.00  0.00    +0.000 C 
ATOM     32  C   UNL     1       8.023   5.285  12.411  0.00  0.00    +0.000 C 
ENDBRANCH  30  32
ENDBRANCH  29  30
ENDBRANCH  28  29
ENDBRANCH  24  28
ENDBRANCH  23  25
ENDBRANCH   1  23
TORSDOF 10
ENDMDL
MODEL 5
REMARK VINA RESULT:      -7.4      2.522      4.257
REMARK  Name = 
REMARK  12 active torsions:
REMARK  status: ('A' for Active; 'I' for Inactive)
REMARK    1  A    between atoms: C_1  and  C_2
REMARK    2  A    between atoms: C_2  and  C_3
REMARK    3  A    between atoms: C_3  and  C_4
REMARK    4  A    between atoms: C_4  and  C_5
REMARK    5  A    between atoms: C_5  and  N_6
REMARK    6  A    between atoms: C_7  and  C_9
REMARK    7  A    between atoms: C_9  and  N_10
REMARK    8  A    between atoms: C_13  and  O_14
REMARK    9  A    between atoms: C_20  and  C_21
REMARK   10  A    between atoms: C_24  and  O_25
REMARK   11  A    between atoms: C_26  and  O_27
REMARK   12  A    between atoms: O_27  and  C_28
REMARK                            x       y       z     vdW  Elec       q    Type
REMARK                         _______ _______ _______ _____ _____    ______ ____
ROOT
ATOM      1  N   UNL     1       4.528   5.902  19.037  0.00  0.00    +0.000 NA
ATOM      2  C   UNL     1       5.366   4.686  19.106  0.00  0.00    +0.000 C 
ATOM      3  C   UNL     1       4.725   3.447  18.469  0.00  0.00    +0.000 C 
ATOM      4  C   UNL     1       3.351   3.154  19.083  0.00  0.00    +0.000 C 
ATOM      5  C   UNL     1       2.618   2.044  18.305  0.00  0.00    +0.000 C 
ATOM      6  C   UNL     1       1.223   1.759  18.872  0.00  0.00    +0.000 C 
ATOM      7  C   UNL     1       0.386   3.027  19.016  0.00  0.00    +0.000 C 
ATOM      8  C   UNL     1       1.127   4.109  19.800  0.00  0.00    +0.000 C 
ATOM      9  C   UNL     1       2.469   4.426  19.108  0.00  0.00    +0.000 C 
ATOM     10  C   UNL     1       3.230   5.636  19.730  0.00  0.00    +0.000 C 
ENDROOT
BRANCH  10  11
ATOM     11  C   UNL     1       2.388   6.912  19.855  0.00  0.00    +0.000 A 
ATOM     12  C   UNL     1       1.655   7.161  21.020  0.00  0.00    +0.000 A 
ATOM     13  C   UNL     1       0.826   8.284  21.110  0.00  0.00    +0.000 A 
ATOM     14  C   UNL     1       0.733   9.187  20.043  0.00  0.00    +0.000 A 
ATOM     15  C   UNL     1       1.502   8.997  18.895  0.00  0.00    +0.000 A 
ATOM     16  C   UNL     1       2.319   7.863  18.820  0.00  0.00    +0.000 A 
BRANCH  14  17
ATOM     17  O   UNL     1      -0.129  10.242  20.156  0.00  0.00    +0.000 OA
ATOM     18  H   UNL     1      -1.036   9.900  20.227  0.00  0.00    +0.000 HD
ENDBRANCH  14  17
BRANCH  15  19
ATOM     19  O   UNL     1       1.583   9.770  17.770  0.00  0.00    +0.000 OA
ATOM     20  C   UNL     1       2.241  11.023  17.859  0.00  0.00    +0.000 C 
ENDBRANCH  15  19
ENDBRANCH  10  11
BRANCH   4  21
ATOM     21  O   UNL     1       3.562   2.698  20.428  0.00  0.00    +0.000 OA
ATOM     22  H   UNL     1       3.139   1.823  20.517  0.00  0.00    +0.000 HD
ENDBRANCH   4  21
BRANCH   1  23
ATOM     23  C   UNL     1       4.336   6.365  17.641  0.00  0.00    +0.000 C 
BRANCH  23  25
ATOM     24  N   UNL     1       6.517   7.428  17.803  0.00  0.00    +0.000 N 
ATOM     25  C   UNL     1       5.635   6.787  16.961  0.00  0.00    +0.000 C 
ATOM     26  O   UNL     1       5.839   6.614  15.762  0.00  0.00    +0.000 OA
ATOM     27  H   UNL     1       6.322   7.420  18.798  0.00  0.00    +0.000 HD
BRANCH  24  28
ATOM     28  C   UNL     1       7.710   8.077  17.318  0.00  0.00    +0.000 C 
BRANCH  28  29
ATOM     29  C   UNL     1       8.514   8.717  18.453  0.00  0.00    +0.000 C 
BRANCH  29  30
ATOM     30  C   UNL     1       8.691  10.211  18.187  0.00  0.00    +0.000 C 
BRANCH  30  32
ATOM     31  C   UNL     1      10.607  11.806  17.963  0.00  0.00    +0.000 C 
ATOM     32  C   UNL     1       9.922  10.797  18.874  0.00  0.00    +0.000 C 
ENDBRANCH  30  32
ENDBRANCH  29  30
ENDBRANCH  28  29
ENDBRANCH  24  28
ENDBRANCH  23  25
ENDBRANCH   1  23
TORSDOF 10
ENDMDL
MODEL 6
REMARK VINA RESULT:      -7.2      2.086      6.648
REMARK  Name = 
REMARK  12 active torsions:
REMARK  status: ('A' for Active; 'I' for Inactive)
REMARK    1  A    between atoms: C_1  and  C_2
REMARK    2  A    between atoms: C_2  and  C_3
REMARK    3  A    between atoms: C_3  and  C_4
REMARK    4  A    between atoms: C_4  and  C_5
REMARK    5  A    between atoms: C_5  and  N_6
REMARK    6  A    between atoms: C_7  and  C_9
REMARK    7  A    between atoms: C_9  and  N_10
REMARK    8  A    between atoms: C_13  and  O_14
REMARK    9  A    between atoms: C_20  and  C_21
REMARK   10  A    between atoms: C_24  and  O_25
REMARK   11  A    between atoms: C_26  and  O_27
REMARK   12  A    between atoms: O_27  and  C_28
REMARK                            x       y       z     vdW  Elec       q    Type
REMARK                         _______ _______ _______ _____ _____    ______ ____
ROOT
ATOM      1  N   UNL     1       5.170   6.043  18.172  0.00  0.00    +0.000 NA
ATOM      2  C   UNL     1       6.517   6.621  17.978  0.00  0.00    +0.000 C 
ATOM      3  C   UNL     1       6.957   6.706  16.511  0.00  0.00    +0.000 C 
ATOM      4  C   UNL     1       6.888   5.335  15.830  0.00  0.00    +0.000 C 
ATOM      5  C   UNL     1       7.125   5.454  14.311  0.00  0.00    +0.000 C 
ATOM      6  C   UNL     1       7.021   4.102  13.598  0.00  0.00    +0.000 C 
ATOM      7  C   UNL     1       5.727   3.366  13.935  0.00  0.00    +0.000 C 
ATOM      8  C   UNL     1       5.519   3.250  15.443  0.00  0.00    +0.000 C 
ATOM      9  C   UNL     1       5.520   4.655  16.080  0.00  0.00    +0.000 C 
ATOM     10  C   UNL     1       5.147   4.664  17.593  0.00  0.00    +0.000 C 
ENDROOT
BRANCH  10  11
ATOM     11  C   UNL     1       3.836   3.939  17.922  0.00  0.00    +0.000 A 
ATOM     12  C   UNL     1       2.806   3.882  16.976  0.00  0.00    +0.000 A 
ATOM     13  C   UNL     1       1.581   3.288  17.298  0.00  0.00    +0.000 A 
ATOM     14  C   UNL     1       1.373   2.724  18.563  0.00  0.00    +0.000 A 
ATOM     15  C   UNL     1       2.406   2.710  19.502  0.00  0.00    +0.000 A 
ATOM     16  C   UNL     1       3.621   3.317  19.166  0.00  0.00    +0.000 A 
BRANCH  14  17
ATOM     17  O   UNL     1       0.143   2.201  18.850  0.00  0.00    +0.000 OA
ATOM     18  H   UNL     1      -0.538   2.761  18.443  0.00  0.00    +0.000 HD
ENDBRANCH  14  17
BRANCH  15  19
ATOM     19  O   UNL     1       2.420   2.185  20.764  0.00  0.00    +0.000 OA
ATOM     20  C   UNL     1       1.920   2.977  21.829  0.00  0.00    +0.000 C 
ENDBRANCH  15  19
ENDBRANCH  10  11
BRANCH   4  21
ATOM     21  O   UNL     1       7.931   4.519  16.386  0.00  0.00    +0.000 OA
ATOM     22  H   UNL     1       8.448   4.148  15.645  0.00  0.00    +0.000 HD
ENDBRANCH   4  21
BRANCH   1  23
ATOM     23  C   UNL     1       4.108   6.909  17.605  0.00  0.00    +0.000 C 
BRANCH  23  25
ATOM     24  N   UNL     1       2.315   8.410  18.273  0.00  0.00    +0.000 N 
ATOM     25  C   UNL     1       3.028   7.281  18.616  0.00  0.00    +0.000 C 
ATOM     26  O   UNL     1       2.858   6.657  19.660  0.00  0.00    +0.000 OA
ATOM     27  H   UNL     1       2.438   8.789  17.341  0.00  0.00    +0.000 HD
BRANCH  24  28
ATOM     28  C   UNL     1       1.389   9.039  19.181  0.00  0.00    +0.000 C 
BRANCH  28  29
ATOM     29  C   UNL     1       0.748  10.288  18.568  0.00  0.00    +0.000 C 
BRANCH  29  30
ATOM     30  C   UNL     1      -0.773  10.203  18.688  0.00  0.00    +0.000 C 
BRANCH  30  32
ATOM     31  C   UNL     1      -2.972   9.899  17.533  0.00  0.00    +0.000 C 
ATOM     32  C   UNL     1      -1.460   9.919  17.355  0.00  0.00    +0.000 C 
ENDBRANCH  30  32
ENDBRANCH  29  30
ENDBRANCH  28  29
ENDBRANCH  24  28
ENDBRANCH  23  25
ENDBRANCH   1  23
TORSDOF 10
ENDMDL
MODEL 7
REMARK VINA RESULT:      -7.1      2.322      6.657
REMARK  Name = 
REMARK  12 active torsions:
REMARK  status: ('A' for Active; 'I' for Inactive)
REMARK    1  A    between atoms: C_1  and  C_2
REMARK    2  A    between atoms: C_2  and  C_3
REMARK    3  A    between atoms: C_3  and  C_4
REMARK    4  A    between atoms: C_4  and  C_5
REMARK    5  A    between atoms: C_5  and  N_6
REMARK    6  A    between atoms: C_7  and  C_9
REMARK    7  A    between atoms: C_9  and  N_10
REMARK    8  A    between atoms: C_13  and  O_14
REMARK    9  A    between atoms: C_20  and  C_21
REMARK   10  A    between atoms: C_24  and  O_25
REMARK   11  A    between atoms: C_26  and  O_27
REMARK   12  A    between atoms: O_27  and  C_28
REMARK                            x       y       z     vdW  Elec       q    Type
REMARK                         _______ _______ _______ _____ _____    ______ ____
ROOT
ATOM      1  N   UNL     1       2.338   5.415  18.062  0.00  0.00    +0.000 NA
ATOM      2  C   UNL     1       1.100   4.977  18.740  0.00  0.00    +0.000 C 
ATOM      3  C   UNL     1       1.327   4.377  20.134  0.00  0.00    +0.000 C 
ATOM      4  C   UNL     1       2.319   3.210  20.081  0.00  0.00    +0.000 C 
ATOM      5  C   UNL     1       2.709   2.745  21.499  0.00  0.00    +0.000 C 
ATOM      6  C   UNL     1       3.732   1.605  21.476  0.00  0.00    +0.000 C 
ATOM      7  C   UNL     1       4.946   1.932  20.610  0.00  0.00    +0.000 C 
ATOM      8  C   UNL     1       4.537   2.378  19.208  0.00  0.00    +0.000 C 
ATOM      9  C   UNL     1       3.600   3.600  19.303  0.00  0.00    +0.000 C 
ATOM     10  C   UNL     1       3.256   4.242  17.925  0.00  0.00    +0.000 C 
ENDROOT
BRANCH  10  11
ATOM     11  C   UNL     1       4.481   4.584  17.068  0.00  0.00    +0.000 A 
ATOM     12  C   UNL     1       4.471   4.330  15.692  0.00  0.00    +0.000 A 
ATOM     13  C   UNL     1       5.613   4.570  14.919  0.00  0.00    +0.000 A 
ATOM     14  C   UNL     1       6.775   5.087  15.506  0.00  0.00    +0.000 A 
ATOM     15  C   UNL     1       6.789   5.410  16.864  0.00  0.00    +0.000 A 
ATOM     16  C   UNL     1       5.642   5.155  17.622  0.00  0.00    +0.000 A 
BRANCH  14  17
ATOM     17  O   UNL     1       7.882   5.256  14.722  0.00  0.00    +0.000 OA
ATOM     18  H   UNL     1       8.505   4.532  14.899  0.00  0.00    +0.000 HD
ENDBRANCH  14  17
BRANCH  15  19
ATOM     19  O   UNL     1       7.797   5.950  17.613  0.00  0.00    +0.000 OA
ATOM     20  C   UNL     1       7.710   5.861  19.025  0.00  0.00    +0.000 C 
ENDBRANCH  15  19
ENDBRANCH  10  11
BRANCH   4  21
ATOM     21  O   UNL     1       1.673   2.117  19.411  0.00  0.00    +0.000 OA
ATOM     22  H   UNL     1       1.132   2.487  18.687  0.00  0.00    +0.000 HD
ENDBRANCH   4  21
BRANCH   1  23
ATOM     23  C   UNL     1       2.981   6.553  18.762  0.00  0.00    +0.000 C 
BRANCH  23  25
ATOM     24  N   UNL     1       1.699   8.611  18.949  0.00  0.00    +0.000 N 
ATOM     25  C   UNL     1       2.602   7.912  18.179  0.00  0.00    +0.000 C 
ATOM     26  O   UNL     1       3.029   8.308  17.097  0.00  0.00    +0.000 OA
ATOM     27  H   UNL     1       1.494   8.265  19.881  0.00  0.00    +0.000 HD
BRANCH  24  28
ATOM     28  C   UNL     1       1.066   9.821  18.484  0.00  0.00    +0.000 C 
BRANCH  28  29
ATOM     29  C   UNL     1      -0.164  10.180  19.323  0.00  0.00    +0.000 C 
BRANCH  29  30
ATOM     30  C   UNL     1      -1.219  10.844  18.440  0.00  0.00    +0.000 C 
BRANCH  30  32
ATOM     31  C   UNL     1      -3.236   9.784  17.406  0.00  0.00    +0.000 C 
ATOM     32  C   UNL     1      -1.723   9.931  17.325  0.00  0.00    +0.000 C 
ENDBRANCH  30  32
ENDBRANCH  29  30
ENDBRANCH  28  29
ENDBRANCH  24  28
ENDBRANCH  23  25
ENDBRANCH   1  23
TORSDOF 10
ENDMDL
MODEL 8
REMARK VINA RESULT:      -7.1      1.036      1.994
REMARK  Name = 
REMARK  12 active torsions:
REMARK  status: ('A' for Active; 'I' for Inactive)
REMARK    1  A    between atoms: C_1  and  C_2
REMARK    2  A    between atoms: C_2  and  C_3
REMARK    3  A    between atoms: C_3  and  C_4
REMARK    4  A    between atoms: C_4  and  C_5
REMARK    5  A    between atoms: C_5  and  N_6
REMARK    6  A    between atoms: C_7  and  C_9
REMARK    7  A    between atoms: C_9  and  N_10
REMARK    8  A    between atoms: C_13  and  O_14
REMARK    9  A    between atoms: C_20  and  C_21
REMARK   10  A    between atoms: C_24  and  O_25
REMARK   11  A    between atoms: C_26  and  O_27
REMARK   12  A    between atoms: O_27  and  C_28
REMARK                            x       y       z     vdW  Elec       q    Type
REMARK                         _______ _______ _______ _____ _____    ______ ____
ROOT
ATOM      1  N   UNL     1       4.410   6.026  18.899  0.00  0.00    +0.000 NA
ATOM      2  C   UNL     1       5.267   4.823  18.933  0.00  0.00    +0.000 C 
ATOM      3  C   UNL     1       4.601   3.564  18.363  0.00  0.00    +0.000 C 
ATOM      4  C   UNL     1       3.276   3.265  19.073  0.00  0.00    +0.000 C 
ATOM      5  C   UNL     1       2.507   2.131  18.367  0.00  0.00    +0.000 C 
ATOM      6  C   UNL     1       1.158   1.840  19.033  0.00  0.00    +0.000 C 
ATOM      7  C   UNL     1       0.315   3.100  19.211  0.00  0.00    +0.000 C 
ATOM      8  C   UNL     1       1.093   4.205  19.923  0.00  0.00    +0.000 C 
ATOM      9  C   UNL     1       2.380   4.526  19.136  0.00  0.00    +0.000 C 
ATOM     10  C   UNL     1       3.165   5.757  19.684  0.00  0.00    +0.000 C 
ENDROOT
BRANCH  10  11
ATOM     11  C   UNL     1       2.316   7.024  19.843  0.00  0.00    +0.000 A 
ATOM     12  C   UNL     1       1.589   7.241  21.019  0.00  0.00    +0.000 A 
ATOM     13  C   UNL     1       0.754   8.358  21.140  0.00  0.00    +0.000 A 
ATOM     14  C   UNL     1       0.648   9.284  20.094  0.00  0.00    +0.000 A 
ATOM     15  C   UNL     1       1.411   9.125  18.937  0.00  0.00    +0.000 A 
ATOM     16  C   UNL     1       2.234   7.998  18.831  0.00  0.00    +0.000 A 
BRANCH  14  17
ATOM     17  O   UNL     1      -0.220  10.331  20.237  0.00  0.00    +0.000 OA
ATOM     18  H   UNL     1      -0.481  10.396  21.170  0.00  0.00    +0.000 HD
ENDBRANCH  14  17
BRANCH  15  19
ATOM     19  O   UNL     1       1.479   9.923  17.830  0.00  0.00    +0.000 OA
ATOM     20  C   UNL     1       2.206  11.138  17.918  0.00  0.00    +0.000 C 
ENDBRANCH  15  19
ENDBRANCH  10  11
BRANCH   4  21
ATOM     21  O   UNL     1       3.584   2.836  20.409  0.00  0.00    +0.000 OA
ATOM     22  H   UNL     1       4.385   2.280  20.368  0.00  0.00    +0.000 HD
ENDBRANCH   4  21
BRANCH   1  23
ATOM     23  C   UNL     1       4.117   6.461  17.512  0.00  0.00    +0.000 C 
BRANCH  23  25
ATOM     24  N   UNL     1       5.273   5.445  15.629  0.00  0.00    +0.000 N 
ATOM     25  C   UNL     1       5.338   6.424  16.598  0.00  0.00    +0.000 C 
ATOM     26  O   UNL     1       6.304   7.166  16.756  0.00  0.00    +0.000 OA
ATOM     27  H   UNL     1       4.393   4.961  15.495  0.00  0.00    +0.000 HD
BRANCH  24  28
ATOM     28  C   UNL     1       6.401   5.116  14.793  0.00  0.00    +0.000 C 
BRANCH  28  29
ATOM     29  C   UNL     1       6.092   3.948  13.852  0.00  0.00    +0.000 C 
BRANCH  29  30
ATOM     30  C   UNL     1       6.852   4.124  12.538  0.00  0.00    +0.000 C 
BRANCH  30  32
ATOM     31  C   UNL     1       7.823   6.170  11.474  0.00  0.00    +0.000 C 
ATOM     32  C   UNL     1       7.951   5.180  12.623  0.00  0.00    +0.000 C 
ENDBRANCH  30  32
ENDBRANCH  29  30
ENDBRANCH  28  29
ENDBRANCH  24  28
ENDBRANCH  23  25
ENDBRANCH   1  23
TORSDOF 10
ENDMDL
MODEL 9
REMARK VINA RESULT:      -7.1      2.086      7.318
REMARK  Name = 
REMARK  12 active torsions:
REMARK  status: ('A' for Active; 'I' for Inactive)
REMARK    1  A    between atoms: C_1  and  C_2
REMARK    2  A    between atoms: C_2  and  C_3
REMARK    3  A    between atoms: C_3  and  C_4
REMARK    4  A    between atoms: C_4  and  C_5
REMARK    5  A    between atoms: C_5  and  N_6
REMARK    6  A    between atoms: C_7  and  C_9
REMARK    7  A    between atoms: C_9  and  N_10
REMARK    8  A    between atoms: C_13  and  O_14
REMARK    9  A    between atoms: C_20  and  C_21
REMARK   10  A    between atoms: C_24  and  O_25
REMARK   11  A    between atoms: C_26  and  O_27
REMARK   12  A    between atoms: O_27  and  C_28
REMARK                            x       y       z     vdW  Elec       q    Type
REMARK                         _______ _______ _______ _____ _____    ______ ____
ROOT
ATOM      1  N   UNL     1       2.284   5.505  18.123  0.00  0.00    +0.000 NA
ATOM      2  C   UNL     1       1.052   5.082  18.822  0.00  0.00    +0.000 C 
ATOM      3  C   UNL     1       1.297   4.453  20.199  0.00  0.00    +0.000 C 
ATOM      4  C   UNL     1       2.262   3.266  20.104  0.00  0.00    +0.000 C 
ATOM      5  C   UNL     1       2.673   2.767  21.503  0.00  0.00    +0.000 C 
ATOM      6  C   UNL     1       3.670   1.606  21.437  0.00  0.00    +0.000 C 
ATOM      7  C   UNL     1       4.871   1.922  20.550  0.00  0.00    +0.000 C 
ATOM      8  C   UNL     1       4.440   2.402  19.165  0.00  0.00    +0.000 C 
ATOM      9  C   UNL     1       3.532   3.642  19.304  0.00  0.00    +0.000 C 
ATOM     10  C   UNL     1       3.172   4.316  17.945  0.00  0.00    +0.000 C 
ENDROOT
BRANCH  10  11
ATOM     11  C   UNL     1       4.384   4.647  17.066  0.00  0.00    +0.000 A 
ATOM     12  C   UNL     1       4.790   3.760  16.062  0.00  0.00    +0.000 A 
ATOM     13  C   UNL     1       5.939   4.022  15.308  0.00  0.00    +0.000 A 
ATOM     14  C   UNL     1       6.690   5.182  15.533  0.00  0.00    +0.000 A 
ATOM     15  C   UNL     1       6.272   6.114  16.483  0.00  0.00    +0.000 A 
ATOM     16  C   UNL     1       5.125   5.832  17.234  0.00  0.00    +0.000 A 
BRANCH  14  17
ATOM     17  O   UNL     1       7.834   5.369  14.808  0.00  0.00    +0.000 OA
ATOM     18  H   UNL     1       8.321   6.123  15.181  0.00  0.00    +0.000 HD
ENDBRANCH  14  17
BRANCH  15  19
ATOM     19  O   UNL     1       6.835   7.311  16.827  0.00  0.00    +0.000 OA
ATOM     20  C   UNL     1       7.751   7.340  17.909  0.00  0.00    +0.000 C 
ENDBRANCH  15  19
ENDBRANCH  10  11
BRANCH   4  21
ATOM     21  O   UNL     1       1.576   2.199  19.429  0.00  0.00    +0.000 OA
ATOM     22  H   UNL     1       0.636   2.451  19.350  0.00  0.00    +0.000 HD
ENDBRANCH   4  21
BRANCH   1  23
ATOM     23  C   UNL     1       2.967   6.617  18.827  0.00  0.00    +0.000 C 
BRANCH  23  25
ATOM     24  N   UNL     1       1.758   8.190  20.234  0.00  0.00    +0.000 N 
ATOM     25  C   UNL     1       2.113   7.876  18.939  0.00  0.00    +0.000 C 
ATOM     26  O   UNL     1       1.739   8.510  17.956  0.00  0.00    +0.000 OA
ATOM     27  H   UNL     1       2.208   7.686  20.990  0.00  0.00    +0.000 HD
BRANCH  24  28
ATOM     28  C   UNL     1       0.797   9.222  20.538  0.00  0.00    +0.000 C 
BRANCH  28  29
ATOM     29  C   UNL     1      -0.187   8.781  21.626  0.00  0.00    +0.000 C 
BRANCH  29  30
ATOM     30  C   UNL     1       0.023   9.618  22.887  0.00  0.00    +0.000 C 
BRANCH  30  32
ATOM     31  C   UNL     1      -0.841  11.935  22.505  0.00  0.00    +0.000 C 
ATOM     32  C   UNL     1      -1.123  10.589  23.156  0.00  0.00    +0.000 C 
ENDBRANCH  30  32
ENDBRANCH  29  30
ENDBRANCH  28  29
ENDBRANCH  24  28
ENDBRANCH  23  25
ENDBRANCH   1  23
TORSDOF 10
ENDMDL
