MODEL 1
REMARK VINA RESULT:      -5.8      0.000      0.000
REMARK  Name = 
REMARK  12 active torsions:
REMARK  status: ('A' for Active; 'I' for Inactive)
REMARK    1  A    between atoms: C_1  and  C_2
REMARK    2  A    between atoms: C_2  and  O_3
REMARK    3  A    between atoms: O_3  and  C_4
REMARK    4  A    between atoms: C_4  and  C_6
REMARK    5  A    between atoms: C_7  and  C_8
REMARK    6  A    between atoms: C_13  and  C_14
REMARK    7  A    between atoms: N_18  and  C_19
REMARK    8  A    between atoms: C_23  and  C_24
REMARK    9  A    between atoms: C_28  and  O_29
REMARK   10  A    between atoms: O_29  and  C_30
REMARK   11  A    between atoms: C_31  and  O_32
REMARK   12  A    between atoms: O_32  and  C_33
REMARK                            x       y       z     vdW  Elec       q    Type
REMARK                         _______ _______ _______ _____ _____    ______ ____
ROOT
ATOM      1  C   UNL     1      -5.016  13.260  19.769  0.00  0.00    +0.000 C 
ATOM      2  C   UNL     1      -5.301  12.162  19.032  0.00  0.00    +0.000 C 
ATOM      3  C   UNL     1      -6.661  11.643  18.624  0.00  0.00    +0.000 C 
ATOM      4  N   UNL     1      -4.320  11.303  18.596  0.00  0.00    +0.000 NA
ATOM      5  C   UNL     1      -3.114  11.509  18.976  0.00  0.00    +0.000 A 
ATOM      6  S   UNL     1      -1.844  10.445  18.476  0.00  0.00    +0.000 S 
ATOM      7  C   UNL     1      -0.670  11.323  19.368  0.00  0.00    +0.000 A 
ATOM      8  C   UNL     1       0.617  11.013  19.597  0.00  0.00    +0.000 C 
ATOM      9  C   UNL     1      -1.303  12.541  19.965  0.00  0.00    +0.000 A 
ATOM     10  O   UNL     1      -0.648  13.414  20.515  0.00  0.00    +0.000 OA
ATOM     11  N   UNL     1      -2.668  12.513  19.775  0.00  0.00    +0.000 N 
ATOM     12  C   UNL     1      -3.592  13.541  20.273  0.00  0.00    +0.000 C 
ENDROOT
BRANCH   8  13
ATOM     13  C   UNL     1       1.277   9.866  19.064  0.00  0.00    +0.000 A 
ATOM     14  C   UNL     1       1.853   9.591  17.833  0.00  0.00    +0.000 A 
ATOM     15  C   UNL     1       2.379   8.281  17.864  0.00  0.00    +0.000 A 
ATOM     16  C   UNL     1       2.134   7.779  19.119  0.00  0.00    +0.000 A 
ATOM     17  N   UNL     1       1.463   8.738  19.842  0.00  0.00    +0.000 N 
ATOM     18  C   UNL     1       0.989   8.518  21.194  0.00  0.00    +0.000 C 
ENDBRANCH   8  13
BRANCH  12  19
ATOM     19  C   UNL     1      -3.557  13.589  21.815  0.00  0.00    +0.000 A 
ATOM     20  C   UNL     1      -3.792  12.394  22.524  0.00  0.00    +0.000 A 
ATOM     21  C   UNL     1      -3.881  12.389  23.906  0.00  0.00    +0.000 A 
ATOM     22  C   UNL     1      -3.684  13.569  24.613  0.00  0.00    +0.000 A 
ATOM     23  C   UNL     1      -3.420  14.777  23.951  0.00  0.00    +0.000 A 
ATOM     24  C   UNL     1      -3.343  14.792  22.540  0.00  0.00    +0.000 A 
BRANCH  23  25
ATOM     25  O   UNL     1      -3.236  15.953  24.633  0.00  0.00    +0.000 OA
ATOM     26  C   UNL     1      -4.391  16.721  24.949  0.00  0.00    +0.000 C 
ENDBRANCH  23  25
BRANCH  24  27
ATOM     27  O   UNL     1      -3.193  15.917  21.766  0.00  0.00    +0.000 OA
ATOM     28  C   UNL     1      -1.903  16.508  21.623  0.00  0.00    +0.000 C 
ENDBRANCH  24  27
ENDBRANCH  12  19
BRANCH   1  29
ATOM     29  C   UNL     1      -6.100  14.127  20.297  0.00  0.00    +0.000 C 
ATOM     30  O   UNL     1      -6.261  15.303  19.990  0.00  0.00    +0.000 OA
BRANCH  29  31
ATOM     31  O   UNL     1      -6.938  13.425  21.098  0.00  0.00    +0.000 OA
BRANCH  31  33
ATOM     32  C   UNL     1      -7.000  14.547  23.285  0.00  0.00    +0.000 C 
ATOM     33  C   UNL     1      -7.734  14.234  21.987  0.00  0.00    +0.000 C 
ENDBRANCH  31  33
ENDBRANCH  29  31
ENDBRANCH   1  29
TORSDOF 7
ENDMDL
MODEL 2
REMARK VINA RESULT:      -5.7      3.695      5.854
REMARK  Name = 
REMARK  12 active torsions:
REMARK  status: ('A' for Active; 'I' for Inactive)
REMARK    1  A    between atoms: C_1  and  C_2
REMARK    2  A    between atoms: C_2  and  O_3
REMARK    3  A    between atoms: O_3  and  C_4
REMARK    4  A    between atoms: C_4  and  C_6
REMARK    5  A    between atoms: C_7  and  C_8
REMARK    6  A    between atoms: C_13  and  C_14
REMARK    7  A    between atoms: N_18  and  C_19
REMARK    8  A    between atoms: C_23  and  C_24
REMARK    9  A    between atoms: C_28  and  O_29
REMARK   10  A    between atoms: O_29  and  C_30
REMARK   11  A    between atoms: C_31  and  O_32
REMARK   12  A    between atoms: O_32  and  C_33
REMARK                            x       y       z     vdW  Elec       q    Type
REMARK                         _______ _______ _______ _____ _____    ______ ____
ROOT
ATOM      1  C   UNL     1      -0.460  10.500  21.720  0.00  0.00    +0.000 C 
ATOM      2  C   UNL     1       0.095   9.586  22.549  0.00  0.00    +0.000 C 
ATOM      3  C   UNL     1       0.006   9.522  24.056  0.00  0.00    +0.000 C 
ATOM      4  N   UNL     1       0.909   8.581  22.083  0.00  0.00    +0.000 NA
ATOM      5  C   UNL     1       1.215   8.568  20.838  0.00  0.00    +0.000 A 
ATOM      6  S   UNL     1       2.256   7.340  20.205  0.00  0.00    +0.000 S 
ATOM      7  C   UNL     1       2.193   8.011  18.626  0.00  0.00    +0.000 A 
ATOM      8  C   UNL     1       2.902   7.668  17.538  0.00  0.00    +0.000 C 
ATOM      9  C   UNL     1       1.231   9.158  18.608  0.00  0.00    +0.000 A 
ATOM     10  O   UNL     1       0.888   9.705  17.571  0.00  0.00    +0.000 OA
ATOM     11  N   UNL     1       0.811   9.450  19.888  0.00  0.00    +0.000 N 
ATOM     12  C   UNL     1      -0.108  10.547  20.224  0.00  0.00    +0.000 C 
ENDROOT
BRANCH   8  13
ATOM     13  C   UNL     1       3.837   6.593  17.491  0.00  0.00    +0.000 A 
ATOM     14  C   UNL     1       5.218   6.542  17.369  0.00  0.00    +0.000 A 
ATOM     15  C   UNL     1       5.624   5.190  17.391  0.00  0.00    +0.000 A 
ATOM     16  C   UNL     1       4.488   4.432  17.542  0.00  0.00    +0.000 A 
ATOM     17  N   UNL     1       3.409   5.282  17.597  0.00  0.00    +0.000 N 
ATOM     18  C   UNL     1       2.040   4.815  17.690  0.00  0.00    +0.000 C 
ENDBRANCH   8  13
BRANCH  12  19
ATOM     19  C   UNL     1       0.522  11.905  19.854  0.00  0.00    +0.000 A 
ATOM     20  C   UNL     1       1.848  12.158  20.260  0.00  0.00    +0.000 A 
ATOM     21  C   UNL     1       2.435  13.395  20.054  0.00  0.00    +0.000 A 
ATOM     22  C   UNL     1       1.729  14.390  19.389  0.00  0.00    +0.000 A 
ATOM     23  C   UNL     1       0.417  14.174  18.941  0.00  0.00    +0.000 A 
ATOM     24  C   UNL     1      -0.193  12.919  19.161  0.00  0.00    +0.000 A 
BRANCH  23  25
ATOM     25  O   UNL     1      -0.298  15.149  18.294  0.00  0.00    +0.000 OA
ATOM     26  C   UNL     1       0.041  16.504  18.562  0.00  0.00    +0.000 C 
ENDBRANCH  23  25
BRANCH  24  27
ATOM     27  O   UNL     1      -1.499  12.610  18.867  0.00  0.00    +0.000 OA
ATOM     28  C   UNL     1      -1.804  11.918  17.659  0.00  0.00    +0.000 C 
ENDBRANCH  24  27
ENDBRANCH  12  19
BRANCH   1  29
ATOM     29  C   UNL     1      -1.269  11.623  22.256  0.00  0.00    +0.000 C 
ATOM     30  O   UNL     1      -2.471  11.771  22.058  0.00  0.00    +0.000 OA
BRANCH  29  31
ATOM     31  O   UNL     1      -0.525  12.419  23.062  0.00  0.00    +0.000 OA
BRANCH  31  33
ATOM     32  C   UNL     1      -0.306  14.810  22.535  0.00  0.00    +0.000 C 
ATOM     33  C   UNL     1      -1.077  13.731  23.284  0.00  0.00    +0.000 C 
ENDBRANCH  31  33
ENDBRANCH  29  31
ENDBRANCH   1  29
TORSDOF 7
ENDMDL
MODEL 3
REMARK VINA RESULT:      -5.7      0.796      1.366
REMARK  Name = 
REMARK  12 active torsions:
REMARK  status: ('A' for Active; 'I' for Inactive)
REMARK    1  A    between atoms: C_1  and  C_2
REMARK    2  A    between atoms: C_2  and  O_3
REMARK    3  A    between atoms: O_3  and  C_4
REMARK    4  A    between atoms: C_4  and  C_6
REMARK    5  A    between atoms: C_7  and  C_8
REMARK    6  A    between atoms: C_13  and  C_14
REMARK    7  A    between atoms: N_18  and  C_19
REMARK    8  A    between atoms: C_23  and  C_24
REMARK    9  A    between atoms: C_28  and  O_29
REMARK   10  A    between atoms: O_29  and  C_30
REMARK   11  A    between atoms: C_31  and  O_32
REMARK   12  A    between atoms: O_32  and  C_33
REMARK                            x       y       z     vdW  Elec       q    Type
REMARK                         _______ _______ _______ _____ _____    ______ ____
ROOT
ATOM      1  C   UNL     1      -4.975  13.358  19.749  0.00  0.00    +0.000 C 
ATOM      2  C   UNL     1      -5.276  12.259  19.020  0.00  0.00    +0.000 C 
ATOM      3  C   UNL     1      -6.642  11.756  18.616  0.00  0.00    +0.000 C 
ATOM      4  N   UNL     1      -4.307  11.383  18.590  0.00  0.00    +0.000 NA
ATOM      5  C   UNL     1      -3.097  11.575  18.968  0.00  0.00    +0.000 A 
ATOM      6  S   UNL     1      -1.843  10.490  18.475  0.00  0.00    +0.000 S 
ATOM      7  C   UNL     1      -0.656  11.358  19.361  0.00  0.00    +0.000 A 
ATOM      8  C   UNL     1       0.626  11.032  19.592  0.00  0.00    +0.000 C 
ATOM      9  C   UNL     1      -1.272  12.589  19.949  0.00  0.00    +0.000 A 
ATOM     10  O   UNL     1      -0.605  13.457  20.493  0.00  0.00    +0.000 OA
ATOM     11  N   UNL     1      -2.638  12.579  19.759  0.00  0.00    +0.000 N 
ATOM     12  C   UNL     1      -3.547  13.624  20.251  0.00  0.00    +0.000 C 
ENDROOT
BRANCH   8  13
ATOM     13  C   UNL     1       1.270   9.873  19.068  0.00  0.00    +0.000 A 
ATOM     14  C   UNL     1       1.836   9.578  17.836  0.00  0.00    +0.000 A 
ATOM     15  C   UNL     1       2.347   8.262  17.878  0.00  0.00    +0.000 A 
ATOM     16  C   UNL     1       2.104   7.776  19.139  0.00  0.00    +0.000 A 
ATOM     17  N   UNL     1       1.448   8.750  19.856  0.00  0.00    +0.000 N 
ATOM     18  C   UNL     1       0.979   8.550  21.213  0.00  0.00    +0.000 C 
ENDBRANCH   8  13
BRANCH  12  19
ATOM     19  C   UNL     1      -3.511  13.682  21.792  0.00  0.00    +0.000 A 
ATOM     20  C   UNL     1      -3.740  12.491  22.510  0.00  0.00    +0.000 A 
ATOM     21  C   UNL     1      -3.828  12.495  23.891  0.00  0.00    +0.000 A 
ATOM     22  C   UNL     1      -3.636  13.681  24.590  0.00  0.00    +0.000 A 
ATOM     23  C   UNL     1      -3.378  14.886  23.919  0.00  0.00    +0.000 A 
ATOM     24  C   UNL     1      -3.302  14.891  22.508  0.00  0.00    +0.000 A 
BRANCH  23  25
ATOM     25  O   UNL     1      -3.199  16.067  24.593  0.00  0.00    +0.000 OA
ATOM     26  C   UNL     1      -4.360  16.751  25.047  0.00  0.00    +0.000 C 
ENDBRANCH  23  25
BRANCH  24  27
ATOM     27  O   UNL     1      -3.158  16.012  21.727  0.00  0.00    +0.000 OA
ATOM     28  C   UNL     1      -1.882  16.639  21.622  0.00  0.00    +0.000 C 
ENDBRANCH  24  27
ENDBRANCH  12  19
BRANCH   1  29
ATOM     29  C   UNL     1      -6.047  14.244  20.270  0.00  0.00    +0.000 C 
ATOM     30  O   UNL     1      -6.849  13.925  21.141  0.00  0.00    +0.000 OA
BRANCH  29  31
ATOM     31  O   UNL     1      -5.970  15.479  19.717  0.00  0.00    +0.000 OA
BRANCH  31  33
ATOM     32  C   UNL     1      -6.480  16.972  17.832  0.00  0.00    +0.000 C 
ATOM     33  C   UNL     1      -6.786  15.661  18.543  0.00  0.00    +0.000 C 
ENDBRANCH  31  33
ENDBRANCH  29  31
ENDBRANCH   1  29
TORSDOF 7
ENDMDL
MODEL 4
REMARK VINA RESULT:      -5.5      2.058      3.681
REMARK  Name = 
REMARK  12 active torsions:
REMARK  status: ('A' for Active; 'I' for Inactive)
REMARK    1  A    between atoms: C_1  and  C_2
REMARK    2  A    between atoms: C_2  and  O_3
REMARK    3  A    between atoms: O_3  and  C_4
REMARK    4  A    between atoms: C_4  and  C_6
REMARK    5  A    between atoms: C_7  and  C_8
REMARK    6  A    between atoms: C_13  and  C_14
REMARK    7  A    between atoms: N_18  and  C_19
REMARK    8  A    between atoms: C_23  and  C_24
REMARK    9  A    between atoms: C_28  and  O_29
REMARK   10  A    between atoms: O_29  and  C_30
REMARK   11  A    between atoms: C_31  and  O_32
REMARK   12  A    between atoms: O_32  and  C_33
REMARK                            x       y       z     vdW  Elec       q    Type
REMARK                         _______ _______ _______ _____ _____    ______ ____
ROOT
ATOM      1  C   UNL     1      -1.002  15.012  20.664  0.00  0.00    +0.000 C 
ATOM      2  C   UNL     1      -0.263  15.195  19.545  0.00  0.00    +0.000 C 
ATOM      3  C   UNL     1      -0.190  16.424  18.669  0.00  0.00    +0.000 C 
ATOM      4  N   UNL     1       0.508  14.190  19.010  0.00  0.00    +0.000 NA
ATOM      5  C   UNL     1       0.452  13.026  19.544  0.00  0.00    +0.000 A 
ATOM      6  S   UNL     1       1.384  11.720  18.895  0.00  0.00    +0.000 S 
ATOM      7  C   UNL     1       0.761  10.616  20.053  0.00  0.00    +0.000 A 
ATOM      8  C   UNL     1       0.923   9.285  20.118  0.00  0.00    +0.000 C 
ATOM      9  C   UNL     1      -0.106  11.351  21.028  0.00  0.00    +0.000 A 
ATOM     10  O   UNL     1      -0.542  10.822  22.041  0.00  0.00    +0.000 OA
ATOM     11  N   UNL     1      -0.293  12.654  20.616  0.00  0.00    +0.000 N 
ATOM     12  C   UNL     1      -1.125  13.633  21.329  0.00  0.00    +0.000 C 
ENDROOT
BRANCH   8  13
ATOM     13  C   UNL     1       1.728   8.526  19.218  0.00  0.00    +0.000 A 
ATOM     14  C   UNL     1       2.255   8.792  17.963  0.00  0.00    +0.000 A 
ATOM     15  C   UNL     1       2.995   7.667  17.537  0.00  0.00    +0.000 A 
ATOM     16  C   UNL     1       2.925   6.736  18.543  0.00  0.00    +0.000 A 
ATOM     17  N   UNL     1       2.154   7.255  19.557  0.00  0.00    +0.000 N 
ATOM     18  C   UNL     1       1.818   6.509  20.753  0.00  0.00    +0.000 C 
ENDBRANCH   8  13
BRANCH  12  19
ATOM     19  C   UNL     1      -2.596  13.167  21.354  0.00  0.00    +0.000 A 
ATOM     20  C   UNL     1      -3.243  12.937  20.123  0.00  0.00    +0.000 A 
ATOM     21  C   UNL     1      -4.590  12.623  20.072  0.00  0.00    +0.000 A 
ATOM     22  C   UNL     1      -5.309  12.478  21.253  0.00  0.00    +0.000 A 
ATOM     23  C   UNL     1      -4.699  12.670  22.502  0.00  0.00    +0.000 A 
ATOM     24  C   UNL     1      -3.328  13.006  22.561  0.00  0.00    +0.000 A 
BRANCH  23  25
ATOM     25  O   UNL     1      -5.397  12.543  23.676  0.00  0.00    +0.000 OA
ATOM     26  C   UNL     1      -6.784  12.859  23.657  0.00  0.00    +0.000 C 
ENDBRANCH  23  25
BRANCH  24  27
ATOM     27  O   UNL     1      -2.638  13.319  23.706  0.00  0.00    +0.000 OA
ATOM     28  C   UNL     1      -2.936  14.527  24.401  0.00  0.00    +0.000 C 
ENDBRANCH  24  27
ENDBRANCH  12  19
BRANCH   1  29
ATOM     29  C   UNL     1      -1.889  16.088  21.176  0.00  0.00    +0.000 C 
ATOM     30  O   UNL     1      -1.654  16.769  22.168  0.00  0.00    +0.000 OA
BRANCH  29  31
ATOM     31  O   UNL     1      -2.952  16.274  20.355  0.00  0.00    +0.000 OA
BRANCH  31  33
ATOM     32  C   UNL     1      -5.398  16.312  20.114  0.00  0.00    +0.000 C 
ATOM     33  C   UNL     1      -4.201  16.505  21.036  0.00  0.00    +0.000 C 
ENDBRANCH  31  33
ENDBRANCH  29  31
ENDBRANCH   1  29
TORSDOF 7
ENDMDL
MODEL 5
REMARK VINA RESULT:      -5.4      6.073      7.967
REMARK  Name = 
REMARK  12 active torsions:
REMARK  status: ('A' for Active; 'I' for Inactive)
REMARK    1  A    between atoms: C_1  and  C_2
REMARK    2  A    between atoms: C_2  and  O_3
REMARK    3  A    between atoms: O_3  and  C_4
REMARK    4  A    between atoms: C_4  and  C_6
REMARK    5  A    between atoms: C_7  and  C_8
REMARK    6  A    between atoms: C_13  and  C_14
REMARK    7  A    between atoms: N_18  and  C_19
REMARK    8  A    between atoms: C_23  and  C_24
REMARK    9  A    between atoms: C_28  and  O_29
REMARK   10  A    between atoms: O_29  and  C_30
REMARK   11  A    between atoms: C_31  and  O_32
REMARK   12  A    between atoms: O_32  and  C_33
REMARK                            x       y       z     vdW  Elec       q    Type
REMARK                         _______ _______ _______ _____ _____    ______ ____
ROOT
ATOM      1  C   UNL     1       1.750  16.370  18.947  0.00  0.00    +0.000 C 
ATOM      2  C   UNL     1       2.326  17.068  17.941  0.00  0.00    +0.000 C 
ATOM      3  C   UNL     1       1.646  17.810  16.814  0.00  0.00    +0.000 C 
ATOM      4  N   UNL     1       3.691  17.130  17.788  0.00  0.00    +0.000 NA
ATOM      5  C   UNL     1       4.427  16.434  18.573  0.00  0.00    +0.000 A 
ATOM      6  S   UNL     1       6.149  16.457  18.409  0.00  0.00    +0.000 S 
ATOM      7  C   UNL     1       6.352  15.336  19.693  0.00  0.00    +0.000 A 
ATOM      8  C   UNL     1       7.472  14.718  20.102  0.00  0.00    +0.000 C 
ATOM      9  C   UNL     1       5.022  15.048  20.319  0.00  0.00    +0.000 A 
ATOM     10  O   UNL     1       4.913  14.403  21.352  0.00  0.00    +0.000 OA
ATOM     11  N   UNL     1       4.010  15.623  19.580  0.00  0.00    +0.000 N 
ATOM     12  C   UNL     1       2.582  15.499  19.901  0.00  0.00    +0.000 C 
ENDROOT
BRANCH   8  13
ATOM     13  C   UNL     1       8.765  14.942  19.544  0.00  0.00    +0.000 A 
ATOM     14  C   UNL     1       9.764  15.868  19.807  0.00  0.00    +0.000 A 
ATOM     15  C   UNL     1      10.854  15.614  18.946  0.00  0.00    +0.000 A 
ATOM     16  C   UNL     1      10.515  14.525  18.180  0.00  0.00    +0.000 A 
ATOM     17  N   UNL     1       9.250  14.124  18.540  0.00  0.00    +0.000 N 
ATOM     18  C   UNL     1       8.551  13.036  17.885  0.00  0.00    +0.000 C 
ENDBRANCH   8  13
BRANCH  12  19
ATOM     19  C   UNL     1       2.141  14.023  19.817  0.00  0.00    +0.000 A 
ATOM     20  C   UNL     1       2.317  13.343  18.594  0.00  0.00    +0.000 A 
ATOM     21  C   UNL     1       1.846  12.053  18.420  0.00  0.00    +0.000 A 
ATOM     22  C   UNL     1       1.237  11.393  19.480  0.00  0.00    +0.000 A 
ATOM     23  C   UNL     1       1.065  12.020  20.723  0.00  0.00    +0.000 A 
ATOM     24  C   UNL     1       1.530  13.342  20.904  0.00  0.00    +0.000 A 
BRANCH  23  25
ATOM     25  O   UNL     1       0.455  11.387  21.776  0.00  0.00    +0.000 OA
ATOM     26  C   UNL     1      -0.776  10.721  21.522  0.00  0.00    +0.000 C 
ENDBRANCH  23  25
BRANCH  24  27
ATOM     27  O   UNL     1       1.337  14.103  22.031  0.00  0.00    +0.000 OA
ATOM     28  C   UNL     1       0.031  14.584  22.341  0.00  0.00    +0.000 C 
ENDBRANCH  24  27
ENDBRANCH  12  19
BRANCH   1  29
ATOM     29  C   UNL     1       0.273  16.252  19.043  0.00  0.00    +0.000 C 
ATOM     30  O   UNL     1      -0.383  15.328  18.573  0.00  0.00    +0.000 OA
BRANCH  29  31
ATOM     31  O   UNL     1      -0.249  17.255  19.791  0.00  0.00    +0.000 OA
BRANCH  31  33
ATOM     32  C   UNL     1      -2.529  18.059  19.348  0.00  0.00    +0.000 C 
ATOM     33  C   UNL     1      -1.642  17.093  20.122  0.00  0.00    +0.000 C 
ENDBRANCH  31  33
ENDBRANCH  29  31
ENDBRANCH   1  29
TORSDOF 7
ENDMDL
MODEL 6
REMARK VINA RESULT:      -5.4      3.246      5.675
REMARK  Name = 
REMARK  12 active torsions:
REMARK  status: ('A' for Active; 'I' for Inactive)
REMARK    1  A    between atoms: C_1  and  C_2
REMARK    2  A    between atoms: C_2  and  O_3
REMARK    3  A    between atoms: O_3  and  C_4
REMARK    4  A    between atoms: C_4  and  C_6
REMARK    5  A    between atoms: C_7  and  C_8
REMARK    6  A    between atoms: C_13  and  C_14
REMARK    7  A    between atoms: N_18  and  C_19
REMARK    8  A    between atoms: C_23  and  C_24
REMARK    9  A    between atoms: C_28  and  O_29
REMARK   10  A    between atoms: O_29  and  C_30
REMARK   11  A    between atoms: C_31  and  O_32
REMARK   12  A    between atoms: O_32  and  C_33
REMARK                            x       y       z     vdW  Elec       q    Type
REMARK                         _______ _______ _______ _____ _____    ______ ____
ROOT
ATOM      1  C   UNL     1      -0.366  10.586  21.838  0.00  0.00    +0.000 C 
ATOM      2  C   UNL     1       0.179   9.651  22.651  0.00  0.00    +0.000 C 
ATOM      3  C   UNL     1       0.120   9.581  24.159  0.00  0.00    +0.000 C 
ATOM      4  N   UNL     1       0.953   8.625  22.162  0.00  0.00    +0.000 NA
ATOM      5  C   UNL     1       1.232   8.611  20.912  0.00  0.00    +0.000 A 
ATOM      6  S   UNL     1       2.222   7.355  20.249  0.00  0.00    +0.000 S 
ATOM      7  C   UNL     1       2.147   8.038  18.676  0.00  0.00    +0.000 A 
ATOM      8  C   UNL     1       2.822   7.681  17.571  0.00  0.00    +0.000 C 
ATOM      9  C   UNL     1       1.219   9.213  18.685  0.00  0.00    +0.000 A 
ATOM     10  O   UNL     1       0.871   9.777  17.658  0.00  0.00    +0.000 OA
ATOM     11  N   UNL     1       0.834   9.510  19.975  0.00  0.00    +0.000 N 
ATOM     12  C   UNL     1      -0.044  10.631  20.337  0.00  0.00    +0.000 C 
ENDROOT
BRANCH   8  13
ATOM     13  C   UNL     1       3.724   6.578  17.498  0.00  0.00    +0.000 A 
ATOM     14  C   UNL     1       5.100   6.488  17.357  0.00  0.00    +0.000 A 
ATOM     15  C   UNL     1       5.465   5.124  17.357  0.00  0.00    +0.000 A 
ATOM     16  C   UNL     1       4.309   4.399  17.515  0.00  0.00    +0.000 A 
ATOM     17  N   UNL     1       3.257   5.280  17.596  0.00  0.00    +0.000 N 
ATOM     18  C   UNL     1       1.876   4.853  17.702  0.00  0.00    +0.000 C 
ENDBRANCH   8  13
BRANCH  12  19
ATOM     19  C   UNL     1       0.619  11.973  19.960  0.00  0.00    +0.000 A 
ATOM     20  C   UNL     1       1.947  12.199  20.375  0.00  0.00    +0.000 A 
ATOM     21  C   UNL     1       2.562  13.422  20.164  0.00  0.00    +0.000 A 
ATOM     22  C   UNL     1       1.883  14.427  19.485  0.00  0.00    +0.000 A 
ATOM     23  C   UNL     1       0.570  14.236  19.029  0.00  0.00    +0.000 A 
ATOM     24  C   UNL     1      -0.069  12.996  19.255  0.00  0.00    +0.000 A 
BRANCH  23  25
ATOM     25  O   UNL     1      -0.119  15.221  18.369  0.00  0.00    +0.000 OA
ATOM     26  C   UNL     1      -0.527  16.358  19.120  0.00  0.00    +0.000 C 
ENDBRANCH  23  25
BRANCH  24  27
ATOM     27  O   UNL     1      -1.379  12.714  18.953  0.00  0.00    +0.000 OA
ATOM     28  C   UNL     1      -1.691  12.024  17.745  0.00  0.00    +0.000 C 
ENDBRANCH  24  27
ENDBRANCH  12  19
BRANCH   1  29
ATOM     29  C   UNL     1      -1.130  11.729  22.398  0.00  0.00    +0.000 C 
ATOM     30  O   UNL     1      -0.647  12.611  23.101  0.00  0.00    +0.000 OA
BRANCH  29  31
ATOM     31  O   UNL     1      -2.413  11.718  21.961  0.00  0.00    +0.000 OA
BRANCH  31  33
ATOM     32  C   UNL     1      -3.721  12.308  23.957  0.00  0.00    +0.000 C 
ATOM     33  C   UNL     1      -3.260  12.716  22.564  0.00  0.00    +0.000 C 
ENDBRANCH  31  33
ENDBRANCH  29  31
ENDBRANCH   1  29
TORSDOF 7
ENDMDL
MODEL 7
REMARK VINA RESULT:      -5.4      2.025      3.971
REMARK  Name = 
REMARK  12 active torsions:
REMARK  status: ('A' for Active; 'I' for Inactive)
REMARK    1  A    between atoms: C_1  and  C_2
REMARK    2  A    between atoms: C_2  and  O_3
REMARK    3  A    between atoms: O_3  and  C_4
REMARK    4  A    between atoms: C_4  and  C_6
REMARK    5  A    between atoms: C_7  and  C_8
REMARK    6  A    between atoms: C_13  and  C_14
REMARK    7  A    between atoms: N_18  and  C_19
REMARK    8  A    between atoms: C_23  and  C_24
REMARK    9  A    between atoms: C_28  and  O_29
REMARK   10  A    between atoms: O_29  and  C_30
REMARK   11  A    between atoms: C_31  and  O_32
REMARK   12  A    between atoms: O_32  and  C_33
REMARK                            x       y       z     vdW  Elec       q    Type
REMARK                         _______ _______ _______ _____ _____    ______ ____
ROOT
ATOM      1  C   UNL     1      -1.223  15.104  20.629  0.00  0.00    +0.000 C 
ATOM      2  C   UNL     1      -0.516  15.279  19.489  0.00  0.00    +0.000 C 
ATOM      3  C   UNL     1      -0.496  16.489  18.583  0.00  0.00    +0.000 C 
ATOM      4  N   UNL     1       0.269  14.283  18.959  0.00  0.00    +0.000 NA
ATOM      5  C   UNL     1       0.256  13.130  19.520  0.00  0.00    +0.000 A 
ATOM      6  S   UNL     1       1.206  11.834  18.879  0.00  0.00    +0.000 S 
ATOM      7  C   UNL     1       0.641  10.742  20.077  0.00  0.00    +0.000 A 
ATOM      8  C   UNL     1       0.839   9.417  20.168  0.00  0.00    +0.000 C 
ATOM      9  C   UNL     1      -0.222  11.477  21.055  0.00  0.00    +0.000 A 
ATOM     10  O   UNL     1      -0.620  10.961  22.090  0.00  0.00    +0.000 OA
ATOM     11  N   UNL     1      -0.453  12.764  20.618  0.00  0.00    +0.000 N 
ATOM     12  C   UNL     1      -1.294  13.738  21.329  0.00  0.00    +0.000 C 
ENDROOT
BRANCH   8  13
ATOM     13  C   UNL     1       1.643   8.658  19.266  0.00  0.00    +0.000 A 
ATOM     14  C   UNL     1       2.176   8.928  18.015  0.00  0.00    +0.000 A 
ATOM     15  C   UNL     1       2.910   7.801  17.585  0.00  0.00    +0.000 A 
ATOM     16  C   UNL     1       2.831   6.864  18.586  0.00  0.00    +0.000 A 
ATOM     17  N   UNL     1       2.060   7.383  19.600  0.00  0.00    +0.000 N 
ATOM     18  C   UNL     1       1.715   6.633  20.791  0.00  0.00    +0.000 C 
ENDBRANCH   8  13
BRANCH  12  19
ATOM     19  C   UNL     1      -2.750  13.235  21.400  0.00  0.00    +0.000 A 
ATOM     20  C   UNL     1      -3.431  12.990  20.190  0.00  0.00    +0.000 A 
ATOM     21  C   UNL     1      -4.771  12.642  20.182  0.00  0.00    +0.000 A 
ATOM     22  C   UNL     1      -5.447  12.477  21.384  0.00  0.00    +0.000 A 
ATOM     23  C   UNL     1      -4.803  12.683  22.614  0.00  0.00    +0.000 A 
ATOM     24  C   UNL     1      -3.440  13.053  22.629  0.00  0.00    +0.000 A 
BRANCH  23  25
ATOM     25  O   UNL     1      -5.459  12.536  23.809  0.00  0.00    +0.000 OA
ATOM     26  C   UNL     1      -6.881  12.509  23.783  0.00  0.00    +0.000 C 
ENDBRANCH  23  25
BRANCH  24  27
ATOM     27  O   UNL     1      -2.720  13.382  23.752  0.00  0.00    +0.000 OA
ATOM     28  C   UNL     1      -3.063  14.552  24.491  0.00  0.00    +0.000 C 
ENDBRANCH  24  27
ENDBRANCH  12  19
BRANCH   1  29
ATOM     29  C   UNL     1      -2.126  16.168  21.137  0.00  0.00    +0.000 C 
ATOM     30  O   UNL     1      -3.242  16.406  20.687  0.00  0.00    +0.000 OA
BRANCH  29  31
ATOM     31  O   UNL     1      -1.591  16.786  22.218  0.00  0.00    +0.000 OA
BRANCH  31  33
ATOM     32  C   UNL     1       0.081  18.501  21.666  0.00  0.00    +0.000 C 
ATOM     33  C   UNL     1      -1.362  18.198  22.048  0.00  0.00    +0.000 C 
ENDBRANCH  31  33
ENDBRANCH  29  31
ENDBRANCH   1  29
TORSDOF 7
ENDMDL
MODEL 8
REMARK VINA RESULT:      -5.2      6.184      8.049
REMARK  Name = 
REMARK  12 active torsions:
REMARK  status: ('A' for Active; 'I' for Inactive)
REMARK    1  A    between atoms: C_1  and  C_2
REMARK    2  A    between atoms: C_2  and  O_3
REMARK    3  A    between atoms: O_3  and  C_4
REMARK    4  A    between atoms: C_4  and  C_6
REMARK    5  A    between atoms: C_7  and  C_8
REMARK    6  A    between atoms: C_13  and  C_14
REMARK    7  A    between atoms: N_18  and  C_19
REMARK    8  A    between atoms: C_23  and  C_24
REMARK    9  A    between atoms: C_28  and  O_29
REMARK   10  A    between atoms: O_29  and  C_30
REMARK   11  A    between atoms: C_31  and  O_32
REMARK   12  A    between atoms: O_32  and  C_33
REMARK                            x       y       z     vdW  Elec       q    Type
REMARK                         _______ _______ _______ _____ _____    ______ ____
ROOT
ATOM      1  C   UNL     1       1.739  16.387  19.064  0.00  0.00    +0.000 C 
ATOM      2  C   UNL     1       2.340  17.074  18.065  0.00  0.00    +0.000 C 
ATOM      3  C   UNL     1       1.686  17.829  16.931  0.00  0.00    +0.000 C 
ATOM      4  N   UNL     1       3.707  17.111  17.928  0.00  0.00    +0.000 NA
ATOM      5  C   UNL     1       4.421  16.401  18.721  0.00  0.00    +0.000 A 
ATOM      6  S   UNL     1       6.145  16.392  18.576  0.00  0.00    +0.000 S 
ATOM      7  C   UNL     1       6.312  15.267  19.861  0.00  0.00    +0.000 A 
ATOM      8  C   UNL     1       7.416  14.628  20.283  0.00  0.00    +0.000 C 
ATOM      9  C   UNL     1       4.970  15.003  20.472  0.00  0.00    +0.000 A 
ATOM     10  O   UNL     1       4.838  14.361  21.503  0.00  0.00    +0.000 OA
ATOM     11  N   UNL     1       3.978  15.598  19.722  0.00  0.00    +0.000 N 
ATOM     12  C   UNL     1       2.543  15.500  20.027  0.00  0.00    +0.000 C 
ENDROOT
BRANCH   8  13
ATOM     13  C   UNL     1       8.720  14.829  19.740  0.00  0.00    +0.000 A 
ATOM     14  C   UNL     1       9.408  14.245  18.687  0.00  0.00    +0.000 A 
ATOM     15  C   UNL     1      10.681  14.848  18.591  0.00  0.00    +0.000 A 
ATOM     16  C   UNL     1      10.748  15.804  19.575  0.00  0.00    +0.000 A 
ATOM     17  N   UNL     1       9.563  15.787  20.272  0.00  0.00    +0.000 N 
ATOM     18  C   UNL     1       9.314  16.628  21.426  0.00  0.00    +0.000 C 
ENDBRANCH   8  13
BRANCH  12  19
ATOM     19  C   UNL     1       2.077  14.032  19.937  0.00  0.00    +0.000 A 
ATOM     20  C   UNL     1       2.261  13.348  18.718  0.00  0.00    +0.000 A 
ATOM     21  C   UNL     1       1.768  12.067  18.537  0.00  0.00    +0.000 A 
ATOM     22  C   UNL     1       1.128  11.420  19.587  0.00  0.00    +0.000 A 
ATOM     23  C   UNL     1       0.947  12.052  20.827  0.00  0.00    +0.000 A 
ATOM     24  C   UNL     1       1.434  13.365  21.014  0.00  0.00    +0.000 A 
BRANCH  23  25
ATOM     25  O   UNL     1       0.307  11.432  21.870  0.00  0.00    +0.000 OA
ATOM     26  C   UNL     1       0.343  10.011  21.916  0.00  0.00    +0.000 C 
ENDBRANCH  23  25
BRANCH  24  27
ATOM     27  O   UNL     1       1.236  14.131  22.136  0.00  0.00    +0.000 OA
ATOM     28  C   UNL     1      -0.060  14.660  22.408  0.00  0.00    +0.000 C 
ENDBRANCH  24  27
ENDBRANCH  12  19
BRANCH   1  29
ATOM     29  C   UNL     1       0.259  16.296  19.143  0.00  0.00    +0.000 C 
ATOM     30  O   UNL     1      -0.417  15.445  18.574  0.00  0.00    +0.000 OA
BRANCH  29  31
ATOM     31  O   UNL     1      -0.242  17.225  19.994  0.00  0.00    +0.000 OA
BRANCH  31  33
ATOM     32  C   UNL     1      -2.593  17.639  20.579  0.00  0.00    +0.000 C 
ATOM     33  C   UNL     1      -1.476  17.830  19.561  0.00  0.00    +0.000 C 
ENDBRANCH  31  33
ENDBRANCH  29  31
ENDBRANCH   1  29
TORSDOF 7
ENDMDL
MODEL 9
REMARK VINA RESULT:      -5.1      2.326      4.567
REMARK  Name = 
REMARK  12 active torsions:
REMARK  status: ('A' for Active; 'I' for Inactive)
REMARK    1  A    between atoms: C_1  and  C_2
REMARK    2  A    between atoms: C_2  and  O_3
REMARK    3  A    between atoms: O_3  and  C_4
REMARK    4  A    between atoms: C_4  and  C_6
REMARK    5  A    between atoms: C_7  and  C_8
REMARK    6  A    between atoms: C_13  and  C_14
REMARK    7  A    between atoms: N_18  and  C_19
REMARK    8  A    between atoms: C_23  and  C_24
REMARK    9  A    between atoms: C_28  and  O_29
REMARK   10  A    between atoms: O_29  and  C_30
REMARK   11  A    between atoms: C_31  and  O_32
REMARK   12  A    between atoms: O_32  and  C_33
REMARK                            x       y       z     vdW  Elec       q    Type
REMARK                         _______ _______ _______ _____ _____    ______ ____
ROOT
ATOM      1  C   UNL     1      -1.396  15.188  23.915  0.00  0.00    +0.000 C 
ATOM      2  C   UNL     1      -0.534  15.736  23.028  0.00  0.00    +0.000 C 
ATOM      3  C   UNL     1      -0.224  17.200  22.814  0.00  0.00    +0.000 C 
ATOM      4  N   UNL     1       0.156  14.972  22.117  0.00  0.00    +0.000 NA
ATOM      5  C   UNL     1      -0.095  13.717  22.056  0.00  0.00    +0.000 A 
ATOM      6  S   UNL     1       0.727  12.713  20.911  0.00  0.00    +0.000 S 
ATOM      7  C   UNL     1      -0.138  11.319  21.415  0.00  0.00    +0.000 A 
ATOM      8  C   UNL     1      -0.149  10.093  20.868  0.00  0.00    +0.000 C 
ATOM      9  C   UNL     1      -0.999  11.663  22.590  0.00  0.00    +0.000 A 
ATOM     10  O   UNL     1      -1.595  10.811  23.234  0.00  0.00    +0.000 OA
ATOM     11  N   UNL     1      -0.982  13.023  22.815  0.00  0.00    +0.000 N 
ATOM     12  C   UNL     1      -1.754  13.694  23.871  0.00  0.00    +0.000 C 
ENDROOT
BRANCH   8  13
ATOM     13  C   UNL     1       0.641   9.703  19.746  0.00  0.00    +0.000 A 
ATOM     14  C   UNL     1       0.829  10.247  18.484  0.00  0.00    +0.000 A 
ATOM     15  C   UNL     1       1.745   9.439  17.776  0.00  0.00    +0.000 A 
ATOM     16  C   UNL     1       2.118   8.422  18.619  0.00  0.00    +0.000 A 
ATOM     17  N   UNL     1       1.446   8.581  19.808  0.00  0.00    +0.000 N 
ATOM     18  C   UNL     1       1.555   7.643  20.908  0.00  0.00    +0.000 C 
ENDBRANCH   8  13
BRANCH  12  19
ATOM     19  C   UNL     1      -3.266  13.501  23.633  0.00  0.00    +0.000 A 
ATOM     20  C   UNL     1      -4.029  12.899  24.655  0.00  0.00    +0.000 A 
ATOM     21  C   UNL     1      -5.367  12.599  24.463  0.00  0.00    +0.000 A 
ATOM     22  C   UNL     1      -5.986  12.942  23.268  0.00  0.00    +0.000 A 
ATOM     23  C   UNL     1      -5.273  13.567  22.234  0.00  0.00    +0.000 A 
ATOM     24  C   UNL     1      -3.903  13.863  22.416  0.00  0.00    +0.000 A 
BRANCH  23  25
ATOM     25  O   UNL     1      -5.865  13.901  21.043  0.00  0.00    +0.000 OA
ATOM     26  C   UNL     1      -7.117  14.575  21.094  0.00  0.00    +0.000 C 
ENDBRANCH  23  25
BRANCH  24  27
ATOM     27  O   UNL     1      -3.068  14.377  21.454  0.00  0.00    +0.000 OA
ATOM     28  C   UNL     1      -3.321  15.675  20.922  0.00  0.00    +0.000 C 
ENDBRANCH  24  27
ENDBRANCH  12  19
BRANCH   1  29
ATOM     29  C   UNL     1      -2.190  16.043  24.834  0.00  0.00    +0.000 C 
ATOM     30  O   UNL     1      -3.116  16.767  24.484  0.00  0.00    +0.000 OA
BRANCH  29  31
ATOM     31  O   UNL     1      -1.813  15.854  26.122  0.00  0.00    +0.000 OA
BRANCH  31  33
ATOM     32  C   UNL     1       0.300  16.236  27.318  0.00  0.00    +0.000 C 
ATOM     33  C   UNL     1      -0.912  16.855  26.636  0.00  0.00    +0.000 C 
ENDBRANCH  31  33
ENDBRANCH  29  31
ENDBRANCH   1  29
TORSDOF 7
ENDMDL
