MODEL 1
REMARK VINA RESULT:      -7.7      0.000      0.000
REMARK  Name = 
REMARK  9 active torsions:
REMARK  status: ('A' for Active; 'I' for Inactive)
REMARK    1  A    between atoms: C_1  and  O_2
REMARK    2  A    between atoms: O_2  and  C_3
REMARK    3  A    between atoms: C_8  and  C_9
REMARK    4  A    between atoms: N_11  and  C_12
REMARK    5  A    between atoms: C_12  and  C_13
REMARK    6  A    between atoms: C_13  and  C_14
REMARK    7  A    between atoms: N_17  and  C_18
REMARK    8  A    between atoms: C_18  and  C_19
REMARK    9  A    between atoms: C_22  and  N_23
REMARK                            x       y       z     vdW  Elec       q    Type
REMARK                         _______ _______ _______ _____ _____    ______ ____
ROOT
ATOM      1  C   UNL     1       1.145   3.264  21.137  0.00  0.00    +0.000 C 
ENDROOT
BRANCH   1   4
ATOM      2  C   UNL     1       2.188   5.354  20.377  0.00  0.00    +0.000 C 
ATOM      3  O   UNL     1       3.296   4.990  20.772  0.00  0.00    +0.000 OA
ATOM      4  N   UNL     1       1.067   4.557  20.483  0.00  0.00    +0.000 N 
ATOM      5  H   UNL     1       0.156   4.928  20.234  0.00  0.00    +0.000 HD
BRANCH   2  11
ATOM      6  C   UNL     1       0.889  11.605  19.051  0.00  0.00    +0.000 A 
ATOM      7  C   UNL     1       0.546  11.327  20.374  0.00  0.00    +0.000 A 
ATOM      8  C   UNL     1       0.747  10.043  20.894  0.00  0.00    +0.000 A 
ATOM      9  C   UNL     1       1.288   9.022  20.104  0.00  0.00    +0.000 A 
ATOM     10  C   UNL     1       1.479   7.721  20.599  0.00  0.00    +0.000 A 
ATOM     11  C   UNL     1       2.009   6.709  19.785  0.00  0.00    +0.000 A 
ATOM     12  C   UNL     1       2.379   6.998  18.468  0.00  0.00    +0.000 A 
ATOM     13  C   UNL     1       2.202   8.289  17.965  0.00  0.00    +0.000 A 
ATOM     14  C   UNL     1       1.651   9.304  18.766  0.00  0.00    +0.000 A 
ATOM     15  C   UNL     1       1.451  10.598  18.262  0.00  0.00    +0.000 A 
BRANCH   6  17
ATOM     16  C   UNL     1      -0.577  13.371  18.445  0.00  0.00    +0.000 C 
ATOM     17  O   UNL     1       0.726  12.801  18.407  0.00  0.00    +0.000 OA
ENDBRANCH   6  17
ENDBRANCH   2  11
ENDBRANCH   1   4
BRANCH   1  18
ATOM     18  C   UNL     1       1.189   2.106  20.130  0.00  0.00    +0.000 C 
BRANCH  18  19
ATOM     19  C   UNL     1       2.195   2.337  19.021  0.00  0.00    +0.000 A 
ATOM     20  C   UNL     1       3.545   2.028  19.185  0.00  0.00    +0.000 A 
ATOM     21  C   UNL     1       4.463   2.392  18.204  0.00  0.00    +0.000 A 
ATOM     22  N   UNL     1       4.062   3.029  17.080  0.00  0.00    +0.000 N 
ATOM     23  C   UNL     1       2.743   3.218  16.841  0.00  0.00    +0.000 A 
ATOM     24  C   UNL     1       1.795   2.892  17.806  0.00  0.00    +0.000 A 
BRANCH  22  25
ATOM     25  C   UNL     1       5.083   3.617  16.168  0.00  0.00    +0.000 C 
BRANCH  25  26
ATOM     26  C   UNL     1       5.782   4.781  16.819  0.00  0.00    +0.000 A 
ATOM     27  C   UNL     1       5.210   6.062  16.779  0.00  0.00    +0.000 A 
ATOM     28  C   UNL     1       5.940   7.176  17.199  0.00  0.00    +0.000 A 
ATOM     29  C   UNL     1       7.241   7.008  17.687  0.00  0.00    +0.000 A 
ATOM     30  C   UNL     1       7.780   5.724  17.839  0.00  0.00    +0.000 A 
ATOM     31  C   UNL     1       7.049   4.616  17.404  0.00  0.00    +0.000 A 
BRANCH  29  32
ATOM     32  N   UNL     1       8.074   8.184  17.965  0.00  0.00    +0.000 N 
ATOM     33  O   UNL     1       8.795   8.148  18.972  0.00  0.00    +0.000 OA
ATOM     34  O   UNL     1       7.967   9.153  17.203  0.00  0.00    +0.000 OA
ENDBRANCH  29  32
ENDBRANCH  25  26
ENDBRANCH  22  25
ENDBRANCH  18  19
ENDBRANCH   1  18
TORSDOF 8
ENDMDL
MODEL 2
REMARK VINA RESULT:      -7.5      0.979      1.523
REMARK  Name = 
REMARK  9 active torsions:
REMARK  status: ('A' for Active; 'I' for Inactive)
REMARK    1  A    between atoms: C_1  and  O_2
REMARK    2  A    between atoms: O_2  and  C_3
REMARK    3  A    between atoms: C_8  and  C_9
REMARK    4  A    between atoms: N_11  and  C_12
REMARK    5  A    between atoms: C_12  and  C_13
REMARK    6  A    between atoms: C_13  and  C_14
REMARK    7  A    between atoms: N_17  and  C_18
REMARK    8  A    between atoms: C_18  and  C_19
REMARK    9  A    between atoms: C_22  and  N_23
REMARK                            x       y       z     vdW  Elec       q    Type
REMARK                         _______ _______ _______ _____ _____    ______ ____
ROOT
ATOM      1  C   UNL     1       1.966   3.777  21.458  0.00  0.00    +0.000 C 
ENDROOT
BRANCH   1   4
ATOM      2  C   UNL     1       2.300   5.976  20.418  0.00  0.00    +0.000 C 
ATOM      3  O   UNL     1       3.404   5.647  19.983  0.00  0.00    +0.000 OA
ATOM      4  N   UNL     1       1.498   5.111  21.132  0.00  0.00    +0.000 N 
ATOM      5  H   UNL     1       0.639   5.447  21.554  0.00  0.00    +0.000 HD
BRANCH   2  11
ATOM      6  C   UNL     1      -0.400  11.899  20.818  0.00  0.00    +0.000 A 
ATOM      7  C   UNL     1      -0.581  11.221  22.022  0.00  0.00    +0.000 A 
ATOM      8  C   UNL     1      -0.074   9.925  22.179  0.00  0.00    +0.000 A 
ATOM      9  C   UNL     1       0.617   9.290  21.140  0.00  0.00    +0.000 A 
ATOM     10  C   UNL     1       1.117   7.984  21.270  0.00  0.00    +0.000 A 
ATOM     11  C   UNL     1       1.793   7.362  20.210  0.00  0.00    +0.000 A 
ATOM     12  C   UNL     1       2.000   8.055  19.013  0.00  0.00    +0.000 A 
ATOM     13  C   UNL     1       1.515   9.358  18.874  0.00  0.00    +0.000 A 
ATOM     14  C   UNL     1       0.817   9.982  19.922  0.00  0.00    +0.000 A 
ATOM     15  C   UNL     1       0.309  11.282  19.783  0.00  0.00    +0.000 A 
BRANCH   6  17
ATOM     16  C   UNL     1      -0.030  13.951  19.684  0.00  0.00    +0.000 C 
ATOM     17  O   UNL     1      -0.860  13.152  20.517  0.00  0.00    +0.000 OA
ENDBRANCH   6  17
ENDBRANCH   2  11
ENDBRANCH   1   4
BRANCH   1  18
ATOM     18  C   UNL     1       1.495   2.730  20.437  0.00  0.00    +0.000 C 
BRANCH  18  19
ATOM     19  C   UNL     1       2.249   2.817  19.126  0.00  0.00    +0.000 A 
ATOM     20  C   UNL     1       3.550   2.331  18.999  0.00  0.00    +0.000 A 
ATOM     21  C   UNL     1       4.264   2.561  17.826  0.00  0.00    +0.000 A 
ATOM     22  N   UNL     1       3.707   3.239  16.796  0.00  0.00    +0.000 N 
ATOM     23  C   UNL     1       2.404   3.601  16.847  0.00  0.00    +0.000 A 
ATOM     24  C   UNL     1       1.662   3.412  18.010  0.00  0.00    +0.000 A 
BRANCH  22  25
ATOM     25  C   UNL     1       4.564   3.679  15.660  0.00  0.00    +0.000 C 
BRANCH  25  26
ATOM     26  C   UNL     1       5.487   4.792  16.078  0.00  0.00    +0.000 A 
ATOM     27  C   UNL     1       6.791   4.504  16.511  0.00  0.00    +0.000 A 
ATOM     28  C   UNL     1       7.581   5.501  17.088  0.00  0.00    +0.000 A 
ATOM     29  C   UNL     1       7.075   6.801  17.210  0.00  0.00    +0.000 A 
ATOM     30  C   UNL     1       5.821   7.127  16.678  0.00  0.00    +0.000 A 
ATOM     31  C   UNL     1       5.032   6.121  16.115  0.00  0.00    +0.000 A 
BRANCH  29  32
ATOM     32  N   UNL     1       7.828   7.808  17.969  0.00  0.00    +0.000 N 
ATOM     33  O   UNL     1       7.656   8.997  17.665  0.00  0.00    +0.000 OA
ATOM     34  O   UNL     1       8.618   7.402  18.830  0.00  0.00    +0.000 OA
ENDBRANCH  29  32
ENDBRANCH  25  26
ENDBRANCH  22  25
ENDBRANCH  18  19
ENDBRANCH   1  18
TORSDOF 8
ENDMDL
MODEL 3
REMARK VINA RESULT:      -7.4      1.297      1.814
REMARK  Name = 
REMARK  9 active torsions:
REMARK  status: ('A' for Active; 'I' for Inactive)
REMARK    1  A    between atoms: C_1  and  O_2
REMARK    2  A    between atoms: O_2  and  C_3
REMARK    3  A    between atoms: C_8  and  C_9
REMARK    4  A    between atoms: N_11  and  C_12
REMARK    5  A    between atoms: C_12  and  C_13
REMARK    6  A    between atoms: C_13  and  C_14
REMARK    7  A    between atoms: N_17  and  C_18
REMARK    8  A    between atoms: C_18  and  C_19
REMARK    9  A    between atoms: C_22  and  N_23
REMARK                            x       y       z     vdW  Elec       q    Type
REMARK                         _______ _______ _______ _____ _____    ______ ____
ROOT
ATOM      1  C   UNL     1       1.029   2.801  20.055  0.00  0.00    +0.000 C 
ENDROOT
BRANCH   1   4
ATOM      2  C   UNL     1       1.648   5.092  20.687  0.00  0.00    +0.000 C 
ATOM      3  O   UNL     1       2.366   4.688  21.602  0.00  0.00    +0.000 OA
ATOM      4  N   UNL     1       0.971   4.236  19.845  0.00  0.00    +0.000 N 
ATOM      5  H   UNL     1       0.315   4.606  19.165  0.00  0.00    +0.000 HD
BRANCH   2  11
ATOM      6  C   UNL     1       0.130  11.428  20.966  0.00  0.00    +0.000 A 
ATOM      7  C   UNL     1      -0.352  10.782  22.103  0.00  0.00    +0.000 A 
ATOM      8  C   UNL     1      -0.137   9.409  22.272  0.00  0.00    +0.000 A 
ATOM      9  C   UNL     1       0.560   8.664  21.312  0.00  0.00    +0.000 A 
ATOM     10  C   UNL     1       0.770   7.282  21.453  0.00  0.00    +0.000 A 
ATOM     11  C   UNL     1       1.458   6.554  20.472  0.00  0.00    +0.000 A 
ATOM     12  C   UNL     1       1.966   7.210  19.346  0.00  0.00    +0.000 A 
ATOM     13  C   UNL     1       1.771   8.585  19.198  0.00  0.00    +0.000 A 
ATOM     14  C   UNL     1       1.065   9.320  20.165  0.00  0.00    +0.000 A 
ATOM     15  C   UNL     1       0.846  10.697  20.013  0.00  0.00    +0.000 A 
BRANCH   6  17
ATOM     16  C   UNL     1      -1.176  13.093  19.891  0.00  0.00    +0.000 C 
ATOM     17  O   UNL     1      -0.028  12.752  20.659  0.00  0.00    +0.000 OA
ENDBRANCH   6  17
ENDBRANCH   2  11
ENDBRANCH   1   4
BRANCH   1  18
ATOM     18  C   UNL     1       1.858   2.090  18.975  0.00  0.00    +0.000 C 
BRANCH  18  19
ATOM     19  C   UNL     1       3.065   2.896  18.543  0.00  0.00    +0.000 A 
ATOM     20  C   UNL     1       3.102   3.552  17.312  0.00  0.00    +0.000 A 
ATOM     21  C   UNL     1       4.281   4.156  16.885  0.00  0.00    +0.000 A 
ATOM     22  N   UNL     1       5.392   4.133  17.656  0.00  0.00    +0.000 N 
ATOM     23  C   UNL     1       5.340   3.620  18.908  0.00  0.00    +0.000 A 
ATOM     24  C   UNL     1       4.189   2.983  19.364  0.00  0.00    +0.000 A 
BRANCH  22  25
ATOM     25  C   UNL     1       6.694   4.570  17.078  0.00  0.00    +0.000 C 
BRANCH  25  26
ATOM     26  C   UNL     1       7.071   5.942  17.570  0.00  0.00    +0.000 A 
ATOM     27  C   UNL     1       6.609   7.085  16.900  0.00  0.00    +0.000 A 
ATOM     28  C   UNL     1       7.113   8.347  17.224  0.00  0.00    +0.000 A 
ATOM     29  C   UNL     1       8.065   8.472  18.242  0.00  0.00    +0.000 A 
ATOM     30  C   UNL     1       8.447   7.355  18.996  0.00  0.00    +0.000 A 
ATOM     31  C   UNL     1       7.950   6.094  18.657  0.00  0.00    +0.000 A 
BRANCH  29  32
ATOM     32  N   UNL     1       8.724   9.764  18.470  0.00  0.00    +0.000 N 
ATOM     33  O   UNL     1       9.478   9.855  19.449  0.00  0.00    +0.000 OA
ATOM     34  O   UNL     1       8.450  10.690  17.697  0.00  0.00    +0.000 OA
ENDBRANCH  29  32
ENDBRANCH  25  26
ENDBRANCH  22  25
ENDBRANCH  18  19
ENDBRANCH   1  18
TORSDOF 8
ENDMDL
MODEL 4
REMARK VINA RESULT:      -7.3      3.656      8.466
REMARK  Name = 
REMARK  9 active torsions:
REMARK  status: ('A' for Active; 'I' for Inactive)
REMARK    1  A    between atoms: C_1  and  O_2
REMARK    2  A    between atoms: O_2  and  C_3
REMARK    3  A    between atoms: C_8  and  C_9
REMARK    4  A    between atoms: N_11  and  C_12
REMARK    5  A    between atoms: C_12  and  C_13
REMARK    6  A    between atoms: C_13  and  C_14
REMARK    7  A    between atoms: N_17  and  C_18
REMARK    8  A    between atoms: C_18  and  C_19
REMARK    9  A    between atoms: C_22  and  N_23
REMARK                            x       y       z     vdW  Elec       q    Type
REMARK                         _______ _______ _______ _____ _____    ______ ____
ROOT
ATOM      1  C   UNL     1       1.451   8.054  21.372  0.00  0.00    +0.000 C 
ENDROOT
BRANCH   1   4
ATOM      2  C   UNL     1       2.030   5.999  20.158  0.00  0.00    +0.000 C 
ATOM      3  O   UNL     1       1.313   5.318  20.890  0.00  0.00    +0.000 OA
ATOM      4  N   UNL     1       2.139   7.368  20.294  0.00  0.00    +0.000 N 
ATOM      5  H   UNL     1       2.812   7.881  19.735  0.00  0.00    +0.000 HD
BRANCH   2  11
ATOM      6  C   UNL     1       5.861   4.492  15.100  0.00  0.00    +0.000 A 
ATOM      7  C   UNL     1       5.762   5.877  15.215  0.00  0.00    +0.000 A 
ATOM      8  C   UNL     1       4.996   6.442  16.241  0.00  0.00    +0.000 A 
ATOM      9  C   UNL     1       4.318   5.635  17.163  0.00  0.00    +0.000 A 
ATOM     10  C   UNL     1       3.528   6.181  18.189  0.00  0.00    +0.000 A 
ATOM     11  C   UNL     1       2.846   5.353  19.092  0.00  0.00    +0.000 A 
ATOM     12  C   UNL     1       2.971   3.964  18.993  0.00  0.00    +0.000 A 
ATOM     13  C   UNL     1       3.759   3.408  17.983  0.00  0.00    +0.000 A 
ATOM     14  C   UNL     1       4.429   4.229  17.060  0.00  0.00    +0.000 A 
ATOM     15  C   UNL     1       5.207   3.678  16.030  0.00  0.00    +0.000 A 
BRANCH   6  17
ATOM     16  C   UNL     1       5.915   3.679  12.871  0.00  0.00    +0.000 C 
ATOM     17  O   UNL     1       6.550   3.806  14.137  0.00  0.00    +0.000 OA
ENDBRANCH   6  17
ENDBRANCH   2  11
ENDBRANCH   1   4
BRANCH   1  18
ATOM     18  C   UNL     1       0.152   8.723  20.897  0.00  0.00    +0.000 C 
BRANCH  18  19
ATOM     19  C   UNL     1       0.382  10.115  20.345  0.00  0.00    +0.000 A 
ATOM     20  C   UNL     1       0.412  11.234  21.177  0.00  0.00    +0.000 A 
ATOM     21  C   UNL     1       0.475  12.508  20.621  0.00  0.00    +0.000 A 
ATOM     22  N   UNL     1       0.526  12.679  19.280  0.00  0.00    +0.000 N 
ATOM     23  C   UNL     1       0.633  11.606  18.462  0.00  0.00    +0.000 A 
ATOM     24  C   UNL     1       0.548  10.314  18.975  0.00  0.00    +0.000 A 
BRANCH  22  25
ATOM     25  C   UNL     1       0.349  14.044  18.708  0.00  0.00    +0.000 C 
BRANCH  25  26
ATOM     26  C   UNL     1       1.626  14.836  18.795  0.00  0.00    +0.000 A 
ATOM     27  C   UNL     1       2.763  14.424  18.082  0.00  0.00    +0.000 A 
ATOM     28  C   UNL     1       4.000  15.031  18.312  0.00  0.00    +0.000 A 
ATOM     29  C   UNL     1       4.098  16.074  19.240  0.00  0.00    +0.000 A 
ATOM     30  C   UNL     1       2.951  16.570  19.872  0.00  0.00    +0.000 A 
ATOM     31  C   UNL     1       1.720  15.949  19.647  0.00  0.00    +0.000 A 
BRANCH  29  32
ATOM     32  N   UNL     1       5.418  16.597  19.613  0.00  0.00    +0.000 N 
ATOM     33  O   UNL     1       6.126  15.890  20.343  0.00  0.00    +0.000 OA
ATOM     34  O   UNL     1       5.719  17.728  19.211  0.00  0.00    +0.000 OA
ENDBRANCH  29  32
ENDBRANCH  25  26
ENDBRANCH  22  25
ENDBRANCH  18  19
ENDBRANCH   1  18
TORSDOF 8
ENDMDL
MODEL 5
REMARK VINA RESULT:      -7.3      3.481      4.930
REMARK  Name = 
REMARK  9 active torsions:
REMARK  status: ('A' for Active; 'I' for Inactive)
REMARK    1  A    between atoms: C_1  and  O_2
REMARK    2  A    between atoms: O_2  and  C_3
REMARK    3  A    between atoms: C_8  and  C_9
REMARK    4  A    between atoms: N_11  and  C_12
REMARK    5  A    between atoms: C_12  and  C_13
REMARK    6  A    between atoms: C_13  and  C_14
REMARK    7  A    between atoms: N_17  and  C_18
REMARK    8  A    between atoms: C_18  and  C_19
REMARK    9  A    between atoms: C_22  and  N_23
REMARK                            x       y       z     vdW  Elec       q    Type
REMARK                         _______ _______ _______ _____ _____    ______ ____
ROOT
ATOM      1  C   UNL     1       1.610   8.113  20.771  0.00  0.00    +0.000 C 
ENDROOT
BRANCH   1   4
ATOM      2  C   UNL     1       0.336   9.852  19.595  0.00  0.00    +0.000 C 
ATOM      3  O   UNL     1       1.289  10.108  18.860  0.00  0.00    +0.000 OA
ATOM      4  N   UNL     1       0.385   8.859  20.551  0.00  0.00    +0.000 N 
ATOM      5  H   UNL     1      -0.385   8.742  21.201  0.00  0.00    +0.000 HD
BRANCH   2  11
ATOM      6  C   UNL     1      -5.428  12.490  18.064  0.00  0.00    +0.000 A 
ATOM      7  C   UNL     1      -5.139  11.453  17.178  0.00  0.00    +0.000 A 
ATOM      8  C   UNL     1      -3.951  10.725  17.316  0.00  0.00    +0.000 A 
ATOM      9  C   UNL     1      -3.037  11.022  18.335  0.00  0.00    +0.000 A 
ATOM     10  C   UNL     1      -1.830  10.318  18.479  0.00  0.00    +0.000 A 
ATOM     11  C   UNL     1      -0.923  10.643  19.498  0.00  0.00    +0.000 A 
ATOM     12  C   UNL     1      -1.229  11.664  20.403  0.00  0.00    +0.000 A 
ATOM     13  C   UNL     1      -2.429  12.367  20.275  0.00  0.00    +0.000 A 
ATOM     14  C   UNL     1      -3.335  12.064  19.245  0.00  0.00    +0.000 A 
ATOM     15  C   UNL     1      -4.533  12.778  19.098  0.00  0.00    +0.000 A 
BRANCH   6  17
ATOM     16  C   UNL     1      -6.995  13.692  16.747  0.00  0.00    +0.000 C 
ATOM     17  O   UNL     1      -6.533  13.296  18.033  0.00  0.00    +0.000 OA
ENDBRANCH   6  17
ENDBRANCH   2  11
ENDBRANCH   1   4
BRANCH   1  18
ATOM     18  C   UNL     1       1.366   6.597  20.816  0.00  0.00    +0.000 C 
BRANCH  18  19
ATOM     19  C   UNL     1       2.314   5.828  19.918  0.00  0.00    +0.000 A 
ATOM     20  C   UNL     1       2.442   6.131  18.562  0.00  0.00    +0.000 A 
ATOM     21  C   UNL     1       3.207   5.311  17.739  0.00  0.00    +0.000 A 
ATOM     22  N   UNL     1       3.846   4.228  18.238  0.00  0.00    +0.000 N 
ATOM     23  C   UNL     1       3.844   3.993  19.571  0.00  0.00    +0.000 A 
ATOM     24  C   UNL     1       3.072   4.774  20.426  0.00  0.00    +0.000 A 
BRANCH  22  25
ATOM     25  C   UNL     1       4.452   3.239  17.302  0.00  0.00    +0.000 C 
BRANCH  25  26
ATOM     26  C   UNL     1       5.259   3.929  16.235  0.00  0.00    +0.000 A 
ATOM     27  C   UNL     1       4.819   3.923  14.901  0.00  0.00    +0.000 A 
ATOM     28  C   UNL     1       5.653   4.381  13.880  0.00  0.00    +0.000 A 
ATOM     29  C   UNL     1       6.926   4.874  14.193  0.00  0.00    +0.000 A 
ATOM     30  C   UNL     1       7.330   4.993  15.529  0.00  0.00    +0.000 A 
ATOM     31  C   UNL     1       6.496   4.520  16.544  0.00  0.00    +0.000 A 
BRANCH  29  32
ATOM     32  N   UNL     1       7.870   5.193  13.115  0.00  0.00    +0.000 N 
ATOM     33  O   UNL     1       8.820   5.939  13.392  0.00  0.00    +0.000 OA
ATOM     34  O   UNL     1       7.631   4.735  11.991  0.00  0.00    +0.000 OA
ENDBRANCH  29  32
ENDBRANCH  25  26
ENDBRANCH  22  25
ENDBRANCH  18  19
ENDBRANCH   1  18
TORSDOF 8
ENDMDL
MODEL 6
REMARK VINA RESULT:      -7.3      3.747      8.334
REMARK  Name = 
REMARK  9 active torsions:
REMARK  status: ('A' for Active; 'I' for Inactive)
REMARK    1  A    between atoms: C_1  and  O_2
REMARK    2  A    between atoms: O_2  and  C_3
REMARK    3  A    between atoms: C_8  and  C_9
REMARK    4  A    between atoms: N_11  and  C_12
REMARK    5  A    between atoms: C_12  and  C_13
REMARK    6  A    between atoms: C_13  and  C_14
REMARK    7  A    between atoms: N_17  and  C_18
REMARK    8  A    between atoms: C_18  and  C_19
REMARK    9  A    between atoms: C_22  and  N_23
REMARK                            x       y       z     vdW  Elec       q    Type
REMARK                         _______ _______ _______ _____ _____    ______ ____
ROOT
ATOM      1  C   UNL     1       1.159   7.812  21.499  0.00  0.00    +0.000 C 
ENDROOT
BRANCH   1   4
ATOM      2  C   UNL     1       2.073   5.916  20.233  0.00  0.00    +0.000 C 
ATOM      3  O   UNL     1       1.680   5.112  21.077  0.00  0.00    +0.000 OA
ATOM      4  N   UNL     1       1.836   7.271  20.335  0.00  0.00    +0.000 N 
ATOM      5  H   UNL     1       2.258   7.911  19.670  0.00  0.00    +0.000 HD
BRANCH   2  11
ATOM      6  C   UNL     1       6.419   4.885  15.481  0.00  0.00    +0.000 A 
ATOM      7  C   UNL     1       6.859   5.924  16.300  0.00  0.00    +0.000 A 
ATOM      8  C   UNL     1       6.092   6.321  17.401  0.00  0.00    +0.000 A 
ATOM      9  C   UNL     1       4.878   5.690  17.699  0.00  0.00    +0.000 A 
ATOM     10  C   UNL     1       4.083   6.085  18.788  0.00  0.00    +0.000 A 
ATOM     11  C   UNL     1       2.863   5.448  19.060  0.00  0.00    +0.000 A 
ATOM     12  C   UNL     1       2.438   4.387  18.255  0.00  0.00    +0.000 A 
ATOM     13  C   UNL     1       3.223   3.979  17.174  0.00  0.00    +0.000 A 
ATOM     14  C   UNL     1       4.436   4.625  16.881  0.00  0.00    +0.000 A 
ATOM     15  C   UNL     1       5.220   4.234  15.785  0.00  0.00    +0.000 A 
BRANCH   6  17
ATOM     16  C   UNL     1       6.224   3.810  13.374  0.00  0.00    +0.000 C 
ATOM     17  O   UNL     1       7.050   4.412  14.363  0.00  0.00    +0.000 OA
ENDBRANCH   6  17
ENDBRANCH   2  11
ENDBRANCH   1   4
BRANCH   1  18
ATOM     18  C   UNL     1      -0.045   8.685  21.117  0.00  0.00    +0.000 C 
BRANCH  18  19
ATOM     19  C   UNL     1       0.367  10.043  20.586  0.00  0.00    +0.000 A 
ATOM     20  C   UNL     1       0.417  11.165  21.413  0.00  0.00    +0.000 A 
ATOM     21  C   UNL     1       0.652  12.421  20.863  0.00  0.00    +0.000 A 
ATOM     22  N   UNL     1       0.852  12.570  19.533  0.00  0.00    +0.000 N 
ATOM     23  C   UNL     1       0.941  11.482  18.733  0.00  0.00    +0.000 A 
ATOM     24  C   UNL     1       0.686  10.210  19.239  0.00  0.00    +0.000 A 
BRANCH  22  25
ATOM     25  C   UNL     1       0.860  13.938  18.942  0.00  0.00    +0.000 C 
BRANCH  25  26
ATOM     26  C   UNL     1       2.214  14.581  19.084  0.00  0.00    +0.000 A 
ATOM     27  C   UNL     1       2.490  15.412  20.181  0.00  0.00    +0.000 A 
ATOM     28  C   UNL     1       3.664  16.168  20.218  0.00  0.00    +0.000 A 
ATOM     29  C   UNL     1       4.581  16.074  19.164  0.00  0.00    +0.000 A 
ATOM     30  C   UNL     1       4.372  15.162  18.122  0.00  0.00    +0.000 A 
ATOM     31  C   UNL     1       3.189  14.420  18.085  0.00  0.00    +0.000 A 
BRANCH  29  32
ATOM     32  N   UNL     1       5.727  16.990  19.111  0.00  0.00    +0.000 N 
ATOM     33  O   UNL     1       5.594  18.101  19.642  0.00  0.00    +0.000 OA
ATOM     34  O   UNL     1       6.734  16.610  18.501  0.00  0.00    +0.000 OA
ENDBRANCH  29  32
ENDBRANCH  25  26
ENDBRANCH  22  25
ENDBRANCH  18  19
ENDBRANCH   1  18
TORSDOF 8
ENDMDL
MODEL 7
REMARK VINA RESULT:      -7.2      3.769      9.360
REMARK  Name = 
REMARK  9 active torsions:
REMARK  status: ('A' for Active; 'I' for Inactive)
REMARK    1  A    between atoms: C_1  and  O_2
REMARK    2  A    between atoms: O_2  and  C_3
REMARK    3  A    between atoms: C_8  and  C_9
REMARK    4  A    between atoms: N_11  and  C_12
REMARK    5  A    between atoms: C_12  and  C_13
REMARK    6  A    between atoms: C_13  and  C_14
REMARK    7  A    between atoms: N_17  and  C_18
REMARK    8  A    between atoms: C_18  and  C_19
REMARK    9  A    between atoms: C_22  and  N_23
REMARK                            x       y       z     vdW  Elec       q    Type
REMARK                         _______ _______ _______ _____ _____    ______ ____
ROOT
ATOM      1  C   UNL     1       1.374   8.429  21.423  0.00  0.00    +0.000 C 
ENDROOT
BRANCH   1   4
ATOM      2  C   UNL     1       1.922   6.401  20.151  0.00  0.00    +0.000 C 
ATOM      3  O   UNL     1       1.222   5.704  20.885  0.00  0.00    +0.000 OA
ATOM      4  N   UNL     1       2.036   7.766  20.315  0.00  0.00    +0.000 N 
ATOM      5  H   UNL     1       2.696   8.290  19.752  0.00  0.00    +0.000 HD
BRANCH   2  11
ATOM      6  C   UNL     1       6.280   4.721  15.600  0.00  0.00    +0.000 A 
ATOM      7  C   UNL     1       6.727   5.853  16.279  0.00  0.00    +0.000 A 
ATOM      8  C   UNL     1       5.958   6.397  17.316  0.00  0.00    +0.000 A 
ATOM      9  C   UNL     1       4.737   5.821  17.686  0.00  0.00    +0.000 A 
ATOM     10  C   UNL     1       3.941   6.362  18.709  0.00  0.00    +0.000 A 
ATOM     11  C   UNL     1       2.713   5.777  19.053  0.00  0.00    +0.000 A 
ATOM     12  C   UNL     1       2.281   4.625  18.390  0.00  0.00    +0.000 A 
ATOM     13  C   UNL     1       3.066   4.073  17.376  0.00  0.00    +0.000 A 
ATOM     14  C   UNL     1       4.288   4.663  17.009  0.00  0.00    +0.000 A 
ATOM     15  C   UNL     1       5.073   4.127  15.978  0.00  0.00    +0.000 A 
BRANCH   6  17
ATOM     16  C   UNL     1       6.108   3.783  13.426  0.00  0.00    +0.000 C 
ATOM     17  O   UNL     1       6.912   4.102  14.556  0.00  0.00    +0.000 OA
ENDBRANCH   6  17
ENDBRANCH   2  11
ENDBRANCH   1   4
BRANCH   1  18
ATOM     18  C   UNL     1       0.047   9.078  21.001  0.00  0.00    +0.000 C 
BRANCH  18  19
ATOM     19  C   UNL     1       0.064  10.586  21.150  0.00  0.00    +0.000 A 
ATOM     20  C   UNL     1       1.045  11.368  20.540  0.00  0.00    +0.000 A 
ATOM     21  C   UNL     1       1.118  12.729  20.821  0.00  0.00    +0.000 A 
ATOM     22  N   UNL     1       0.237  13.312  21.667  0.00  0.00    +0.000 N 
ATOM     23  C   UNL     1      -0.802  12.600  22.162  0.00  0.00    +0.000 A 
ATOM     24  C   UNL     1      -0.897  11.231  21.928  0.00  0.00    +0.000 A 
BRANCH  22  25
ATOM     25  C   UNL     1       0.483  14.706  22.134  0.00  0.00    +0.000 C 
BRANCH  25  26
ATOM     26  C   UNL     1       0.744  15.627  20.973  0.00  0.00    +0.000 A 
ATOM     27  C   UNL     1      -0.243  15.830  19.995  0.00  0.00    +0.000 A 
ATOM     28  C   UNL     1       0.059  16.518  18.818  0.00  0.00    +0.000 A 
ATOM     29  C   UNL     1       1.347  17.031  18.627  0.00  0.00    +0.000 A 
ATOM     30  C   UNL     1       2.306  16.936  19.643  0.00  0.00    +0.000 A 
ATOM     31  C   UNL     1       2.001  16.235  20.812  0.00  0.00    +0.000 A 
BRANCH  29  32
ATOM     32  N   UNL     1       1.720  17.600  17.326  0.00  0.00    +0.000 N 
ATOM     33  O   UNL     1       0.849  18.228  16.707  0.00  0.00    +0.000 OA
ATOM     34  O   UNL     1       2.865  17.379  16.911  0.00  0.00    +0.000 OA
ENDBRANCH  29  32
ENDBRANCH  25  26
ENDBRANCH  22  25
ENDBRANCH  18  19
ENDBRANCH   1  18
TORSDOF 8
ENDMDL
MODEL 8
REMARK VINA RESULT:      -7.2      4.077      5.422
REMARK  Name = 
REMARK  9 active torsions:
REMARK  status: ('A' for Active; 'I' for Inactive)
REMARK    1  A    between atoms: C_1  and  O_2
REMARK    2  A    between atoms: O_2  and  C_3
REMARK    3  A    between atoms: C_8  and  C_9
REMARK    4  A    between atoms: N_11  and  C_12
REMARK    5  A    between atoms: C_12  and  C_13
REMARK    6  A    between atoms: C_13  and  C_14
REMARK    7  A    between atoms: N_17  and  C_18
REMARK    8  A    between atoms: C_18  and  C_19
REMARK    9  A    between atoms: C_22  and  N_23
REMARK                            x       y       z     vdW  Elec       q    Type
REMARK                         _______ _______ _______ _____ _____    ______ ____
ROOT
ATOM      1  C   UNL     1       1.433   7.809  21.373  0.00  0.00    +0.000 C 
ENDROOT
BRANCH   1   4
ATOM      2  C   UNL     1       0.304   9.796  22.273  0.00  0.00    +0.000 C 
ATOM      3  O   UNL     1       0.921   9.714  23.335  0.00  0.00    +0.000 OA
ATOM      4  N   UNL     1       0.511   8.920  21.228  0.00  0.00    +0.000 N 
ATOM      5  H   UNL     1      -0.083   8.962  20.407  0.00  0.00    +0.000 HD
BRANCH   2  11
ATOM      6  C   UNL     1      -4.615  14.050  22.753  0.00  0.00    +0.000 A 
ATOM      7  C   UNL     1      -4.502  13.331  23.941  0.00  0.00    +0.000 A 
ATOM      8  C   UNL     1      -3.503  12.360  24.080  0.00  0.00    +0.000 A 
ATOM      9  C   UNL     1      -2.607  12.093  23.038  0.00  0.00    +0.000 A 
ATOM     10  C   UNL     1      -1.610  11.110  23.148  0.00  0.00    +0.000 A 
ATOM     11  C   UNL     1      -0.733  10.850  22.086  0.00  0.00    +0.000 A 
ATOM     12  C   UNL     1      -0.829  11.593  20.905  0.00  0.00    +0.000 A 
ATOM     13  C   UNL     1      -1.811  12.578  20.785  0.00  0.00    +0.000 A 
ATOM     14  C   UNL     1      -2.709  12.832  21.836  0.00  0.00    +0.000 A 
ATOM     15  C   UNL     1      -3.711  13.806  21.715  0.00  0.00    +0.000 A 
BRANCH   6  17
ATOM     16  C   UNL     1      -6.743  14.556  21.830  0.00  0.00    +0.000 C 
ATOM     17  O   UNL     1      -5.554  15.004  22.470  0.00  0.00    +0.000 OA
ENDBRANCH   6  17
ENDBRANCH   2  11
ENDBRANCH   1   4
BRANCH   1  18
ATOM     18  C   UNL     1       1.156   6.689  20.360  0.00  0.00    +0.000 C 
BRANCH  18  19
ATOM     19  C   UNL     1       2.411   6.224  19.649  0.00  0.00    +0.000 A 
ATOM     20  C   UNL     1       3.129   5.112  20.089  0.00  0.00    +0.000 A 
ATOM     21  C   UNL     1       4.354   4.804  19.506  0.00  0.00    +0.000 A 
ATOM     22  N   UNL     1       4.855   5.561  18.502  0.00  0.00    +0.000 N 
ATOM     23  C   UNL     1       4.114   6.561  17.971  0.00  0.00    +0.000 A 
ATOM     24  C   UNL     1       2.895   6.918  18.541  0.00  0.00    +0.000 A 
BRANCH  22  25
ATOM     25  C   UNL     1       6.265   5.356  18.065  0.00  0.00    +0.000 C 
BRANCH  25  26
ATOM     26  C   UNL     1       6.322   4.773  16.679  0.00  0.00    +0.000 A 
ATOM     27  C   UNL     1       7.257   5.253  15.747  0.00  0.00    +0.000 A 
ATOM     28  C   UNL     1       7.185   4.863  14.408  0.00  0.00    +0.000 A 
ATOM     29  C   UNL     1       6.190   3.967  14.000  0.00  0.00    +0.000 A 
ATOM     30  C   UNL     1       5.325   3.393  14.940  0.00  0.00    +0.000 A 
ATOM     31  C   UNL     1       5.394   3.798  16.275  0.00  0.00    +0.000 A 
BRANCH  29  32
ATOM     32  N   UNL     1       6.001   3.689  12.571  0.00  0.00    +0.000 N 
ATOM     33  O   UNL     1       4.858   3.398  12.193  0.00  0.00    +0.000 OA
ATOM     34  O   UNL     1       7.003   3.719  11.845  0.00  0.00    +0.000 OA
ENDBRANCH  29  32
ENDBRANCH  25  26
ENDBRANCH  22  25
ENDBRANCH  18  19
ENDBRANCH   1  18
TORSDOF 8
ENDMDL
MODEL 9
REMARK VINA RESULT:      -7.1      4.376      8.576
REMARK  Name = 
REMARK  9 active torsions:
REMARK  status: ('A' for Active; 'I' for Inactive)
REMARK    1  A    between atoms: C_1  and  O_2
REMARK    2  A    between atoms: O_2  and  C_3
REMARK    3  A    between atoms: C_8  and  C_9
REMARK    4  A    between atoms: N_11  and  C_12
REMARK    5  A    between atoms: C_12  and  C_13
REMARK    6  A    between atoms: C_13  and  C_14
REMARK    7  A    between atoms: N_17  and  C_18
REMARK    8  A    between atoms: C_18  and  C_19
REMARK    9  A    between atoms: C_22  and  N_23
REMARK                            x       y       z     vdW  Elec       q    Type
REMARK                         _______ _______ _______ _____ _____    ______ ____
ROOT
ATOM      1  C   UNL     1       0.820  12.864  18.593  0.00  0.00    +0.000 C 
ENDROOT
BRANCH   1   4
ATOM      2  C   UNL     1       0.776  10.408  18.545  0.00  0.00    +0.000 C 
ATOM      3  O   UNL     1      -0.373  10.399  18.105  0.00  0.00    +0.000 OA
ATOM      4  N   UNL     1       1.465  11.579  18.788  0.00  0.00    +0.000 N 
ATOM      5  H   UNL     1       2.373  11.548  19.239  0.00  0.00    +0.000 HD
BRANCH   2  11
ATOM      6  C   UNL     1       4.363   4.964  18.668  0.00  0.00    +0.000 A 
ATOM      7  C   UNL     1       4.564   5.628  17.459  0.00  0.00    +0.000 A 
ATOM      8  C   UNL     1       3.903   6.836  17.206  0.00  0.00    +0.000 A 
ATOM      9  C   UNL     1       3.035   7.395  18.151  0.00  0.00    +0.000 A 
ATOM     10  C   UNL     1       2.347   8.596  17.910  0.00  0.00    +0.000 A 
ATOM     11  C   UNL     1       1.470   9.129  18.865  0.00  0.00    +0.000 A 
ATOM     12  C   UNL     1       1.292   8.476  20.089  0.00  0.00    +0.000 A 
ATOM     13  C   UNL     1       1.976   7.286  20.345  0.00  0.00    +0.000 A 
ATOM     14  C   UNL     1       2.841   6.732  19.385  0.00  0.00    +0.000 A 
ATOM     15  C   UNL     1       3.516   5.526  19.627  0.00  0.00    +0.000 A 
BRANCH   6  17
ATOM     16  C   UNL     1       4.047   2.821  19.639  0.00  0.00    +0.000 C 
ATOM     17  O   UNL     1       4.920   3.770  19.037  0.00  0.00    +0.000 OA
ENDBRANCH   6  17
ENDBRANCH   2  11
ENDBRANCH   1   4
BRANCH   1  18
ATOM     18  C   UNL     1       1.174  13.865  19.703  0.00  0.00    +0.000 C 
BRANCH  18  19
ATOM     19  C   UNL     1       2.496  14.562  19.457  0.00  0.00    +0.000 A 
ATOM     20  C   UNL     1       2.728  15.299  18.296  0.00  0.00    +0.000 A 
ATOM     21  C   UNL     1       4.001  15.798  18.035  0.00  0.00    +0.000 A 
ATOM     22  N   UNL     1       5.018  15.594  18.904  0.00  0.00    +0.000 N 
ATOM     23  C   UNL     1       4.784  15.000  20.096  0.00  0.00    +0.000 A 
ATOM     24  C   UNL     1       3.532  14.463  20.386  0.00  0.00    +0.000 A 
BRANCH  22  25
ATOM     25  C   UNL     1       6.411  15.926  18.491  0.00  0.00    +0.000 C 
BRANCH  25  26
ATOM     26  C   UNL     1       7.313  14.728  18.619  0.00  0.00    +0.000 A 
ATOM     27  C   UNL     1       8.136  14.580  19.747  0.00  0.00    +0.000 A 
ATOM     28  C   UNL     1       9.116  13.586  19.781  0.00  0.00    +0.000 A 
ATOM     29  C   UNL     1       9.259  12.716  18.695  0.00  0.00    +0.000 A 
ATOM     30  C   UNL     1       8.368  12.779  17.615  0.00  0.00    +0.000 A 
ATOM     31  C   UNL     1       7.400  13.785  17.581  0.00  0.00    +0.000 A 
BRANCH  29  32
ATOM     32  N   UNL     1      10.393  11.785  18.649  0.00  0.00    +0.000 N 
ATOM     33  O   UNL     1      10.949  11.510  19.721  0.00  0.00    +0.000 OA
ATOM     34  O   UNL     1      10.750  11.372  17.538  0.00  0.00    +0.000 OA
ENDBRANCH  29  32
ENDBRANCH  25  26
ENDBRANCH  22  25
ENDBRANCH  18  19
ENDBRANCH   1  18
TORSDOF 8
ENDMDL
