MODEL 1
REMARK VINA RESULT:      -7.9      0.000      0.000
REMARK  Name = 
REMARK  6 active torsions:
REMARK  status: ('A' for Active; 'I' for Inactive)
REMARK    1  A    between atoms: C_2  and  C_3
REMARK    2  A    between atoms: C_2  and  C_10
REMARK    3  A    between atoms: N_13  and  C_14
REMARK    4  A    between atoms: C_14  and  C_15
REMARK    5  A    between atoms: C_15  and  C_16
REMARK    6  A    between atoms: C_19  and  N_20
REMARK                            x       y       z     vdW  Elec       q    Type
REMARK                         _______ _______ _______ _____ _____    ______ ____
ROOT
ATOM      1  C   UNL     1       3.870   2.661  17.667  0.00  0.00    +0.000 C 
ATOM      2  C   UNL     1       2.488   3.044  17.146  0.00  0.00    +0.000 C 
ATOM      3  C   UNL     1       1.623   3.795  18.159  0.00  0.00    +0.000 C 
ATOM      4  N   UNL     1       1.609   3.247  19.527  0.00  0.00    +0.000 NA
ATOM      5  C   UNL     1       2.948   2.884  20.011  0.00  0.00    +0.000 C 
ATOM      6  C   UNL     1       3.719   1.995  19.033  0.00  0.00    +0.000 C 
ENDROOT
BRANCH   1   8
ATOM      7  O   UNL     1       5.015   4.511  18.737  0.00  0.00    +0.000 OA
ATOM      8  C   UNL     1       4.856   3.837  17.720  0.00  0.00    +0.000 C 
BRANCH   8   9
ATOM      9  C   UNL     1       5.696   4.144  16.511  0.00  0.00    +0.000 A 
ATOM     10  C   UNL     1       5.299   3.643  15.261  0.00  0.00    +0.000 A 
ATOM     11  C   UNL     1       6.000   3.994  14.099  0.00  0.00    +0.000 A 
ATOM     12  C   UNL     1       7.099   4.845  14.183  0.00  0.00    +0.000 A 
ATOM     13 CL   UNL     1       7.910   5.351  12.754  0.00  0.00    +0.000 Cl
ATOM     14  C   UNL     1       7.534   5.308  15.421  0.00  0.00    +0.000 A 
ATOM     15  C   UNL     1       6.840   4.953  16.581  0.00  0.00    +0.000 A 
ENDBRANCH   8   9
ENDBRANCH   1   8
BRANCH   4  16
ATOM     16  C   UNL     1       1.011   4.239  20.463  0.00  0.00    +0.000 C 
BRANCH  16  17
ATOM     17  C   UNL     1       2.019   5.270  20.999  0.00  0.00    +0.000 C 
BRANCH  17  18
ATOM     18  C   UNL     1       1.889   6.632  20.341  0.00  0.00    +0.000 A 
ATOM     19  C   UNL     1       2.448   6.853  19.079  0.00  0.00    +0.000 A 
ATOM     20  C   UNL     1       2.305   8.095  18.443  0.00  0.00    +0.000 A 
ATOM     21  C   UNL     1       1.604   9.120  19.094  0.00  0.00    +0.000 A 
ATOM     22  C   UNL     1       1.055   8.911  20.363  0.00  0.00    +0.000 A 
ATOM     23  C   UNL     1       1.205   7.670  20.987  0.00  0.00    +0.000 A 
BRANCH  21  24
ATOM     24  N   UNL     1       1.445  10.420  18.428  0.00  0.00    +0.000 N 
ATOM     25  O   UNL     1       0.481  11.127  18.758  0.00  0.00    +0.000 OA
ATOM     26  O   UNL     1       2.285  10.736  17.574  0.00  0.00    +0.000 OA
ENDBRANCH  21  24
ENDBRANCH  17  18
ENDBRANCH  16  17
ENDBRANCH   4  16
TORSDOF 6
ENDMDL
MODEL 2
REMARK VINA RESULT:      -7.9      3.473      6.403
REMARK  Name = 
REMARK  6 active torsions:
REMARK  status: ('A' for Active; 'I' for Inactive)
REMARK    1  A    between atoms: C_2  and  C_3
REMARK    2  A    between atoms: C_2  and  C_10
REMARK    3  A    between atoms: N_13  and  C_14
REMARK    4  A    between atoms: C_14  and  C_15
REMARK    5  A    between atoms: C_15  and  C_16
REMARK    6  A    between atoms: C_19  and  N_20
REMARK                            x       y       z     vdW  Elec       q    Type
REMARK                         _______ _______ _______ _____ _____    ______ ____
ROOT
ATOM      1  C   UNL     1       1.584   4.884  20.719  0.00  0.00    +0.000 C 
ATOM      2  C   UNL     1       2.418   3.823  21.432  0.00  0.00    +0.000 C 
ATOM      3  C   UNL     1       3.243   2.941  20.497  0.00  0.00    +0.000 C 
ATOM      4  N   UNL     1       2.544   2.437  19.301  0.00  0.00    +0.000 NA
ATOM      5  C   UNL     1       1.747   3.472  18.627  0.00  0.00    +0.000 C 
ATOM      6  C   UNL     1       0.814   4.224  19.577  0.00  0.00    +0.000 C 
ENDROOT
BRANCH   1   8
ATOM      7  O   UNL     1       3.580   5.969  19.871  0.00  0.00    +0.000 OA
ATOM      8  C   UNL     1       2.406   6.082  20.223  0.00  0.00    +0.000 C 
BRANCH   8   9
ATOM      9  C   UNL     1       1.746   7.429  20.111  0.00  0.00    +0.000 A 
ATOM     10  C   UNL     1       1.059   7.944  21.221  0.00  0.00    +0.000 A 
ATOM     11  C   UNL     1       0.519   9.237  21.187  0.00  0.00    +0.000 A 
ATOM     12  C   UNL     1       0.664  10.018  20.043  0.00  0.00    +0.000 A 
ATOM     13 CL   UNL     1       0.083  11.636  20.022  0.00  0.00    +0.000 Cl
ATOM     14  C   UNL     1       1.298   9.501  18.918  0.00  0.00    +0.000 A 
ATOM     15  C   UNL     1       1.831   8.209  18.949  0.00  0.00    +0.000 A 
ENDBRANCH   8   9
ENDBRANCH   1   8
BRANCH   4  16
ATOM     16  C   UNL     1       3.531   1.883  18.333  0.00  0.00    +0.000 C 
BRANCH  16  17
ATOM     17  C   UNL     1       3.704   2.739  17.067  0.00  0.00    +0.000 C 
BRANCH  17  18
ATOM     18  C   UNL     1       4.717   3.857  17.233  0.00  0.00    +0.000 A 
ATOM     19  C   UNL     1       4.722   4.932  16.339  0.00  0.00    +0.000 A 
ATOM     20  C   UNL     1       5.628   5.990  16.501  0.00  0.00    +0.000 A 
ATOM     21  C   UNL     1       6.540   5.953  17.566  0.00  0.00    +0.000 A 
ATOM     22  C   UNL     1       6.551   4.874  18.455  0.00  0.00    +0.000 A 
ATOM     23  C   UNL     1       5.644   3.824  18.283  0.00  0.00    +0.000 A 
BRANCH  21  24
ATOM     24  N   UNL     1       7.486   7.063  17.744  0.00  0.00    +0.000 N 
ATOM     25  O   UNL     1       7.454   7.990  16.920  0.00  0.00    +0.000 OA
ATOM     26  O   UNL     1       8.260   7.010  18.709  0.00  0.00    +0.000 OA
ENDBRANCH  21  24
ENDBRANCH  17  18
ENDBRANCH  16  17
ENDBRANCH   4  16
TORSDOF 6
ENDMDL
MODEL 3
REMARK VINA RESULT:      -7.8      2.363      3.231
REMARK  Name = 
REMARK  6 active torsions:
REMARK  status: ('A' for Active; 'I' for Inactive)
REMARK    1  A    between atoms: C_2  and  C_3
REMARK    2  A    between atoms: C_2  and  C_10
REMARK    3  A    between atoms: N_13  and  C_14
REMARK    4  A    between atoms: C_14  and  C_15
REMARK    5  A    between atoms: C_15  and  C_16
REMARK    6  A    between atoms: C_19  and  N_20
REMARK                            x       y       z     vdW  Elec       q    Type
REMARK                         _______ _______ _______ _____ _____    ______ ____
ROOT
ATOM      1  C   UNL     1       1.864   2.602  18.223  0.00  0.00    +0.000 C 
ATOM      2  C   UNL     1       1.504   3.957  17.621  0.00  0.00    +0.000 C 
ATOM      3  C   UNL     1       1.738   5.141  18.559  0.00  0.00    +0.000 C 
ATOM      4  N   UNL     1       1.272   4.968  19.946  0.00  0.00    +0.000 NA
ATOM      5  C   UNL     1       1.629   3.657  20.509  0.00  0.00    +0.000 C 
ATOM      6  C   UNL     1       1.228   2.489  19.607  0.00  0.00    +0.000 C 
ENDROOT
BRANCH   1   8
ATOM      7  O   UNL     1       3.832   1.208  18.471  0.00  0.00    +0.000 OA
ATOM      8  C   UNL     1       3.375   2.333  18.274  0.00  0.00    +0.000 C 
BRANCH   8   9
ATOM      9  C   UNL     1       4.331   3.467  18.023  0.00  0.00    +0.000 A 
ATOM     10  C   UNL     1       4.936   4.102  19.118  0.00  0.00    +0.000 A 
ATOM     11  C   UNL     1       5.907   5.093  18.920  0.00  0.00    +0.000 A 
ATOM     12  C   UNL     1       6.276   5.451  17.625  0.00  0.00    +0.000 A 
ATOM     13 CL   UNL     1       7.528   6.601  17.371  0.00  0.00    +0.000 Cl
ATOM     14  C   UNL     1       5.648   4.865  16.531  0.00  0.00    +0.000 A 
ATOM     15  C   UNL     1       4.674   3.882  16.728  0.00  0.00    +0.000 A 
ENDBRANCH   8   9
ENDBRANCH   1   8
BRANCH   4  16
ATOM     16  C   UNL     1       1.849   6.035  20.811  0.00  0.00    +0.000 C 
BRANCH  16  17
ATOM     17  C   UNL     1       2.075   7.369  20.081  0.00  0.00    +0.000 C 
BRANCH  17  18
ATOM     18  C   UNL     1       1.215   8.499  20.619  0.00  0.00    +0.000 A 
ATOM     19  C   UNL     1       0.828   9.544  19.775  0.00  0.00    +0.000 A 
ATOM     20  C   UNL     1       0.005  10.576  20.248  0.00  0.00    +0.000 A 
ATOM     21  C   UNL     1      -0.417  10.555  21.585  0.00  0.00    +0.000 A 
ATOM     22  C   UNL     1      -0.022   9.522  22.440  0.00  0.00    +0.000 A 
ATOM     23  C   UNL     1       0.800   8.499  21.957  0.00  0.00    +0.000 A 
BRANCH  21  24
ATOM     24  N   UNL     1      -1.287  11.630  22.083  0.00  0.00    +0.000 N 
ATOM     25  O   UNL     1      -1.479  12.609  21.346  0.00  0.00    +0.000 OA
ATOM     26  O   UNL     1      -1.779  11.496  23.212  0.00  0.00    +0.000 OA
ENDBRANCH  21  24
ENDBRANCH  17  18
ENDBRANCH  16  17
ENDBRANCH   4  16
TORSDOF 6
ENDMDL
MODEL 4
REMARK VINA RESULT:      -7.7      0.794      1.299
REMARK  Name = 
REMARK  6 active torsions:
REMARK  status: ('A' for Active; 'I' for Inactive)
REMARK    1  A    between atoms: C_2  and  C_3
REMARK    2  A    between atoms: C_2  and  C_10
REMARK    3  A    between atoms: N_13  and  C_14
REMARK    4  A    between atoms: C_14  and  C_15
REMARK    5  A    between atoms: C_15  and  C_16
REMARK    6  A    between atoms: C_19  and  N_20
REMARK                            x       y       z     vdW  Elec       q    Type
REMARK                         _______ _______ _______ _____ _____    ______ ____
ROOT
ATOM      1  C   UNL     1       3.805   2.676  17.830  0.00  0.00    +0.000 C 
ATOM      2  C   UNL     1       2.560   3.325  17.232  0.00  0.00    +0.000 C 
ATOM      3  C   UNL     1       1.827   4.269  18.185  0.00  0.00    +0.000 C 
ATOM      4  N   UNL     1       1.632   3.774  19.560  0.00  0.00    +0.000 NA
ATOM      5  C   UNL     1       2.841   3.153  20.119  0.00  0.00    +0.000 C 
ATOM      6  C   UNL     1       3.452   2.096  19.199  0.00  0.00    +0.000 C 
ENDROOT
BRANCH   1   8
ATOM      7  O   UNL     1       5.506   3.957  18.990  0.00  0.00    +0.000 OA
ATOM      8  C   UNL     1       5.013   3.620  17.914  0.00  0.00    +0.000 C 
BRANCH   8   9
ATOM      9  C   UNL     1       5.651   4.109  16.643  0.00  0.00    +0.000 A 
ATOM     10  C   UNL     1       6.543   5.190  16.702  0.00  0.00    +0.000 A 
ATOM     11  C   UNL     1       7.234   5.607  15.556  0.00  0.00    +0.000 A 
ATOM     12  C   UNL     1       7.034   4.943  14.347  0.00  0.00    +0.000 A 
ATOM     13 CL   UNL     1       7.941   5.389  12.957  0.00  0.00    +0.000 Cl
ATOM     14  C   UNL     1       6.114   3.903  14.264  0.00  0.00    +0.000 A 
ATOM     15  C   UNL     1       5.420   3.492  15.405  0.00  0.00    +0.000 A 
ENDBRANCH   8   9
ENDBRANCH   1   8
BRANCH   4  16
ATOM     16  C   UNL     1       1.214   4.896  20.446  0.00  0.00    +0.000 C 
BRANCH  16  17
ATOM     17  C   UNL     1       2.297   5.971  20.638  0.00  0.00    +0.000 C 
BRANCH  17  18
ATOM     18  C   UNL     1       1.841   7.360  20.228  0.00  0.00    +0.000 A 
ATOM     19  C   UNL     1       2.115   7.832  18.941  0.00  0.00    +0.000 A 
ATOM     20  C   UNL     1       1.668   9.098  18.536  0.00  0.00    +0.000 A 
ATOM     21  C   UNL     1       0.953   9.894  19.443  0.00  0.00    +0.000 A 
ATOM     22  C   UNL     1       0.689   9.435  20.737  0.00  0.00    +0.000 A 
ATOM     23  C   UNL     1       1.139   8.171  21.130  0.00  0.00    +0.000 A 
BRANCH  21  24
ATOM     24  N   UNL     1       0.477  11.218  19.020  0.00  0.00    +0.000 N 
ATOM     25  O   UNL     1       1.135  12.210  19.369  0.00  0.00    +0.000 OA
ATOM     26  O   UNL     1      -0.555  11.268  18.337  0.00  0.00    +0.000 OA
ENDBRANCH  21  24
ENDBRANCH  17  18
ENDBRANCH  16  17
ENDBRANCH   4  16
TORSDOF 6
ENDMDL
MODEL 5
REMARK VINA RESULT:      -7.7      5.818      7.447
REMARK  Name = 
REMARK  6 active torsions:
REMARK  status: ('A' for Active; 'I' for Inactive)
REMARK    1  A    between atoms: C_2  and  C_3
REMARK    2  A    between atoms: C_2  and  C_10
REMARK    3  A    between atoms: N_13  and  C_14
REMARK    4  A    between atoms: C_14  and  C_15
REMARK    5  A    between atoms: C_15  and  C_16
REMARK    6  A    between atoms: C_19  and  N_20
REMARK                            x       y       z     vdW  Elec       q    Type
REMARK                         _______ _______ _______ _____ _____    ______ ____
ROOT
ATOM      1  C   UNL     1       5.169   5.140  17.108  0.00  0.00    +0.000 C 
ATOM      2  C   UNL     1       6.211   4.624  18.095  0.00  0.00    +0.000 C 
ATOM      3  C   UNL     1       7.101   5.713  18.693  0.00  0.00    +0.000 C 
ATOM      4  N   UNL     1       7.628   6.709  17.744  0.00  0.00    +0.000 NA
ATOM      5  C   UNL     1       6.610   7.195  16.802  0.00  0.00    +0.000 C 
ATOM      6  C   UNL     1       5.852   6.066  16.103  0.00  0.00    +0.000 C 
ENDROOT
BRANCH   1   8
ATOM      7  O   UNL     1       3.620   6.967  17.483  0.00  0.00    +0.000 OA
ATOM      8  C   UNL     1       3.971   5.826  17.780  0.00  0.00    +0.000 C 
BRANCH   8   9
ATOM      9  C   UNL     1       3.164   5.064  18.795  0.00  0.00    +0.000 A 
ATOM     10  C   UNL     1       2.791   3.741  18.513  0.00  0.00    +0.000 A 
ATOM     11  C   UNL     1       2.128   2.968  19.476  0.00  0.00    +0.000 A 
ATOM     12  C   UNL     1       1.836   3.515  20.723  0.00  0.00    +0.000 A 
ATOM     13 CL   UNL     1       1.103   2.548  21.940  0.00  0.00    +0.000 Cl
ATOM     14  C   UNL     1       2.155   4.841  20.997  0.00  0.00    +0.000 A 
ATOM     15  C   UNL     1       2.810   5.616  20.035  0.00  0.00    +0.000 A 
ENDBRANCH   8   9
ENDBRANCH   1   8
BRANCH   4  16
ATOM     16  C   UNL     1       8.188   7.871  18.489  0.00  0.00    +0.000 C 
BRANCH  16  17
ATOM     17  C   UNL     1       8.225   9.173  17.670  0.00  0.00    +0.000 C 
BRANCH  17  18
ATOM     18  C   UNL     1       8.812  10.345  18.436  0.00  0.00    +0.000 A 
ATOM     19  C   UNL     1       8.833  11.617  17.855  0.00  0.00    +0.000 A 
ATOM     20  C   UNL     1       9.338  12.716  18.564  0.00  0.00    +0.000 A 
ATOM     21  C   UNL     1       9.837  12.523  19.861  0.00  0.00    +0.000 A 
ATOM     22  C   UNL     1       9.834  11.252  20.442  0.00  0.00    +0.000 A 
ATOM     23  C   UNL     1       9.327  10.163  19.726  0.00  0.00    +0.000 A 
BRANCH  21  24
ATOM     24  N   UNL     1      10.361  13.674  20.609  0.00  0.00    +0.000 N 
ATOM     25  O   UNL     1      10.029  13.791  21.799  0.00  0.00    +0.000 OA
ATOM     26  O   UNL     1      11.105  14.461  20.009  0.00  0.00    +0.000 OA
ENDBRANCH  21  24
ENDBRANCH  17  18
ENDBRANCH  16  17
ENDBRANCH   4  16
TORSDOF 6
ENDMDL
MODEL 6
REMARK VINA RESULT:      -7.7      1.931      2.702
REMARK  Name = 
REMARK  6 active torsions:
REMARK  status: ('A' for Active; 'I' for Inactive)
REMARK    1  A    between atoms: C_2  and  C_3
REMARK    2  A    between atoms: C_2  and  C_10
REMARK    3  A    between atoms: N_13  and  C_14
REMARK    4  A    between atoms: C_14  and  C_15
REMARK    5  A    between atoms: C_15  and  C_16
REMARK    6  A    between atoms: C_19  and  N_20
REMARK                            x       y       z     vdW  Elec       q    Type
REMARK                         _______ _______ _______ _____ _____    ______ ____
ROOT
ATOM      1  C   UNL     1       2.570   2.254  19.814  0.00  0.00    +0.000 C 
ATOM      2  C   UNL     1       1.664   3.050  18.879  0.00  0.00    +0.000 C 
ATOM      3  C   UNL     1       1.536   4.530  19.239  0.00  0.00    +0.000 C 
ATOM      4  N   UNL     1       1.322   4.830  20.666  0.00  0.00    +0.000 NA
ATOM      5  C   UNL     1       2.203   4.056  21.551  0.00  0.00    +0.000 C 
ATOM      6  C   UNL     1       2.177   2.554  21.260  0.00  0.00    +0.000 C 
ENDROOT
BRANCH   1   8
ATOM      7  O   UNL     1       4.935   1.839  20.147  0.00  0.00    +0.000 OA
ATOM      8  C   UNL     1       4.067   2.499  19.576  0.00  0.00    +0.000 C 
BRANCH   8   9
ATOM      9  C   UNL     1       4.491   3.538  18.575  0.00  0.00    +0.000 A 
ATOM     10  C   UNL     1       4.402   3.239  17.206  0.00  0.00    +0.000 A 
ATOM     11  C   UNL     1       4.690   4.217  16.244  0.00  0.00    +0.000 A 
ATOM     12  C   UNL     1       5.069   5.495  16.648  0.00  0.00    +0.000 A 
ATOM     13 CL   UNL     1       5.339   6.726  15.478  0.00  0.00    +0.000 Cl
ATOM     14  C   UNL     1       5.210   5.789  18.001  0.00  0.00    +0.000 A 
ATOM     15  C   UNL     1       4.929   4.812  18.961  0.00  0.00    +0.000 A 
ENDBRANCH   8   9
ENDBRANCH   1   8
BRANCH   4  16
ATOM     16  C   UNL     1       1.545   6.281  20.917  0.00  0.00    +0.000 C 
BRANCH  16  17
ATOM     17  C   UNL     1       2.106   7.041  19.703  0.00  0.00    +0.000 C 
BRANCH  17  18
ATOM     18  C   UNL     1       1.600   8.469  19.604  0.00  0.00    +0.000 A 
ATOM     19  C   UNL     1       0.971   9.064  20.702  0.00  0.00    +0.000 A 
ATOM     20  C   UNL     1       0.532  10.394  20.638  0.00  0.00    +0.000 A 
ATOM     21  C   UNL     1       0.718  11.120  19.453  0.00  0.00    +0.000 A 
ATOM     22  C   UNL     1       1.333  10.527  18.346  0.00  0.00    +0.000 A 
ATOM     23  C   UNL     1       1.767   9.200  18.421  0.00  0.00    +0.000 A 
BRANCH  21  24
ATOM     24  N   UNL     1       0.266  12.516  19.384  0.00  0.00    +0.000 N 
ATOM     25  O   UNL     1       0.150  13.141  20.449  0.00  0.00    +0.000 OA
ATOM     26  O   UNL     1       0.027  12.989  18.265  0.00  0.00    +0.000 OA
ENDBRANCH  21  24
ENDBRANCH  17  18
ENDBRANCH  16  17
ENDBRANCH   4  16
TORSDOF 6
ENDMDL
MODEL 7
REMARK VINA RESULT:      -7.7      1.894      2.695
REMARK  Name = 
REMARK  6 active torsions:
REMARK  status: ('A' for Active; 'I' for Inactive)
REMARK    1  A    between atoms: C_2  and  C_3
REMARK    2  A    between atoms: C_2  and  C_10
REMARK    3  A    between atoms: N_13  and  C_14
REMARK    4  A    between atoms: C_14  and  C_15
REMARK    5  A    between atoms: C_15  and  C_16
REMARK    6  A    between atoms: C_19  and  N_20
REMARK                            x       y       z     vdW  Elec       q    Type
REMARK                         _______ _______ _______ _____ _____    ______ ____
ROOT
ATOM      1  C   UNL     1       2.042   2.511  17.853  0.00  0.00    +0.000 C 
ATOM      2  C   UNL     1       1.786   3.917  17.316  0.00  0.00    +0.000 C 
ATOM      3  C   UNL     1       1.892   5.019  18.369  0.00  0.00    +0.000 C 
ATOM      4  N   UNL     1       1.227   4.748  19.656  0.00  0.00    +0.000 NA
ATOM      5  C   UNL     1       1.485   3.391  20.158  0.00  0.00    +0.000 C 
ATOM      6  C   UNL     1       1.210   2.304  19.117  0.00  0.00    +0.000 C 
ENDROOT
BRANCH   1   8
ATOM      7  O   UNL     1       3.926   1.075  18.365  0.00  0.00    +0.000 OA
ATOM      8  C   UNL     1       3.526   2.208  18.100  0.00  0.00    +0.000 C 
BRANCH   8   9
ATOM      9  C   UNL     1       4.534   3.316  17.962  0.00  0.00    +0.000 A 
ATOM     10  C   UNL     1       4.917   3.731  16.677  0.00  0.00    +0.000 A 
ATOM     11  C   UNL     1       5.775   4.826  16.509  0.00  0.00    +0.000 A 
ATOM     12  C   UNL     1       6.252   5.510  17.625  0.00  0.00    +0.000 A 
ATOM     13 CL   UNL     1       7.233   6.908  17.427  0.00  0.00    +0.000 Cl
ATOM     14  C   UNL     1       5.921   5.077  18.905  0.00  0.00    +0.000 A 
ATOM     15  C   UNL     1       5.071   3.980  19.074  0.00  0.00    +0.000 A 
ENDBRANCH   8   9
ENDBRANCH   1   8
BRANCH   4  16
ATOM     16  C   UNL     1       1.681   5.732  20.678  0.00  0.00    +0.000 C 
BRANCH  16  17
ATOM     17  C   UNL     1       2.497   6.898  20.095  0.00  0.00    +0.000 C 
BRANCH  17  18
ATOM     18  C   UNL     1       1.672   8.151  19.867  0.00  0.00    +0.000 A 
ATOM     19  C   UNL     1       0.909   8.684  20.911  0.00  0.00    +0.000 A 
ATOM     20  C   UNL     1       0.171   9.862  20.726  0.00  0.00    +0.000 A 
ATOM     21  C   UNL     1       0.194  10.495  19.475  0.00  0.00    +0.000 A 
ATOM     22  C   UNL     1       0.942   9.960  18.422  0.00  0.00    +0.000 A 
ATOM     23  C   UNL     1       1.674   8.785  18.617  0.00  0.00    +0.000 A 
BRANCH  21  24
ATOM     24  N   UNL     1      -0.572  11.733  19.279  0.00  0.00    +0.000 N 
ATOM     25  O   UNL     1      -0.074  12.616  18.564  0.00  0.00    +0.000 OA
ATOM     26  O   UNL     1      -1.673  11.823  19.839  0.00  0.00    +0.000 OA
ENDBRANCH  21  24
ENDBRANCH  17  18
ENDBRANCH  16  17
ENDBRANCH   4  16
TORSDOF 6
ENDMDL
MODEL 8
REMARK VINA RESULT:      -7.7      3.476      6.358
REMARK  Name = 
REMARK  6 active torsions:
REMARK  status: ('A' for Active; 'I' for Inactive)
REMARK    1  A    between atoms: C_2  and  C_3
REMARK    2  A    between atoms: C_2  and  C_10
REMARK    3  A    between atoms: N_13  and  C_14
REMARK    4  A    between atoms: C_14  and  C_15
REMARK    5  A    between atoms: C_15  and  C_16
REMARK    6  A    between atoms: C_19  and  N_20
REMARK                            x       y       z     vdW  Elec       q    Type
REMARK                         _______ _______ _______ _____ _____    ______ ____
ROOT
ATOM      1  C   UNL     1       1.695   4.630  20.977  0.00  0.00    +0.000 C 
ATOM      2  C   UNL     1       2.501   3.384  21.335  0.00  0.00    +0.000 C 
ATOM      3  C   UNL     1       3.081   2.645  20.130  0.00  0.00    +0.000 C 
ATOM      4  N   UNL     1       2.167   2.450  18.990  0.00  0.00    +0.000 NA
ATOM      5  C   UNL     1       1.401   3.660  18.660  0.00  0.00    +0.000 C 
ATOM      6  C   UNL     1       0.701   4.277  19.872  0.00  0.00    +0.000 C 
ENDROOT
BRANCH   1   8
ATOM      7  O   UNL     1       3.777   5.733  20.405  0.00  0.00    +0.000 OA
ATOM      8  C   UNL     1       2.565   5.834  20.588  0.00  0.00    +0.000 C 
BRANCH   8   9
ATOM      9  C   UNL     1       1.910   7.170  20.368  0.00  0.00    +0.000 A 
ATOM     10  C   UNL     1       2.108   7.832  19.146  0.00  0.00    +0.000 A 
ATOM     11  C   UNL     1       1.433   9.028  18.866  0.00  0.00    +0.000 A 
ATOM     12  C   UNL     1       0.559   9.566  19.808  0.00  0.00    +0.000 A 
ATOM     13 CL   UNL     1      -0.340  10.984  19.440  0.00  0.00    +0.000 Cl
ATOM     14  C   UNL     1       0.393   8.948  21.043  0.00  0.00    +0.000 A 
ATOM     15  C   UNL     1       1.072   7.758  21.325  0.00  0.00    +0.000 A 
ENDBRANCH   8   9
ENDBRANCH   1   8
BRANCH   4  16
ATOM     16  C   UNL     1       2.939   2.027  17.789  0.00  0.00    +0.000 C 
BRANCH  16  17
ATOM     17  C   UNL     1       3.038   3.110  16.702  0.00  0.00    +0.000 C 
BRANCH  17  18
ATOM     18  C   UNL     1       4.214   4.050  16.899  0.00  0.00    +0.000 A 
ATOM     19  C   UNL     1       3.988   5.400  17.186  0.00  0.00    +0.000 A 
ATOM     20  C   UNL     1       5.064   6.271  17.407  0.00  0.00    +0.000 A 
ATOM     21  C   UNL     1       6.374   5.777  17.323  0.00  0.00    +0.000 A 
ATOM     22  C   UNL     1       6.608   4.432  17.021  0.00  0.00    +0.000 A 
ATOM     23  C   UNL     1       5.528   3.572  16.803  0.00  0.00    +0.000 A 
BRANCH  21  24
ATOM     24  N   UNL     1       7.504   6.685  17.561  0.00  0.00    +0.000 N 
ATOM     25  O   UNL     1       7.887   7.394  16.618  0.00  0.00    +0.000 OA
ATOM     26  O   UNL     1       8.009   6.692  18.692  0.00  0.00    +0.000 OA
ENDBRANCH  21  24
ENDBRANCH  17  18
ENDBRANCH  16  17
ENDBRANCH   4  16
TORSDOF 6
ENDMDL
MODEL 9
REMARK VINA RESULT:      -7.6      5.927      7.573
REMARK  Name = 
REMARK  6 active torsions:
REMARK  status: ('A' for Active; 'I' for Inactive)
REMARK    1  A    between atoms: C_2  and  C_3
REMARK    2  A    between atoms: C_2  and  C_10
REMARK    3  A    between atoms: N_13  and  C_14
REMARK    4  A    between atoms: C_14  and  C_15
REMARK    5  A    between atoms: C_15  and  C_16
REMARK    6  A    between atoms: C_19  and  N_20
REMARK                            x       y       z     vdW  Elec       q    Type
REMARK                         _______ _______ _______ _____ _____    ______ ____
ROOT
ATOM      1  C   UNL     1       6.486   4.849  17.690  0.00  0.00    +0.000 C 
ATOM      2  C   UNL     1       7.903   5.174  18.155  0.00  0.00    +0.000 C 
ATOM      3  C   UNL     1       8.167   6.665  18.363  0.00  0.00    +0.000 C 
ATOM      4  N   UNL     1       7.672   7.563  17.305  0.00  0.00    +0.000 NA
ATOM      5  C   UNL     1       6.306   7.235  16.871  0.00  0.00    +0.000 C 
ATOM      6  C   UNL     1       6.128   5.758  16.516  0.00  0.00    +0.000 C 
ENDROOT
BRANCH   1   8
ATOM      7  O   UNL     1       5.596   5.645  19.800  0.00  0.00    +0.000 OA
ATOM      8  C   UNL     1       5.437   4.935  18.808  0.00  0.00    +0.000 C 
BRANCH   8   9
ATOM      9  C   UNL     1       4.149   4.172  18.665  0.00  0.00    +0.000 A 
ATOM     10  C   UNL     1       4.091   2.844  19.118  0.00  0.00    +0.000 A 
ATOM     11  C   UNL     1       2.882   2.136  19.094  0.00  0.00    +0.000 A 
ATOM     12  C   UNL     1       1.728   2.753  18.618  0.00  0.00    +0.000 A 
ATOM     13 CL   UNL     1       0.222   1.924  18.667  0.00  0.00    +0.000 Cl
ATOM     14  C   UNL     1       1.782   4.051  18.119  0.00  0.00    +0.000 A 
ATOM     15  C   UNL     1       2.989   4.755  18.135  0.00  0.00    +0.000 A 
ENDBRANCH   8   9
ENDBRANCH   1   8
BRANCH   4  16
ATOM     16  C   UNL     1       7.698   8.973  17.784  0.00  0.00    +0.000 C 
BRANCH  16  17
ATOM     17  C   UNL     1       8.783   9.250  18.838  0.00  0.00    +0.000 C 
BRANCH  17  18
ATOM     18  C   UNL     1       9.293  10.679  18.812  0.00  0.00    +0.000 A 
ATOM     19  C   UNL     1      10.219  11.107  19.768  0.00  0.00    +0.000 A 
ATOM     20  C   UNL     1      10.727  12.413  19.735  0.00  0.00    +0.000 A 
ATOM     21  C   UNL     1      10.285  13.294  18.737  0.00  0.00    +0.000 A 
ATOM     22  C   UNL     1       9.347  12.878  17.787  0.00  0.00    +0.000 A 
ATOM     23  C   UNL     1       8.847  11.573  17.830  0.00  0.00    +0.000 A 
BRANCH  21  24
ATOM     24  N   UNL     1      10.820  14.661  18.694  0.00  0.00    +0.000 N 
ATOM     25  O   UNL     1      10.198  15.547  19.300  0.00  0.00    +0.000 OA
ATOM     26  O   UNL     1      11.864  14.851  18.054  0.00  0.00    +0.000 OA
ENDBRANCH  21  24
ENDBRANCH  17  18
ENDBRANCH  16  17
ENDBRANCH   4  16
TORSDOF 6
ENDMDL
