MODEL 1
REMARK VINA RESULT:      -7.7      0.000      0.000
REMARK  Name = 
REMARK  2 active torsions:
REMARK  status: ('A' for Active; 'I' for Inactive)
REMARK    1  A    between atoms: S_2  and  C_4
REMARK    2  A    between atoms: S_2  and  N_10
REMARK                            x       y       z     vdW  Elec       q    Type
REMARK                         _______ _______ _______ _____ _____    ______ ____
ROOT
ATOM      1  O   UNL     1       7.387   4.262  17.135  0.00  0.00    +0.000 OA
ATOM      2  S   UNL     1       6.915   5.409  16.381  0.00  0.00    +0.000 S 
ATOM      3  O   UNL     1       7.617   6.682  16.403  0.00  0.00    +0.000 OA
ENDROOT
BRANCH   2   4
ATOM      4  N   UNL     1       5.343   5.766  16.951  0.00  0.00    +0.000 N 
ATOM      5  N   UNL     1       4.925   7.029  17.221  0.00  0.00    +0.000 NA
ATOM      6  N   UNL     1       3.668   6.964  17.628  0.00  0.00    +0.000 NA
ATOM      7  C   UNL     1       3.296   5.649  17.660  0.00  0.00    +0.000 A 
ATOM      8  C   UNL     1       2.069   5.078  18.027  0.00  0.00    +0.000 A 
ATOM      9  C   UNL     1       1.928   3.688  17.981  0.00  0.00    +0.000 A 
ATOM     10  C   UNL     1       3.000   2.885  17.592  0.00  0.00    +0.000 A 
ATOM     11  C   UNL     1       4.238   3.439  17.225  0.00  0.00    +0.000 A 
ATOM     12  C   UNL     1       4.357   4.837  17.253  0.00  0.00    +0.000 A 
ENDBRANCH   2   4
BRANCH   2  13
ATOM     13  C   UNL     1       6.787   4.880  14.685  0.00  0.00    +0.000 A 
ATOM     14  C   UNL     1       5.886   3.894  14.272  0.00  0.00    +0.000 A 
ATOM     15  C   UNL     1       5.901   3.460  12.941  0.00  0.00    +0.000 A 
ATOM     16  C   UNL     1       6.811   4.000  12.029  0.00  0.00    +0.000 A 
ATOM     17  C   UNL     1       7.699   4.992  12.439  0.00  0.00    +0.000 A 
ATOM     18  C   UNL     1       7.687   5.437  13.765  0.00  0.00    +0.000 A 
ENDBRANCH   2  13
TORSDOF 2
ENDMDL
MODEL 2
REMARK VINA RESULT:      -7.5      1.687      2.192
REMARK  Name = 
REMARK  2 active torsions:
REMARK  status: ('A' for Active; 'I' for Inactive)
REMARK    1  A    between atoms: S_2  and  C_4
REMARK    2  A    between atoms: S_2  and  N_10
REMARK                            x       y       z     vdW  Elec       q    Type
REMARK                         _______ _______ _______ _____ _____    ______ ____
ROOT
ATOM      1  O   UNL     1       8.210   4.233  17.194  0.00  0.00    +0.000 OA
ATOM      2  S   UNL     1       7.233   5.223  16.779  0.00  0.00    +0.000 S 
ATOM      3  O   UNL     1       7.551   6.642  16.737  0.00  0.00    +0.000 OA
ENDROOT
BRANCH   2   4
ATOM      4  N   UNL     1       5.912   5.101  17.858  0.00  0.00    +0.000 N 
ATOM      5  N   UNL     1       5.786   4.093  18.758  0.00  0.00    +0.000 NA
ATOM      6  N   UNL     1       4.671   4.296  19.442  0.00  0.00    +0.000 NA
ATOM      7  C   UNL     1       4.061   5.413  18.944  0.00  0.00    +0.000 A 
ATOM      8  C   UNL     1       2.859   6.022  19.335  0.00  0.00    +0.000 A 
ATOM      9  C   UNL     1       2.433   7.172  18.663  0.00  0.00    +0.000 A 
ATOM     10  C   UNL     1       3.186   7.690  17.611  0.00  0.00    +0.000 A 
ATOM     11  C   UNL     1       4.389   7.092  17.202  0.00  0.00    +0.000 A 
ATOM     12  C   UNL     1       4.817   5.952  17.901  0.00  0.00    +0.000 A 
ENDBRANCH   2   4
BRANCH   2  13
ATOM     13  C   UNL     1       6.677   4.735  15.159  0.00  0.00    +0.000 A 
ATOM     14  C   UNL     1       5.468   4.063  14.950  0.00  0.00    +0.000 A 
ATOM     15  C   UNL     1       5.135   3.627  13.663  0.00  0.00    +0.000 A 
ATOM     16  C   UNL     1       6.001   3.853  12.591  0.00  0.00    +0.000 A 
ATOM     17  C   UNL     1       7.199   4.535  12.797  0.00  0.00    +0.000 A 
ATOM     18  C   UNL     1       7.538   4.980  14.079  0.00  0.00    +0.000 A 
ENDBRANCH   2  13
TORSDOF 2
ENDMDL
MODEL 3
REMARK VINA RESULT:      -7.5      3.524      4.581
REMARK  Name = 
REMARK  2 active torsions:
REMARK  status: ('A' for Active; 'I' for Inactive)
REMARK    1  A    between atoms: S_2  and  C_4
REMARK    2  A    between atoms: S_2  and  N_10
REMARK                            x       y       z     vdW  Elec       q    Type
REMARK                         _______ _______ _______ _____ _____    ______ ____
ROOT
ATOM      1  O   UNL     1       3.525   5.455  17.177  0.00  0.00    +0.000 OA
ATOM      2  S   UNL     1       4.702   4.643  17.425  0.00  0.00    +0.000 S 
ATOM      3  O   UNL     1       5.207   3.704  16.437  0.00  0.00    +0.000 OA
ENDROOT
BRANCH   2   4
ATOM      4  N   UNL     1       4.367   3.690  18.805  0.00  0.00    +0.000 N 
ATOM      5  N   UNL     1       5.250   2.792  19.312  0.00  0.00    +0.000 NA
ATOM      6  N   UNL     1       4.696   2.234  20.377  0.00  0.00    +0.000 NA
ATOM      7  C   UNL     1       3.438   2.747  20.523  0.00  0.00    +0.000 A 
ATOM      8  C   UNL     1       2.466   2.464  21.494  0.00  0.00    +0.000 A 
ATOM      9  C   UNL     1       1.235   3.123  21.432  0.00  0.00    +0.000 A 
ATOM     10  C   UNL     1       0.975   4.032  20.408  0.00  0.00    +0.000 A 
ATOM     11  C   UNL     1       1.934   4.325  19.424  0.00  0.00    +0.000 A 
ATOM     12  C   UNL     1       3.174   3.675  19.512  0.00  0.00    +0.000 A 
ENDBRANCH   2   4
BRANCH   2  13
ATOM     13  C   UNL     1       6.017   5.772  17.834  0.00  0.00    +0.000 A 
ATOM     14  C   UNL     1       6.234   6.960  17.129  0.00  0.00    +0.000 A 
ATOM     15  C   UNL     1       7.342   7.756  17.443  0.00  0.00    +0.000 A 
ATOM     16  C   UNL     1       8.231   7.369  18.448  0.00  0.00    +0.000 A 
ATOM     17  C   UNL     1       8.007   6.192  19.158  0.00  0.00    +0.000 A 
ATOM     18  C   UNL     1       6.900   5.393  18.856  0.00  0.00    +0.000 A 
ENDBRANCH   2  13
TORSDOF 2
ENDMDL
MODEL 4
REMARK VINA RESULT:      -7.5      0.127      1.146
REMARK  Name = 
REMARK  2 active torsions:
REMARK  status: ('A' for Active; 'I' for Inactive)
REMARK    1  A    between atoms: S_2  and  C_4
REMARK    2  A    between atoms: S_2  and  N_10
REMARK                            x       y       z     vdW  Elec       q    Type
REMARK                         _______ _______ _______ _____ _____    ______ ____
ROOT
ATOM      1  O   UNL     1       7.458   4.327  17.245  0.00  0.00    +0.000 OA
ATOM      2  S   UNL     1       6.993   5.443  16.441  0.00  0.00    +0.000 S 
ATOM      3  O   UNL     1       7.678   6.726  16.443  0.00  0.00    +0.000 OA
ENDROOT
BRANCH   2   4
ATOM      4  N   UNL     1       5.400   5.795  16.951  0.00  0.00    +0.000 N 
ATOM      5  N   UNL     1       4.956   7.060  17.164  0.00  0.00    +0.000 NA
ATOM      6  N   UNL     1       3.688   6.990  17.536  0.00  0.00    +0.000 NA
ATOM      7  C   UNL     1       3.335   5.671  17.603  0.00  0.00    +0.000 A 
ATOM      8  C   UNL     1       2.106   5.095  17.956  0.00  0.00    +0.000 A 
ATOM      9  C   UNL     1       1.987   3.702  17.955  0.00  0.00    +0.000 A 
ATOM     10  C   UNL     1       3.081   2.903  17.626  0.00  0.00    +0.000 A 
ATOM     11  C   UNL     1       4.321   3.462  17.275  0.00  0.00    +0.000 A 
ATOM     12  C   UNL     1       4.420   4.862  17.257  0.00  0.00    +0.000 A 
ENDBRANCH   2   4
BRANCH   2  13
ATOM     13  C   UNL     1       6.924   4.859  14.760  0.00  0.00    +0.000 A 
ATOM     14  C   UNL     1       7.750   5.367  13.752  0.00  0.00    +0.000 A 
ATOM     15  C   UNL     1       7.579   4.929  12.434  0.00  0.00    +0.000 A 
ATOM     16  C   UNL     1       6.589   3.996  12.119  0.00  0.00    +0.000 A 
ATOM     17  C   UNL     1       5.775   3.481  13.125  0.00  0.00    +0.000 A 
ATOM     18  C   UNL     1       5.941   3.907  14.446  0.00  0.00    +0.000 A 
ENDBRANCH   2  13
TORSDOF 2
ENDMDL
MODEL 5
REMARK VINA RESULT:      -7.3      3.132      4.328
REMARK  Name = 
REMARK  2 active torsions:
REMARK  status: ('A' for Active; 'I' for Inactive)
REMARK    1  A    between atoms: S_2  and  C_4
REMARK    2  A    between atoms: S_2  and  N_10
REMARK                            x       y       z     vdW  Elec       q    Type
REMARK                         _______ _______ _______ _____ _____    ______ ____
ROOT
ATOM      1  O   UNL     1       2.360   3.259  16.812  0.00  0.00    +0.000 OA
ATOM      2  S   UNL     1       3.328   3.179  17.890  0.00  0.00    +0.000 S 
ATOM      3  O   UNL     1       3.670   1.915  18.520  0.00  0.00    +0.000 OA
ENDROOT
BRANCH   2   4
ATOM      4  N   UNL     1       2.737   4.158  19.162  0.00  0.00    +0.000 N 
ATOM      5  N   UNL     1       2.388   3.659  20.375  0.00  0.00    +0.000 NA
ATOM      6  N   UNL     1       1.986   4.668  21.131  0.00  0.00    +0.000 NA
ATOM      7  C   UNL     1       2.037   5.810  20.381  0.00  0.00    +0.000 A 
ATOM      8  C   UNL     1       1.706   7.125  20.736  0.00  0.00    +0.000 A 
ATOM      9  C   UNL     1       1.838   8.138  19.782  0.00  0.00    +0.000 A 
ATOM     10  C   UNL     1       2.277   7.837  18.493  0.00  0.00    +0.000 A 
ATOM     11  C   UNL     1       2.609   6.525  18.117  0.00  0.00    +0.000 A 
ATOM     12  C   UNL     1       2.494   5.522  19.093  0.00  0.00    +0.000 A 
ENDBRANCH   2   4
BRANCH   2  13
ATOM     13  C   UNL     1       4.830   3.912  17.275  0.00  0.00    +0.000 A 
ATOM     14  C   UNL     1       5.845   4.370  18.121  0.00  0.00    +0.000 A 
ATOM     15  C   UNL     1       6.958   5.020  17.576  0.00  0.00    +0.000 A 
ATOM     16  C   UNL     1       7.058   5.218  16.197  0.00  0.00    +0.000 A 
ATOM     17  C   UNL     1       6.053   4.750  15.353  0.00  0.00    +0.000 A 
ATOM     18  C   UNL     1       4.939   4.094  15.888  0.00  0.00    +0.000 A 
ENDBRANCH   2  13
TORSDOF 2
ENDMDL
MODEL 6
REMARK VINA RESULT:      -7.3      2.587      3.367
REMARK  Name = 
REMARK  2 active torsions:
REMARK  status: ('A' for Active; 'I' for Inactive)
REMARK    1  A    between atoms: S_2  and  C_4
REMARK    2  A    between atoms: S_2  and  N_10
REMARK                            x       y       z     vdW  Elec       q    Type
REMARK                         _______ _______ _______ _____ _____    ______ ____
ROOT
ATOM      1  O   UNL     1       6.860   5.113  19.706  0.00  0.00    +0.000 OA
ATOM      2  S   UNL     1       5.573   5.291  19.059  0.00  0.00    +0.000 S 
ATOM      3  O   UNL     1       4.713   6.423  19.365  0.00  0.00    +0.000 OA
ENDROOT
BRANCH   2   4
ATOM      4  N   UNL     1       4.633   3.913  19.432  0.00  0.00    +0.000 N 
ATOM      5  N   UNL     1       5.112   2.866  20.153  0.00  0.00    +0.000 NA
ATOM      6  N   UNL     1       4.139   1.976  20.274  0.00  0.00    +0.000 NA
ATOM      7  C   UNL     1       3.050   2.438  19.590  0.00  0.00    +0.000 A 
ATOM      8  C   UNL     1       1.788   1.850  19.422  0.00  0.00    +0.000 A 
ATOM      9  C   UNL     1       0.824   2.521  18.664  0.00  0.00    +0.000 A 
ATOM     10  C   UNL     1       1.123   3.748  18.072  0.00  0.00    +0.000 A 
ATOM     11  C   UNL     1       2.383   4.350  18.226  0.00  0.00    +0.000 A 
ATOM     12  C   UNL     1       3.333   3.676  19.008  0.00  0.00    +0.000 A 
ENDBRANCH   2   4
BRANCH   2  13
ATOM     13  C   UNL     1       5.885   5.294  17.306  0.00  0.00    +0.000 A 
ATOM     14  C   UNL     1       5.133   6.060  16.409  0.00  0.00    +0.000 A 
ATOM     15  C   UNL     1       5.370   5.944  15.035  0.00  0.00    +0.000 A 
ATOM     16  C   UNL     1       6.347   5.070  14.555  0.00  0.00    +0.000 A 
ATOM     17  C   UNL     1       7.106   4.317  15.449  0.00  0.00    +0.000 A 
ATOM     18  C   UNL     1       6.880   4.430  16.825  0.00  0.00    +0.000 A 
ENDBRANCH   2  13
TORSDOF 2
ENDMDL
MODEL 7
REMARK VINA RESULT:      -7.2      3.065      4.141
REMARK  Name = 
REMARK  2 active torsions:
REMARK  status: ('A' for Active; 'I' for Inactive)
REMARK    1  A    between atoms: S_2  and  C_4
REMARK    2  A    between atoms: S_2  and  N_10
REMARK                            x       y       z     vdW  Elec       q    Type
REMARK                         _______ _______ _______ _____ _____    ______ ____
ROOT
ATOM      1  O   UNL     1       4.597   5.398  15.582  0.00  0.00    +0.000 OA
ATOM      2  S   UNL     1       5.321   4.472  16.433  0.00  0.00    +0.000 S 
ATOM      3  O   UNL     1       6.002   3.307  15.891  0.00  0.00    +0.000 OA
ENDROOT
BRANCH   2   4
ATOM      4  N   UNL     1       4.193   3.840  17.552  0.00  0.00    +0.000 N 
ATOM      5  N   UNL     1       3.883   2.520  17.621  0.00  0.00    +0.000 NA
ATOM      6  N   UNL     1       2.996   2.360  18.590  0.00  0.00    +0.000 NA
ATOM      7  C   UNL     1       2.707   3.590  19.112  0.00  0.00    +0.000 A 
ATOM      8  C   UNL     1       1.827   3.934  20.148  0.00  0.00    +0.000 A 
ATOM      9  C   UNL     1       1.696   5.279  20.507  0.00  0.00    +0.000 A 
ATOM     10  C   UNL     1       2.418   6.260  19.830  0.00  0.00    +0.000 A 
ATOM     11  C   UNL     1       3.302   5.935  18.787  0.00  0.00    +0.000 A 
ATOM     12  C   UNL     1       3.441   4.579  18.453  0.00  0.00    +0.000 A 
ENDBRANCH   2   4
BRANCH   2  13
ATOM     13  C   UNL     1       6.515   5.440  17.331  0.00  0.00    +0.000 A 
ATOM     14  C   UNL     1       7.144   4.972  18.489  0.00  0.00    +0.000 A 
ATOM     15  C   UNL     1       8.003   5.820  19.199  0.00  0.00    +0.000 A 
ATOM     16  C   UNL     1       8.231   7.126  18.761  0.00  0.00    +0.000 A 
ATOM     17  C   UNL     1       7.614   7.588  17.599  0.00  0.00    +0.000 A 
ATOM     18  C   UNL     1       6.759   6.746  16.881  0.00  0.00    +0.000 A 
ENDBRANCH   2  13
TORSDOF 2
ENDMDL
MODEL 8
REMARK VINA RESULT:      -7.2      2.651      3.460
REMARK  Name = 
REMARK  2 active torsions:
REMARK  status: ('A' for Active; 'I' for Inactive)
REMARK    1  A    between atoms: S_2  and  C_4
REMARK    2  A    between atoms: S_2  and  N_10
REMARK                            x       y       z     vdW  Elec       q    Type
REMARK                         _______ _______ _______ _____ _____    ______ ____
ROOT
ATOM      1  O   UNL     1       6.510   5.955  19.072  0.00  0.00    +0.000 OA
ATOM      2  S   UNL     1       5.300   5.559  18.376  0.00  0.00    +0.000 S 
ATOM      3  O   UNL     1       4.181   6.472  18.204  0.00  0.00    +0.000 OA
ENDROOT
BRANCH   2   4
ATOM      4  N   UNL     1       4.650   4.225  19.226  0.00  0.00    +0.000 N 
ATOM      5  N   UNL     1       5.341   3.075  19.434  0.00  0.00    +0.000 NA
ATOM      6  N   UNL     1       4.568   2.255  20.127  0.00  0.00    +0.000 NA
ATOM      7  C   UNL     1       3.362   2.868  20.325  0.00  0.00    +0.000 A 
ATOM      8  C   UNL     1       2.223   2.400  20.995  0.00  0.00    +0.000 A 
ATOM      9  C   UNL     1       1.093   3.220  21.062  0.00  0.00    +0.000 A 
ATOM     10  C   UNL     1       1.097   4.475  20.455  0.00  0.00    +0.000 A 
ATOM     11  C   UNL     1       2.227   4.959  19.776  0.00  0.00    +0.000 A 
ATOM     12  C   UNL     1       3.363   4.135  19.737  0.00  0.00    +0.000 A 
ENDBRANCH   2   4
BRANCH   2  13
ATOM     13  C   UNL     1       5.806   4.998  16.763  0.00  0.00    +0.000 A 
ATOM     14  C   UNL     1       7.046   5.327  16.208  0.00  0.00    +0.000 A 
ATOM     15  C   UNL     1       7.342   4.931  14.898  0.00  0.00    +0.000 A 
ATOM     16  C   UNL     1       6.409   4.216  14.145  0.00  0.00    +0.000 A 
ATOM     17  C   UNL     1       5.178   3.877  14.704  0.00  0.00    +0.000 A 
ATOM     18  C   UNL     1       4.875   4.263  16.013  0.00  0.00    +0.000 A 
ENDBRANCH   2  13
TORSDOF 2
ENDMDL
MODEL 9
REMARK VINA RESULT:      -7.2      3.207      6.026
REMARK  Name = 
REMARK  2 active torsions:
REMARK  status: ('A' for Active; 'I' for Inactive)
REMARK    1  A    between atoms: S_2  and  C_4
REMARK    2  A    between atoms: S_2  and  N_10
REMARK                            x       y       z     vdW  Elec       q    Type
REMARK                         _______ _______ _______ _____ _____    ______ ____
ROOT
ATOM      1  O   UNL     1       2.752   4.641  20.491  0.00  0.00    +0.000 OA
ATOM      2  S   UNL     1       2.901   5.111  19.127  0.00  0.00    +0.000 S 
ATOM      3  O   UNL     1       2.260   4.436  18.010  0.00  0.00    +0.000 OA
ENDROOT
BRANCH   2   4
ATOM      4  N   UNL     1       4.572   5.065  18.765  0.00  0.00    +0.000 N 
ATOM      5  N   UNL     1       5.535   5.272  19.700  0.00  0.00    +0.000 NA
ATOM      6  N   UNL     1       6.712   5.158  19.105  0.00  0.00    +0.000 NA
ATOM      7  C   UNL     1       6.497   4.923  17.775  0.00  0.00    +0.000 A 
ATOM      8  C   UNL     1       7.427   4.739  16.742  0.00  0.00    +0.000 A 
ATOM      9  C   UNL     1       6.959   4.514  15.443  0.00  0.00    +0.000 A 
ATOM     10  C   UNL     1       5.590   4.492  15.183  0.00  0.00    +0.000 A 
ATOM     11  C   UNL     1       4.644   4.679  16.205  0.00  0.00    +0.000 A 
ATOM     12  C   UNL     1       5.127   4.880  17.507  0.00  0.00    +0.000 A 
ENDBRANCH   2   4
BRANCH   2  13
ATOM     13  C   UNL     1       2.376   6.812  19.117  0.00  0.00    +0.000 A 
ATOM     14  C   UNL     1       1.860   7.446  20.252  0.00  0.00    +0.000 A 
ATOM     15  C   UNL     1       1.379   8.757  20.151  0.00  0.00    +0.000 A 
ATOM     16  C   UNL     1       1.406   9.430  18.928  0.00  0.00    +0.000 A 
ATOM     17  C   UNL     1       1.933   8.803  17.801  0.00  0.00    +0.000 A 
ATOM     18  C   UNL     1       2.421   7.496  17.893  0.00  0.00    +0.000 A 
ENDBRANCH   2  13
TORSDOF 2
ENDMDL
