MODEL 1
REMARK VINA RESULT:      -8.1      0.000      0.000
REMARK  Name = 
REMARK  9 active torsions:
REMARK  status: ('A' for Active; 'I' for Inactive)
REMARK    1  A    between atoms: C_1  and  C_2
REMARK    2  A    between atoms: C_2  and  C_3
REMARK    3  A    between atoms: C_3  and  C_4
REMARK    4  A    between atoms: C_9  and  C_11
REMARK    5  A    between atoms: C_11  and  C_12
REMARK    6  A    between atoms: C_11  and  S_14
REMARK    7  A    between atoms: C_12  and  C_13
REMARK    8  A    between atoms: S_14  and  C_15
REMARK    9  A    between atoms: N_25  and  C_26
REMARK                            x       y       z     vdW  Elec       q    Type
REMARK                         _______ _______ _______ _____ _____    ______ ____
ROOT
ATOM      1  C   UNL     1       1.512   4.725  19.450  0.00  0.00    +0.000 C 
ENDROOT
BRANCH   1   7
ATOM      2  C   UNL     1       6.024   5.045  15.470  0.00  0.00    +0.000 A 
ATOM      3  N   UNL     1       5.791   6.336  15.593  0.00  0.00    +0.000 NA
ATOM      4  N   UNL     1       4.796   6.594  16.517  0.00  0.00    +0.000 NA
ATOM      5  C   UNL     1       4.281   5.491  17.013  0.00  0.00    +0.000 A 
ATOM      6  N   UNL     1       3.285   5.495  17.962  0.00  0.00    +0.000 N 
ATOM      7  C   UNL     1       2.518   4.404  18.330  0.00  0.00    +0.000 C 
ATOM      8  O   UNL     1       2.562   3.296  17.804  0.00  0.00    +0.000 OA
ATOM      9  S   UNL     1       5.011   4.060  16.442  0.00  0.00    +0.000 S 
ATOM     10  H   UNL     1       3.056   6.421  18.297  0.00  0.00    +0.000 HD
BRANCH   2  11
ATOM     11  C   UNL     1       7.092   4.439  14.618  0.00  0.00    +0.000 C 
BRANCH  11  13
ATOM     12  C   UNL     1       5.979   3.469  12.579  0.00  0.00    +0.000 C 
ATOM     13  C   UNL     1       6.817   4.617  13.125  0.00  0.00    +0.000 C 
ENDBRANCH  11  13
ENDBRANCH   2  11
ENDBRANCH   1   7
BRANCH   1  14
ATOM     14  C   UNL     1       0.945   3.441  20.082  0.00  0.00    +0.000 C 
ATOM     15  C   UNL     1       1.652   3.001  21.359  0.00  0.00    +0.000 C 
ENDBRANCH   1  14
BRANCH   1  16
ATOM     16  S   UNL     1       2.342   5.695  20.790  0.00  0.00    +0.000 S 
BRANCH  16  17
ATOM     17  C   UNL     1       1.757   7.337  20.412  0.00  0.00    +0.000 A 
ATOM     18  N   UNL     1       2.049   7.823  19.175  0.00  0.00    +0.000 NA
ATOM     19  N   UNL     1       1.592   9.008  18.783  0.00  0.00    +0.000 NA
ATOM     20  C   UNL     1       0.833   9.689  19.678  0.00  0.00    +0.000 A 
ATOM     21  C   UNL     1       0.195  10.953  19.599  0.00  0.00    +0.000 A 
ATOM     22  C   UNL     1       0.105  11.938  18.594  0.00  0.00    +0.000 A 
ATOM     23  C   UNL     1      -0.611  13.113  18.842  0.00  0.00    +0.000 A 
ATOM     24  C   UNL     1      -1.234  13.313  20.069  0.00  0.00    +0.000 A 
ATOM     25  C   UNL     1      -1.163  12.351  21.082  0.00  0.00    +0.000 A 
ATOM     26  C   UNL     1      -0.442  11.171  20.829  0.00  0.00    +0.000 A 
ATOM     27  N   UNL     1      -0.193  10.057  21.615  0.00  0.00    +0.000 N 
ATOM     28  C   UNL     1      -0.637   9.855  22.976  0.00  0.00    +0.000 C 
ATOM     29  C   UNL     1       0.570   9.148  20.923  0.00  0.00    +0.000 A 
ATOM     30  N   UNL     1       1.002   7.945  21.355  0.00  0.00    +0.000 NA
ENDBRANCH  16  17
ENDBRANCH   1  16
TORSDOF 6
ENDMDL
MODEL 2
REMARK VINA RESULT:      -7.6      0.768      1.848
REMARK  Name = 
REMARK  9 active torsions:
REMARK  status: ('A' for Active; 'I' for Inactive)
REMARK    1  A    between atoms: C_1  and  C_2
REMARK    2  A    between atoms: C_2  and  C_3
REMARK    3  A    between atoms: C_3  and  C_4
REMARK    4  A    between atoms: C_9  and  C_11
REMARK    5  A    between atoms: C_11  and  C_12
REMARK    6  A    between atoms: C_11  and  S_14
REMARK    7  A    between atoms: C_12  and  C_13
REMARK    8  A    between atoms: S_14  and  C_15
REMARK    9  A    between atoms: N_25  and  C_26
REMARK                            x       y       z     vdW  Elec       q    Type
REMARK                         _______ _______ _______ _____ _____    ______ ____
ROOT
ATOM      1  C   UNL     1       1.400   4.740  19.609  0.00  0.00    +0.000 C 
ENDROOT
BRANCH   1   7
ATOM      2  C   UNL     1       5.811   5.383  15.554  0.00  0.00    +0.000 A 
ATOM      3  N   UNL     1       5.622   6.658  15.829  0.00  0.00    +0.000 NA
ATOM      4  N   UNL     1       4.661   6.837  16.807  0.00  0.00    +0.000 NA
ATOM      5  C   UNL     1       4.125   5.699  17.191  0.00  0.00    +0.000 A 
ATOM      6  N   UNL     1       3.156   5.624  18.164  0.00  0.00    +0.000 N 
ATOM      7  C   UNL     1       2.365   4.520  18.429  0.00  0.00    +0.000 C 
ATOM      8  O   UNL     1       2.360   3.479  17.781  0.00  0.00    +0.000 OA
ATOM      9  S   UNL     1       4.794   4.323  16.440  0.00  0.00    +0.000 S 
ATOM     10  H   UNL     1       2.965   6.512  18.608  0.00  0.00    +0.000 HD
BRANCH   2  11
ATOM     11  C   UNL     1       6.835   4.847  14.607  0.00  0.00    +0.000 C 
BRANCH  11  13
ATOM     12  C   UNL     1       6.587   3.851  12.309  0.00  0.00    +0.000 C 
ATOM     13  C   UNL     1       6.315   3.661  13.795  0.00  0.00    +0.000 C 
ENDBRANCH  11  13
ENDBRANCH   2  11
ENDBRANCH   1   7
BRANCH   1  14
ATOM     14  C   UNL     1       0.971   3.404  20.241  0.00  0.00    +0.000 C 
ATOM     15  C   UNL     1       1.855   2.937  21.391  0.00  0.00    +0.000 C 
ENDBRANCH   1  14
BRANCH   1  16
ATOM     16  S   UNL     1       2.225   5.747  20.924  0.00  0.00    +0.000 S 
BRANCH  16  17
ATOM     17  C   UNL     1       1.372   7.301  20.727  0.00  0.00    +0.000 A 
ATOM     18  N   UNL     1       0.398   7.587  21.634  0.00  0.00    +0.000 NA
ATOM     19  N   UNL     1      -0.240   8.753  21.605  0.00  0.00    +0.000 NA
ATOM     20  C   UNL     1       0.134   9.622  20.633  0.00  0.00    +0.000 A 
ATOM     21  C   UNL     1      -0.322  10.925  20.313  0.00  0.00    +0.000 A 
ATOM     22  C   UNL     1      -1.293  11.783  20.870  0.00  0.00    +0.000 A 
ATOM     23  C   UNL     1      -1.518  13.037  20.296  0.00  0.00    +0.000 A 
ATOM     24  C   UNL     1      -0.789  13.443  19.183  0.00  0.00    +0.000 A 
ATOM     25  C   UNL     1       0.183  12.614  18.613  0.00  0.00    +0.000 A 
ATOM     26  C   UNL     1       0.405  11.353  19.193  0.00  0.00    +0.000 A 
ATOM     27  N   UNL     1       1.277  10.328  18.862  0.00  0.00    +0.000 N 
ATOM     28  C   UNL     1       2.207  10.321  17.755  0.00  0.00    +0.000 C 
ATOM     29  C   UNL     1       1.128   9.278  19.735  0.00  0.00    +0.000 A 
ATOM     30  N   UNL     1       1.808   8.113  19.738  0.00  0.00    +0.000 NA
ENDBRANCH  16  17
ENDBRANCH   1  16
TORSDOF 6
ENDMDL
MODEL 3
REMARK VINA RESULT:      -7.2      4.137      9.534
REMARK  Name = 
REMARK  9 active torsions:
REMARK  status: ('A' for Active; 'I' for Inactive)
REMARK    1  A    between atoms: C_1  and  C_2
REMARK    2  A    between atoms: C_2  and  C_3
REMARK    3  A    between atoms: C_3  and  C_4
REMARK    4  A    between atoms: C_9  and  C_11
REMARK    5  A    between atoms: C_11  and  C_12
REMARK    6  A    between atoms: C_11  and  S_14
REMARK    7  A    between atoms: C_12  and  C_13
REMARK    8  A    between atoms: S_14  and  C_15
REMARK    9  A    between atoms: N_25  and  C_26
REMARK                            x       y       z     vdW  Elec       q    Type
REMARK                         _______ _______ _______ _____ _____    ______ ____
ROOT
ATOM      1  C   UNL     1       0.632  11.204  19.026  0.00  0.00    +0.000 C 
ENDROOT
BRANCH   1   7
ATOM      2  C   UNL     1      -5.140  11.741  17.381  0.00  0.00    +0.000 A 
ATOM      3  N   UNL     1      -4.651  11.350  16.222  0.00  0.00    +0.000 NA
ATOM      4  N   UNL     1      -3.295  11.087  16.297  0.00  0.00    +0.000 NA
ATOM      5  C   UNL     1      -2.806  11.343  17.490  0.00  0.00    +0.000 A 
ATOM      6  N   UNL     1      -1.482  11.146  17.809  0.00  0.00    +0.000 N 
ATOM      7  C   UNL     1      -0.845  11.632  18.937  0.00  0.00    +0.000 C 
ATOM      8  O   UNL     1      -1.348  12.378  19.770  0.00  0.00    +0.000 OA
ATOM      9  S   UNL     1      -3.967  11.858  18.626  0.00  0.00    +0.000 S 
ATOM     10  H   UNL     1      -0.953  10.706  17.068  0.00  0.00    +0.000 HD
BRANCH   2  11
ATOM     11  C   UNL     1      -6.582  12.022  17.658  0.00  0.00    +0.000 C 
BRANCH  11  13
ATOM     12  C   UNL     1      -7.531  12.185  19.983  0.00  0.00    +0.000 C 
ATOM     13  C   UNL     1      -7.105  11.244  18.865  0.00  0.00    +0.000 C 
ENDBRANCH  11  13
ENDBRANCH   2  11
ENDBRANCH   1   7
BRANCH   1  14
ATOM     14  C   UNL     1       1.508  12.325  19.611  0.00  0.00    +0.000 C 
ATOM     15  C   UNL     1       2.338  13.081  18.580  0.00  0.00    +0.000 C 
ENDBRANCH   1  14
BRANCH   1  16
ATOM     16  S   UNL     1       0.798   9.725  20.125  0.00  0.00    +0.000 S 
BRANCH  16  17
ATOM     17  C   UNL     1       1.825   8.679  19.109  0.00  0.00    +0.000 A 
ATOM     18  N   UNL     1       2.298   9.219  17.952  0.00  0.00    +0.000 NA
ATOM     19  N   UNL     1       3.128   8.536  17.170  0.00  0.00    +0.000 NA
ATOM     20  C   UNL     1       3.466   7.291  17.589  0.00  0.00    +0.000 A 
ATOM     21  C   UNL     1       4.309   6.305  17.018  0.00  0.00    +0.000 A 
ATOM     22  C   UNL     1       5.093   6.252  15.847  0.00  0.00    +0.000 A 
ATOM     23  C   UNL     1       5.821   5.095  15.555  0.00  0.00    +0.000 A 
ATOM     24  C   UNL     1       5.778   4.001  16.412  0.00  0.00    +0.000 A 
ATOM     25  C   UNL     1       5.011   4.028  17.582  0.00  0.00    +0.000 A 
ATOM     26  C   UNL     1       4.281   5.193  17.871  0.00  0.00    +0.000 A 
ATOM     27  N   UNL     1       3.445   5.517  18.928  0.00  0.00    +0.000 N 
ATOM     28  C   UNL     1       3.099   4.659  20.039  0.00  0.00    +0.000 C 
ATOM     29  C   UNL     1       2.954   6.791  18.772  0.00  0.00    +0.000 A 
ATOM     30  N   UNL     1       2.122   7.454  19.600  0.00  0.00    +0.000 NA
ENDBRANCH  16  17
ENDBRANCH   1  16
TORSDOF 6
ENDMDL
MODEL 4
REMARK VINA RESULT:      -7.2      3.445      4.939
REMARK  Name = 
REMARK  9 active torsions:
REMARK  status: ('A' for Active; 'I' for Inactive)
REMARK    1  A    between atoms: C_1  and  C_2
REMARK    2  A    between atoms: C_2  and  C_3
REMARK    3  A    between atoms: C_3  and  C_4
REMARK    4  A    between atoms: C_9  and  C_11
REMARK    5  A    between atoms: C_11  and  C_12
REMARK    6  A    between atoms: C_11  and  S_14
REMARK    7  A    between atoms: C_12  and  C_13
REMARK    8  A    between atoms: S_14  and  C_15
REMARK    9  A    between atoms: N_25  and  C_26
REMARK                            x       y       z     vdW  Elec       q    Type
REMARK                         _______ _______ _______ _____ _____    ______ ____
ROOT
ATOM      1  C   UNL     1       0.639   9.313  20.888  0.00  0.00    +0.000 C 
ENDROOT
BRANCH   1   7
ATOM      2  C   UNL     1       3.524   4.660  18.371  0.00  0.00    +0.000 A 
ATOM      3  N   UNL     1       3.505   4.219  19.613  0.00  0.00    +0.000 NA
ATOM      4  N   UNL     1       2.836   5.086  20.458  0.00  0.00    +0.000 NA
ATOM      5  C   UNL     1       2.425   6.168  19.834  0.00  0.00    +0.000 A 
ATOM      6  N   UNL     1       1.724   7.169  20.464  0.00  0.00    +0.000 N 
ATOM      7  C   UNL     1       1.494   8.435  19.956  0.00  0.00    +0.000 C 
ATOM      8  O   UNL     1       1.954   8.872  18.906  0.00  0.00    +0.000 OA
ATOM      9  S   UNL     1       2.765   6.184  18.164  0.00  0.00    +0.000 S 
ATOM     10  H   UNL     1       1.483   6.947  21.421  0.00  0.00    +0.000 HD
BRANCH   2  11
ATOM     11  C   UNL     1       4.093   3.922  17.203  0.00  0.00    +0.000 C 
BRANCH  11  13
ATOM     12  C   UNL     1       5.446   4.667  15.215  0.00  0.00    +0.000 C 
ATOM     13  C   UNL     1       5.420   4.515  16.730  0.00  0.00    +0.000 C 
ENDBRANCH  11  13
ENDBRANCH   2  11
ENDBRANCH   1   7
BRANCH   1  14
ATOM     14  C   UNL     1       1.087   9.177  22.355  0.00  0.00    +0.000 C 
ATOM     15  C   UNL     1       0.017   9.539  23.378  0.00  0.00    +0.000 C 
ENDBRANCH   1  14
BRANCH   1  16
ATOM     16  S   UNL     1       0.802  11.093  20.411  0.00  0.00    +0.000 S 
BRANCH  16  17
ATOM     17  C   UNL     1      -0.833  11.408  19.771  0.00  0.00    +0.000 A 
ATOM     18  N   UNL     1      -1.115  10.911  18.536  0.00  0.00    +0.000 NA
ATOM     19  N   UNL     1      -2.330  11.037  18.011  0.00  0.00    +0.000 NA
ATOM     20  C   UNL     1      -3.252  11.681  18.770  0.00  0.00    +0.000 A 
ATOM     21  C   UNL     1      -4.615  11.989  18.533  0.00  0.00    +0.000 A 
ATOM     22  C   UNL     1      -5.497  11.741  17.461  0.00  0.00    +0.000 A 
ATOM     23  C   UNL     1      -6.816  12.200  17.532  0.00  0.00    +0.000 A 
ATOM     24  C   UNL     1      -7.261  12.895  18.652  0.00  0.00    +0.000 A 
ATOM     25  C   UNL     1      -6.408  13.150  19.731  0.00  0.00    +0.000 A 
ATOM     26  C   UNL     1      -5.082  12.688  19.655  0.00  0.00    +0.000 A 
ATOM     27  N   UNL     1      -4.021  12.785  20.540  0.00  0.00    +0.000 N 
ATOM     28  C   UNL     1      -4.037  13.448  21.825  0.00  0.00    +0.000 C 
ATOM     29  C   UNL     1      -2.909  12.169  20.018  0.00  0.00    +0.000 A 
ATOM     30  N   UNL     1      -1.694  12.050  20.592  0.00  0.00    +0.000 NA
ENDBRANCH  16  17
ENDBRANCH   1  16
TORSDOF 6
ENDMDL
MODEL 5
REMARK VINA RESULT:      -7.2      3.395      4.499
REMARK  Name = 
REMARK  9 active torsions:
REMARK  status: ('A' for Active; 'I' for Inactive)
REMARK    1  A    between atoms: C_1  and  C_2
REMARK    2  A    between atoms: C_2  and  C_3
REMARK    3  A    between atoms: C_3  and  C_4
REMARK    4  A    between atoms: C_9  and  C_11
REMARK    5  A    between atoms: C_11  and  C_12
REMARK    6  A    between atoms: C_11  and  S_14
REMARK    7  A    between atoms: C_12  and  C_13
REMARK    8  A    between atoms: S_14  and  C_15
REMARK    9  A    between atoms: N_25  and  C_26
REMARK                            x       y       z     vdW  Elec       q    Type
REMARK                         _______ _______ _______ _____ _____    ______ ____
ROOT
ATOM      1  C   UNL     1       1.041   8.930  19.412  0.00  0.00    +0.000 C 
ENDROOT
BRANCH   1   7
ATOM      2  C   UNL     1       5.238   4.905  17.835  0.00  0.00    +0.000 A 
ATOM      3  N   UNL     1       5.039   4.493  19.071  0.00  0.00    +0.000 NA
ATOM      4  N   UNL     1       4.050   5.224  19.704  0.00  0.00    +0.000 NA
ATOM      5  C   UNL     1       3.583   6.189  18.944  0.00  0.00    +0.000 A 
ATOM      6  N   UNL     1       2.583   7.041  19.353  0.00  0.00    +0.000 N 
ATOM      7  C   UNL     1       2.229   8.225  18.732  0.00  0.00    +0.000 C 
ATOM      8  O   UNL     1       2.810   8.725  17.775  0.00  0.00    +0.000 OA
ATOM      9  S   UNL     1       4.263   6.241  17.382  0.00  0.00    +0.000 S 
ATOM     10  H   UNL     1       2.190   6.794  20.251  0.00  0.00    +0.000 HD
BRANCH   2  11
ATOM     11  C   UNL     1       6.176   4.275  16.856  0.00  0.00    +0.000 C 
BRANCH  11  13
ATOM     12  C   UNL     1       6.307   4.663  14.373  0.00  0.00    +0.000 C 
ATOM     13  C   UNL     1       5.516   4.016  15.502  0.00  0.00    +0.000 C 
ENDBRANCH  11  13
ENDBRANCH   2  11
ENDBRANCH   1   7
BRANCH   1  14
ATOM     14  C   UNL     1       1.099   8.777  20.943  0.00  0.00    +0.000 C 
ATOM     15  C   UNL     1      -0.264   8.692  21.620  0.00  0.00    +0.000 C 
ENDBRANCH   1  14
BRANCH   1  16
ATOM     16  S   UNL     1       1.070  10.740  19.025  0.00  0.00    +0.000 S 
BRANCH  16  17
ATOM     17  C   UNL     1      -0.670  11.049  18.786  0.00  0.00    +0.000 A 
ATOM     18  N   UNL     1      -1.285  10.359  17.787  0.00  0.00    +0.000 NA
ATOM     19  N   UNL     1      -2.594  10.473  17.584  0.00  0.00    +0.000 NA
ATOM     20  C   UNL     1      -3.264  11.306  18.419  0.00  0.00    +0.000 A 
ATOM     21  C   UNL     1      -4.634  11.660  18.491  0.00  0.00    +0.000 A 
ATOM     22  C   UNL     1      -5.778  11.287  17.756  0.00  0.00    +0.000 A 
ATOM     23  C   UNL     1      -7.019  11.842  18.080  0.00  0.00    +0.000 A 
ATOM     24  C   UNL     1      -7.132  12.756  19.122  0.00  0.00    +0.000 A 
ATOM     25  C   UNL     1      -6.014  13.141  19.871  0.00  0.00    +0.000 A 
ATOM     26  C   UNL     1      -4.768  12.581  19.541  0.00  0.00    +0.000 A 
ATOM     27  N   UNL     1      -3.505  12.761  20.083  0.00  0.00    +0.000 N 
ATOM     28  C   UNL     1      -3.161  13.644  21.175  0.00  0.00    +0.000 C 
ATOM     29  C   UNL     1      -2.587  11.985  19.416  0.00  0.00    +0.000 A 
ATOM     30  N   UNL     1      -1.265  11.886  19.665  0.00  0.00    +0.000 NA
ENDBRANCH  16  17
ENDBRANCH   1  16
TORSDOF 6
ENDMDL
MODEL 6
REMARK VINA RESULT:      -7.1      3.472      4.815
REMARK  Name = 
REMARK  9 active torsions:
REMARK  status: ('A' for Active; 'I' for Inactive)
REMARK    1  A    between atoms: C_1  and  C_2
REMARK    2  A    between atoms: C_2  and  C_3
REMARK    3  A    between atoms: C_3  and  C_4
REMARK    4  A    between atoms: C_9  and  C_11
REMARK    5  A    between atoms: C_11  and  C_12
REMARK    6  A    between atoms: C_11  and  S_14
REMARK    7  A    between atoms: C_12  and  C_13
REMARK    8  A    between atoms: S_14  and  C_15
REMARK    9  A    between atoms: N_25  and  C_26
REMARK                            x       y       z     vdW  Elec       q    Type
REMARK                         _______ _______ _______ _____ _____    ______ ____
ROOT
ATOM      1  C   UNL     1       1.013   9.003  19.295  0.00  0.00    +0.000 C 
ENDROOT
BRANCH   1   7
ATOM      2  C   UNL     1       5.095   4.860  17.720  0.00  0.00    +0.000 A 
ATOM      3  N   UNL     1       5.002   4.555  18.998  0.00  0.00    +0.000 NA
ATOM      4  N   UNL     1       4.064   5.336  19.648  0.00  0.00    +0.000 NA
ATOM      5  C   UNL     1       3.528   6.233  18.850  0.00  0.00    +0.000 A 
ATOM      6  N   UNL     1       2.559   7.115  19.268  0.00  0.00    +0.000 N 
ATOM      7  C   UNL     1       2.145   8.243  18.580  0.00  0.00    +0.000 C 
ATOM      8  O   UNL     1       2.641   8.660  17.539  0.00  0.00    +0.000 OA
ATOM      9  S   UNL     1       4.075   6.152  17.238  0.00  0.00    +0.000 S 
ATOM     10  H   UNL     1       2.243   6.945  20.213  0.00  0.00    +0.000 HD
BRANCH   2  11
ATOM     11  C   UNL     1       5.953   4.149  16.724  0.00  0.00    +0.000 C 
BRANCH  11  13
ATOM     12  C   UNL     1       6.383   4.597  14.285  0.00  0.00    +0.000 C 
ATOM     13  C   UNL     1       6.578   5.104  15.707  0.00  0.00    +0.000 C 
ENDBRANCH  11  13
ENDBRANCH   2  11
ENDBRANCH   1   7
BRANCH   1  14
ATOM     14  C   UNL     1       1.159   8.920  20.825  0.00  0.00    +0.000 C 
ATOM     15  C   UNL     1      -0.125   8.561  21.563  0.00  0.00    +0.000 C 
ENDBRANCH   1  14
BRANCH   1  16
ATOM     16  S   UNL     1       1.050  10.791  18.820  0.00  0.00    +0.000 S 
BRANCH  16  17
ATOM     17  C   UNL     1      -0.677  11.206  18.984  0.00  0.00    +0.000 A 
ATOM     18  N   UNL     1      -1.063  11.772  20.160  0.00  0.00    +0.000 NA
ATOM     19  N   UNL     1      -2.316  12.179  20.343  0.00  0.00    +0.000 NA
ATOM     20  C   UNL     1      -3.168  11.996  19.302  0.00  0.00    +0.000 A 
ATOM     21  C   UNL     1      -4.543  12.303  19.150  0.00  0.00    +0.000 A 
ATOM     22  C   UNL     1      -5.506  12.902  19.987  0.00  0.00    +0.000 A 
ATOM     23  C   UNL     1      -6.818  13.055  19.531  0.00  0.00    +0.000 A 
ATOM     24  C   UNL     1      -7.176  12.623  18.258  0.00  0.00    +0.000 A 
ATOM     25  C   UNL     1      -6.240  12.029  17.406  0.00  0.00    +0.000 A 
ATOM     26  C   UNL     1      -4.921  11.877  17.869  0.00  0.00    +0.000 A 
ATOM     27  N   UNL     1      -3.793  11.336  17.274  0.00  0.00    +0.000 N 
ATOM     28  C   UNL     1      -3.720  10.748  15.955  0.00  0.00    +0.000 C 
ATOM     29  C   UNL     1      -2.721  11.412  18.131  0.00  0.00    +0.000 A 
ATOM     30  N   UNL     1      -1.458  10.999  17.900  0.00  0.00    +0.000 NA
ENDBRANCH  16  17
ENDBRANCH   1  16
TORSDOF 6
ENDMDL
MODEL 7
REMARK VINA RESULT:      -7.1      3.571      5.251
REMARK  Name = 
REMARK  9 active torsions:
REMARK  status: ('A' for Active; 'I' for Inactive)
REMARK    1  A    between atoms: C_1  and  C_2
REMARK    2  A    between atoms: C_2  and  C_3
REMARK    3  A    between atoms: C_3  and  C_4
REMARK    4  A    between atoms: C_9  and  C_11
REMARK    5  A    between atoms: C_11  and  C_12
REMARK    6  A    between atoms: C_11  and  S_14
REMARK    7  A    between atoms: C_12  and  C_13
REMARK    8  A    between atoms: S_14  and  C_15
REMARK    9  A    between atoms: N_25  and  C_26
REMARK                            x       y       z     vdW  Elec       q    Type
REMARK                         _______ _______ _______ _____ _____    ______ ____
ROOT
ATOM      1  C   UNL     1       0.674   9.375  20.378  0.00  0.00    +0.000 C 
ENDROOT
BRANCH   1   7
ATOM      2  C   UNL     1       3.800   4.607  18.426  0.00  0.00    +0.000 A 
ATOM      3  N   UNL     1       3.669   4.243  19.686  0.00  0.00    +0.000 NA
ATOM      4  N   UNL     1       2.921   5.152  20.411  0.00  0.00    +0.000 NA
ATOM      5  C   UNL     1       2.565   6.190  19.687  0.00  0.00    +0.000 A 
ATOM      6  N   UNL     1       1.803   7.220  20.187  0.00  0.00    +0.000 N 
ATOM      7  C   UNL     1       1.616   8.451  19.583  0.00  0.00    +0.000 C 
ATOM      8  O   UNL     1       2.168   8.828  18.555  0.00  0.00    +0.000 OA
ATOM      9  S   UNL     1       3.057   6.108  18.057  0.00  0.00    +0.000 S 
ATOM     10  H   UNL     1       1.476   7.055  21.130  0.00  0.00    +0.000 HD
BRANCH   2  11
ATOM     11  C   UNL     1       4.478   3.806  17.363  0.00  0.00    +0.000 C 
BRANCH  11  13
ATOM     12  C   UNL     1       5.480   4.306  15.109  0.00  0.00    +0.000 C 
ATOM     13  C   UNL     1       5.523   4.619  16.598  0.00  0.00    +0.000 C 
ENDBRANCH  11  13
ENDBRANCH   2  11
ENDBRANCH   1   7
BRANCH   1  14
ATOM     14  C   UNL     1       1.092   9.466  21.856  0.00  0.00    +0.000 C 
ATOM     15  C   UNL     1      -0.061   9.353  22.847  0.00  0.00    +0.000 C 
ENDBRANCH   1  14
BRANCH   1  16
ATOM     16  S   UNL     1       0.718  11.085  19.672  0.00  0.00    +0.000 S 
BRANCH  16  17
ATOM     17  C   UNL     1      -1.021  11.481  19.674  0.00  0.00    +0.000 A 
ATOM     18  N   UNL     1      -1.513  12.079  20.794  0.00  0.00    +0.000 NA
ATOM     19  N   UNL     1      -2.781  12.474  20.855  0.00  0.00    +0.000 NA
ATOM     20  C   UNL     1      -3.538  12.246  19.752  0.00  0.00    +0.000 A 
ATOM     21  C   UNL     1      -4.899  12.530  19.473  0.00  0.00    +0.000 A 
ATOM     22  C   UNL     1      -5.937  13.142  20.204  0.00  0.00    +0.000 A 
ATOM     23  C   UNL     1      -7.207  13.262  19.632  0.00  0.00    +0.000 A 
ATOM     24  C   UNL     1      -7.449  12.785  18.348  0.00  0.00    +0.000 A 
ATOM     25  C   UNL     1      -6.436  12.178  17.599  0.00  0.00    +0.000 A 
ATOM     26  C   UNL     1      -5.161  12.058  18.178  0.00  0.00    +0.000 A 
ATOM     27  N   UNL     1      -3.979  11.514  17.700  0.00  0.00    +0.000 N 
ATOM     28  C   UNL     1      -3.787  10.886  16.412  0.00  0.00    +0.000 C 
ATOM     29  C   UNL     1      -2.986  11.633  18.643  0.00  0.00    +0.000 A 
ATOM     30  N   UNL     1      -1.704  11.230  18.535  0.00  0.00    +0.000 NA
ENDBRANCH  16  17
ENDBRANCH   1  16
TORSDOF 6
ENDMDL
MODEL 8
REMARK VINA RESULT:      -7.0      3.885      9.789
REMARK  Name = 
REMARK  9 active torsions:
REMARK  status: ('A' for Active; 'I' for Inactive)
REMARK    1  A    between atoms: C_1  and  C_2
REMARK    2  A    between atoms: C_2  and  C_3
REMARK    3  A    between atoms: C_3  and  C_4
REMARK    4  A    between atoms: C_9  and  C_11
REMARK    5  A    between atoms: C_11  and  C_12
REMARK    6  A    between atoms: C_11  and  S_14
REMARK    7  A    between atoms: C_12  and  C_13
REMARK    8  A    between atoms: S_14  and  C_15
REMARK    9  A    between atoms: N_25  and  C_26
REMARK                            x       y       z     vdW  Elec       q    Type
REMARK                         _______ _______ _______ _____ _____    ______ ____
ROOT
ATOM      1  C   UNL     1       0.106  10.996  19.248  0.00  0.00    +0.000 C 
ENDROOT
BRANCH   1   7
ATOM      2  C   UNL     1      -5.702  12.598  19.188  0.00  0.00    +0.000 A 
ATOM      3  N   UNL     1      -5.360  13.175  20.323  0.00  0.00    +0.000 NA
ATOM      4  N   UNL     1      -4.014  13.018  20.596  0.00  0.00    +0.000 NA
ATOM      5  C   UNL     1      -3.406  12.286  19.689  0.00  0.00    +0.000 A 
ATOM      6  N   UNL     1      -2.061  12.003  19.740  0.00  0.00    +0.000 N 
ATOM      7  C   UNL     1      -1.411  11.039  18.989  0.00  0.00    +0.000 C 
ATOM      8  O   UNL     1      -1.956  10.243  18.232  0.00  0.00    +0.000 OA
ATOM      9  S   UNL     1      -4.410  11.788  18.404  0.00  0.00    +0.000 S 
ATOM     10  H   UNL     1      -1.579  12.485  20.487  0.00  0.00    +0.000 HD
BRANCH   2  11
ATOM     11  C   UNL     1      -7.060  12.655  18.567  0.00  0.00    +0.000 C 
BRANCH  11  13
ATOM     12  C   UNL     1      -6.871  14.511  16.878  0.00  0.00    +0.000 C 
ATOM     13  C   UNL     1      -7.006  13.008  17.081  0.00  0.00    +0.000 C 
ENDBRANCH  11  13
ENDBRANCH   2  11
ENDBRANCH   1   7
BRANCH   1  14
ATOM     14  C   UNL     1       0.601  12.297  19.906  0.00  0.00    +0.000 C 
ATOM     15  C   UNL     1       1.884  12.859  19.305  0.00  0.00    +0.000 C 
ENDBRANCH   1  14
BRANCH   1  16
ATOM     16  S   UNL     1       0.517   9.596  20.386  0.00  0.00    +0.000 S 
BRANCH  16  17
ATOM     17  C   UNL     1       1.607   8.641  19.347  0.00  0.00    +0.000 A 
ATOM     18  N   UNL     1       2.036   9.234  18.199  0.00  0.00    +0.000 NA
ATOM     19  N   UNL     1       2.906   8.623  17.400  0.00  0.00    +0.000 NA
ATOM     20  C   UNL     1       3.329   7.396  17.794  0.00  0.00    +0.000 A 
ATOM     21  C   UNL     1       4.234   6.480  17.200  0.00  0.00    +0.000 A 
ATOM     22  C   UNL     1       5.013   6.501  16.026  0.00  0.00    +0.000 A 
ATOM     23  C   UNL     1       5.815   5.402  15.709  0.00  0.00    +0.000 A 
ATOM     24  C   UNL     1       5.850   4.291  16.545  0.00  0.00    +0.000 A 
ATOM     25  C   UNL     1       5.090   4.245  17.718  0.00  0.00    +0.000 A 
ATOM     26  C   UNL     1       4.284   5.353  18.033  0.00  0.00    +0.000 A 
ATOM     27  N   UNL     1       3.434   5.600  19.099  0.00  0.00    +0.000 N 
ATOM     28  C   UNL     1       3.153   4.700  20.195  0.00  0.00    +0.000 C 
ATOM     29  C   UNL     1       2.858   6.840  18.969  0.00  0.00    +0.000 A 
ATOM     30  N   UNL     1       1.987   7.431  19.814  0.00  0.00    +0.000 NA
ENDBRANCH  16  17
ENDBRANCH   1  16
TORSDOF 6
ENDMDL
MODEL 9
REMARK VINA RESULT:      -7.0      3.480      8.748
REMARK  Name = 
REMARK  9 active torsions:
REMARK  status: ('A' for Active; 'I' for Inactive)
REMARK    1  A    between atoms: C_1  and  C_2
REMARK    2  A    between atoms: C_2  and  C_3
REMARK    3  A    between atoms: C_3  and  C_4
REMARK    4  A    between atoms: C_9  and  C_11
REMARK    5  A    between atoms: C_11  and  C_12
REMARK    6  A    between atoms: C_11  and  S_14
REMARK    7  A    between atoms: C_12  and  C_13
REMARK    8  A    between atoms: S_14  and  C_15
REMARK    9  A    between atoms: N_25  and  C_26
REMARK                            x       y       z     vdW  Elec       q    Type
REMARK                         _______ _______ _______ _____ _____    ______ ____
ROOT
ATOM      1  C   UNL     1       0.784   9.857  20.924  0.00  0.00    +0.000 C 
ENDROOT
BRANCH   1   7
ATOM      2  C   UNL     1      -3.534  11.060  16.897  0.00  0.00    +0.000 A 
ATOM      3  N   UNL     1      -2.786  10.280  16.142  0.00  0.00    +0.000 NA
ATOM      4  N   UNL     1      -1.695   9.785  16.834  0.00  0.00    +0.000 NA
ATOM      5  C   UNL     1      -1.633  10.252  18.062  0.00  0.00    +0.000 A 
ATOM      6  N   UNL     1      -0.643   9.891  18.946  0.00  0.00    +0.000 N 
ATOM      7  C   UNL     1      -0.358  10.529  20.140  0.00  0.00    +0.000 C 
ATOM      8  O   UNL     1      -0.895  11.556  20.542  0.00  0.00    +0.000 OA
ATOM      9  S   UNL     1      -2.929  11.275  18.487  0.00  0.00    +0.000 S 
ATOM     10  H   UNL     1      -0.030   9.172  18.587  0.00  0.00    +0.000 HD
BRANCH   2  11
ATOM     11  C   UNL     1      -4.825  11.684  16.478  0.00  0.00    +0.000 C 
BRANCH  11  13
ATOM     12  C   UNL     1      -6.593  13.335  17.174  0.00  0.00    +0.000 C 
ATOM     13  C   UNL     1      -5.581  12.304  17.653  0.00  0.00    +0.000 C 
ENDBRANCH  11  13
ENDBRANCH   2  11
ENDBRANCH   1   7
BRANCH   1  14
ATOM     14  C   UNL     1       0.870  10.393  22.364  0.00  0.00    +0.000 C 
ATOM     15  C   UNL     1       0.042   9.612  23.378  0.00  0.00    +0.000 C 
ENDBRANCH   1  14
BRANCH   1  16
ATOM     16  S   UNL     1       0.503   8.031  21.017  0.00  0.00    +0.000 S 
BRANCH  16  17
ATOM     17  C   UNL     1       1.639   7.462  19.766  0.00  0.00    +0.000 A 
ATOM     18  N   UNL     1       2.028   8.371  18.831  0.00  0.00    +0.000 NA
ATOM     19  N   UNL     1       2.927   8.054  17.904  0.00  0.00    +0.000 NA
ATOM     20  C   UNL     1       3.421   6.791  17.949  0.00  0.00    +0.000 A 
ATOM     21  C   UNL     1       4.373   6.126  17.136  0.00  0.00    +0.000 A 
ATOM     22  C   UNL     1       5.144   6.515  16.021  0.00  0.00    +0.000 A 
ATOM     23  C   UNL     1       6.006   5.592  15.422  0.00  0.00    +0.000 A 
ATOM     24  C   UNL     1       6.107   4.297  15.919  0.00  0.00    +0.000 A 
ATOM     25  C   UNL     1       5.357   3.886  17.026  0.00  0.00    +0.000 A 
ATOM     26  C   UNL     1       4.491   4.818  17.625  0.00  0.00    +0.000 A 
ATOM     27  N   UNL     1       3.634   4.713  18.709  0.00  0.00    +0.000 N 
ATOM     28  C   UNL     1       3.410   3.531  19.511  0.00  0.00    +0.000 C 
ATOM     29  C   UNL     1       2.988   5.908  18.920  0.00  0.00    +0.000 A 
ATOM     30  N   UNL     1       2.090   6.192  19.885  0.00  0.00    +0.000 NA
ENDBRANCH  16  17
ENDBRANCH   1  16
TORSDOF 6
ENDMDL
