MODEL 1
REMARK VINA RESULT:      -8.9      0.000      0.000
REMARK  Name = 
REMARK  6 active torsions:
REMARK  status: ('A' for Active; 'I' for Inactive)
REMARK    1  A    between atoms: C_1  and  C_2
REMARK    2  A    between atoms: C_4  and  C_5
REMARK    3  A    between atoms: N_8  and  S_9
REMARK    4  A    between atoms: S_9  and  C_12
REMARK    5  A    between atoms: C_15  and  N_16
REMARK    6  A    between atoms: C_17  and  C_18
REMARK                            x       y       z     vdW  Elec       q    Type
REMARK                         _______ _______ _______ _____ _____    ______ ____
ROOT
ATOM      1  C   UNL     1       6.546   6.026  17.949  0.00  0.00    +0.000 A 
ATOM      2  C   UNL     1       7.686   6.157  18.738  0.00  0.00    +0.000 A 
ATOM      3  C   UNL     1       8.391   7.389  18.759  0.00  0.00    +0.000 A 
ATOM      4  C   UNL     1       7.989   8.491  17.974  0.00  0.00    +0.000 A 
ATOM      5  C   UNL     1       6.864   8.302  17.164  0.00  0.00    +0.000 A 
ATOM      6  C   UNL     1       6.147   7.092  17.138  0.00  0.00    +0.000 A 
ENDROOT
BRANCH   1   7
ATOM      7  S   UNL     1       5.716   4.430  17.801  0.00  0.00    +0.000 S 
ATOM      8  O   UNL     1       5.833   3.769  19.082  0.00  0.00    +0.000 OA
ATOM      9  O   UNL     1       6.261   3.798  16.610  0.00  0.00    +0.000 OA
BRANCH   7  17
ATOM     10  C   UNL     1       0.867   2.794  20.427  0.00  0.00    +0.000 C 
ATOM     11  C   UNL     1       1.659   3.968  19.941  0.00  0.00    +0.000 A 
ATOM     12  C   UNL     1       1.420   5.229  20.450  0.00  0.00    +0.000 A 
ATOM     13  C   UNL     1       2.173   6.270  19.934  0.00  0.00    +0.000 A 
ATOM     14  C   UNL     1       1.983   7.679  20.421  0.00  0.00    +0.000 C 
ATOM     15  N   UNL     1       3.094   6.082  18.972  0.00  0.00    +0.000 NA
ATOM     16  C   UNL     1       3.273   4.815  18.563  0.00  0.00    +0.000 A 
ATOM     17  N   UNL     1       4.110   4.701  17.467  0.00  0.00    +0.000 N 
ATOM     18  N   UNL     1       2.594   3.750  18.991  0.00  0.00    +0.000 NA
ATOM     19  H   UNL     1       3.978   5.446  16.802  0.00  0.00    +0.000 HD
ENDBRANCH   7  17
ENDBRANCH   1   7
BRANCH   4  20
ATOM     20  N   UNL     1       8.603   9.790  18.037  0.00  0.00    +0.000 NA
ATOM     21  C   UNL     1       9.299  10.092  19.090  0.00  0.00    +0.000 C 
BRANCH  21  22
ATOM     22  C   UNL     1       9.834  11.420  19.414  0.00  0.00    +0.000 A 
ATOM     23  C   UNL     1      10.135  11.694  20.746  0.00  0.00    +0.000 A 
ATOM     24  N   UNL     1       9.953  13.039  20.866  0.00  0.00    +0.000 N 
ATOM     25  C   UNL     1      10.455  13.609  19.732  0.00  0.00    +0.000 A 
ATOM     26  C   UNL     1      10.995  14.891  19.543  0.00  0.00    +0.000 A 
ATOM     27  C   UNL     1      11.432  15.196  18.262  0.00  0.00    +0.000 A 
ATOM     28  C   UNL     1      11.239  14.295  17.219  0.00  0.00    +0.000 A 
ATOM     29  C   UNL     1      10.630  13.029  17.425  0.00  0.00    +0.000 A 
ATOM     30  C   UNL     1      10.285  12.632  18.735  0.00  0.00    +0.000 A 
ATOM     31  H   UNL     1       9.622  13.533  21.683  0.00  0.00    +0.000 HD
ENDBRANCH  21  22
ENDBRANCH   4  20
TORSDOF 4
ENDMDL
MODEL 2
REMARK VINA RESULT:      -8.8      4.949      7.928
REMARK  Name = 
REMARK  6 active torsions:
REMARK  status: ('A' for Active; 'I' for Inactive)
REMARK    1  A    between atoms: C_1  and  C_2
REMARK    2  A    between atoms: C_4  and  C_5
REMARK    3  A    between atoms: N_8  and  S_9
REMARK    4  A    between atoms: S_9  and  C_12
REMARK    5  A    between atoms: C_15  and  N_16
REMARK    6  A    between atoms: C_17  and  C_18
REMARK                            x       y       z     vdW  Elec       q    Type
REMARK                         _______ _______ _______ _____ _____    ______ ____
ROOT
ATOM      1  C   UNL     1       2.518   4.476  18.707  0.00  0.00    +0.000 A 
ATOM      2  C   UNL     1       2.314   4.538  20.082  0.00  0.00    +0.000 A 
ATOM      3  C   UNL     1       2.086   5.792  20.706  0.00  0.00    +0.000 A 
ATOM      4  C   UNL     1       2.090   7.000  19.975  0.00  0.00    +0.000 A 
ATOM      5  C   UNL     1       2.342   6.896  18.603  0.00  0.00    +0.000 A 
ATOM      6  C   UNL     1       2.560   5.661  17.966  0.00  0.00    +0.000 A 
ENDROOT
BRANCH   1   7
ATOM      7  S   UNL     1       2.947   2.912  17.916  0.00  0.00    +0.000 S 
ATOM      8  O   UNL     1       2.342   2.919  16.602  0.00  0.00    +0.000 OA
ATOM      9  O   UNL     1       2.599   1.867  18.865  0.00  0.00    +0.000 OA
BRANCH   7  17
ATOM     10  C   UNL     1       6.481   3.912  13.488  0.00  0.00    +0.000 C 
ATOM     11  C   UNL     1       6.154   4.285  14.901  0.00  0.00    +0.000 A 
ATOM     12  C   UNL     1       6.594   5.484  15.426  0.00  0.00    +0.000 A 
ATOM     13  C   UNL     1       6.275   5.749  16.747  0.00  0.00    +0.000 A 
ATOM     14  C   UNL     1       6.714   7.025  17.409  0.00  0.00    +0.000 C 
ATOM     15  N   UNL     1       5.577   4.883  17.505  0.00  0.00    +0.000 NA
ATOM     16  C   UNL     1       5.170   3.758  16.895  0.00  0.00    +0.000 A 
ATOM     17  N   UNL     1       4.601   2.838  17.757  0.00  0.00    +0.000 N 
ATOM     18  N   UNL     1       5.432   3.410  15.634  0.00  0.00    +0.000 NA
ATOM     19  H   UNL     1       5.068   2.803  18.648  0.00  0.00    +0.000 HD
ENDBRANCH   7  17
ENDBRANCH   1   7
BRANCH   4  20
ATOM     20  N   UNL     1       1.762   8.282  20.538  0.00  0.00    +0.000 NA
ATOM     21  C   UNL     1       0.876   8.330  21.485  0.00  0.00    +0.000 C 
BRANCH  21  22
ATOM     22  C   UNL     1       0.281   9.551  22.042  0.00  0.00    +0.000 A 
ATOM     23  C   UNL     1      -0.241   9.491  23.332  0.00  0.00    +0.000 A 
ATOM     24  N   UNL     1      -1.241  10.416  23.338  0.00  0.00    +0.000 N 
ATOM     25  C   UNL     1      -0.786  11.496  22.639  0.00  0.00    +0.000 A 
ATOM     26  C   UNL     1      -1.137  12.850  22.763  0.00  0.00    +0.000 A 
ATOM     27  C   UNL     1      -0.500  13.736  21.905  0.00  0.00    +0.000 A 
ATOM     28  C   UNL     1       0.360  13.264  20.918  0.00  0.00    +0.000 A 
ATOM     29  C   UNL     1       0.647  11.881  20.772  0.00  0.00    +0.000 A 
ATOM     30  C   UNL     1       0.116  10.962  21.703  0.00  0.00    +0.000 A 
ATOM     31  H   UNL     1      -2.107  10.366  23.858  0.00  0.00    +0.000 HD
ENDBRANCH  21  22
ENDBRANCH   4  20
TORSDOF 4
ENDMDL
MODEL 3
REMARK VINA RESULT:      -8.8      4.817      7.956
REMARK  Name = 
REMARK  6 active torsions:
REMARK  status: ('A' for Active; 'I' for Inactive)
REMARK    1  A    between atoms: C_1  and  C_2
REMARK    2  A    between atoms: C_4  and  C_5
REMARK    3  A    between atoms: N_8  and  S_9
REMARK    4  A    between atoms: S_9  and  C_12
REMARK    5  A    between atoms: C_15  and  N_16
REMARK    6  A    between atoms: C_17  and  C_18
REMARK                            x       y       z     vdW  Elec       q    Type
REMARK                         _______ _______ _______ _____ _____    ______ ____
ROOT
ATOM      1  C   UNL     1       2.609   4.844  18.867  0.00  0.00    +0.000 A 
ATOM      2  C   UNL     1       2.662   6.008  18.105  0.00  0.00    +0.000 A 
ATOM      3  C   UNL     1       2.324   7.254  18.695  0.00  0.00    +0.000 A 
ATOM      4  C   UNL     1       1.900   7.352  20.038  0.00  0.00    +0.000 A 
ATOM      5  C   UNL     1       1.820   6.152  20.754  0.00  0.00    +0.000 A 
ATOM      6  C   UNL     1       2.161   4.910  20.189  0.00  0.00    +0.000 A 
ENDROOT
BRANCH   1   7
ATOM      7  S   UNL     1       2.899   3.236  18.101  0.00  0.00    +0.000 S 
ATOM      8  O   UNL     1       2.274   3.267  16.797  0.00  0.00    +0.000 OA
ATOM      9  O   UNL     1       2.486   2.240  19.076  0.00  0.00    +0.000 OA
BRANCH   7  17
ATOM     10  C   UNL     1       6.430   3.894  13.608  0.00  0.00    +0.000 C 
ATOM     11  C   UNL     1       6.157   4.310  15.020  0.00  0.00    +0.000 A 
ATOM     12  C   UNL     1       6.699   5.477  15.521  0.00  0.00    +0.000 A 
ATOM     13  C   UNL     1       6.423   5.783  16.843  0.00  0.00    +0.000 A 
ATOM     14  C   UNL     1       6.972   7.029  17.480  0.00  0.00    +0.000 C 
ATOM     15  N   UNL     1       5.671   4.986  17.623  0.00  0.00    +0.000 NA
ATOM     16  C   UNL     1       5.166   3.889  17.036  0.00  0.00    +0.000 A 
ATOM     17  N   UNL     1       4.539   3.028  17.918  0.00  0.00    +0.000 N 
ATOM     18  N   UNL     1       5.380   3.505  15.776  0.00  0.00    +0.000 NA
ATOM     19  H   UNL     1       5.017   2.968  18.803  0.00  0.00    +0.000 HD
ENDBRANCH   7  17
ENDBRANCH   1   7
BRANCH   4  20
ATOM     20  N   UNL     1       1.647   8.596  20.713  0.00  0.00    +0.000 NA
ATOM     21  C   UNL     1       0.788   9.416  20.192  0.00  0.00    +0.000 C 
BRANCH  21  22
ATOM     22  C   UNL     1       0.543  10.796  20.629  0.00  0.00    +0.000 A 
ATOM     23  C   UNL     1       1.051  11.828  19.842  0.00  0.00    +0.000 A 
ATOM     24  N   UNL     1       1.283  12.842  20.722  0.00  0.00    +0.000 N 
ATOM     25  C   UNL     1       0.235  12.857  21.595  0.00  0.00    +0.000 A 
ATOM     26  C   UNL     1      -0.304  13.930  22.323  0.00  0.00    +0.000 A 
ATOM     27  C   UNL     1      -1.385  13.641  23.144  0.00  0.00    +0.000 A 
ATOM     28  C   UNL     1      -1.825  12.329  23.293  0.00  0.00    +0.000 A 
ATOM     29  C   UNL     1      -1.219  11.251  22.594  0.00  0.00    +0.000 A 
ATOM     30  C   UNL     1      -0.198  11.521  21.657  0.00  0.00    +0.000 A 
ATOM     31  H   UNL     1       2.023  13.529  20.669  0.00  0.00    +0.000 HD
ENDBRANCH  21  22
ENDBRANCH   4  20
TORSDOF 4
ENDMDL
MODEL 4
REMARK VINA RESULT:      -8.6      1.178      1.604
REMARK  Name = 
REMARK  6 active torsions:
REMARK  status: ('A' for Active; 'I' for Inactive)
REMARK    1  A    between atoms: C_1  and  C_2
REMARK    2  A    between atoms: C_4  and  C_5
REMARK    3  A    between atoms: N_8  and  S_9
REMARK    4  A    between atoms: S_9  and  C_12
REMARK    5  A    between atoms: C_15  and  N_16
REMARK    6  A    between atoms: C_17  and  C_18
REMARK                            x       y       z     vdW  Elec       q    Type
REMARK                         _______ _______ _______ _____ _____    ______ ____
ROOT
ATOM      1  C   UNL     1       6.874   6.048  17.725  0.00  0.00    +0.000 A 
ATOM      2  C   UNL     1       6.574   7.238  17.067  0.00  0.00    +0.000 A 
ATOM      3  C   UNL     1       7.260   8.430  17.416  0.00  0.00    +0.000 A 
ATOM      4  C   UNL     1       8.228   8.459  18.443  0.00  0.00    +0.000 A 
ATOM      5  C   UNL     1       8.467   7.251  19.107  0.00  0.00    +0.000 A 
ATOM      6  C   UNL     1       7.805   6.058  18.768  0.00  0.00    +0.000 A 
ENDROOT
BRANCH   1   7
ATOM      7  S   UNL     1       5.918   4.554  17.394  0.00  0.00    +0.000 S 
ATOM      8  O   UNL     1       5.912   3.774  18.612  0.00  0.00    +0.000 OA
ATOM      9  O   UNL     1       6.465   3.983  16.174  0.00  0.00    +0.000 OA
BRANCH   7  17
ATOM     10  C   UNL     1       0.797   2.358  18.820  0.00  0.00    +0.000 C 
ATOM     11  C   UNL     1       1.650   3.588  18.844  0.00  0.00    +0.000 A 
ATOM     12  C   UNL     1       1.373   4.612  19.728  0.00  0.00    +0.000 A 
ATOM     13  C   UNL     1       2.189   5.729  19.675  0.00  0.00    +0.000 A 
ATOM     14  C   UNL     1       1.964   6.897  20.594  0.00  0.00    +0.000 C 
ATOM     15  N   UNL     1       3.206   5.834  18.800  0.00  0.00    +0.000 NA
ATOM     16  C   UNL     1       3.412   4.774  18.002  0.00  0.00    +0.000 A 
ATOM     17  N   UNL     1       4.360   4.997  17.020  0.00  0.00    +0.000 N 
ATOM     18  N   UNL     1       2.678   3.660  17.973  0.00  0.00    +0.000 NA
ATOM     19  H   UNL     1       4.310   5.929  16.640  0.00  0.00    +0.000 HD
ENDBRANCH   7  17
ENDBRANCH   1   7
BRANCH   4  20
ATOM     20  N   UNL     1       9.024   9.612  18.765  0.00  0.00    +0.000 NA
ATOM     21  C   UNL     1       8.937  10.655  17.998  0.00  0.00    +0.000 C 
BRANCH  21  22
ATOM     22  C   UNL     1       9.803  11.839  18.056  0.00  0.00    +0.000 A 
ATOM     23  C   UNL     1      11.166  11.661  17.830  0.00  0.00    +0.000 A 
ATOM     24  N   UNL     1      11.762  12.648  18.556  0.00  0.00    +0.000 N 
ATOM     25  C   UNL     1      11.000  13.769  18.400  0.00  0.00    +0.000 A 
ATOM     26  C   UNL     1      11.378  15.120  18.462  0.00  0.00    +0.000 A 
ATOM     27  C   UNL     1      10.372  16.055  18.261  0.00  0.00    +0.000 A 
ATOM     28  C   UNL     1       9.050  15.645  18.109  0.00  0.00    +0.000 A 
ATOM     29  C   UNL     1       8.685  14.273  18.117  0.00  0.00    +0.000 A 
ATOM     30  C   UNL     1       9.695  13.289  18.194  0.00  0.00    +0.000 A 
ATOM     31  H   UNL     1      12.658  12.599  19.020  0.00  0.00    +0.000 HD
ENDBRANCH  21  22
ENDBRANCH   4  20
TORSDOF 4
ENDMDL
MODEL 5
REMARK VINA RESULT:      -8.5      7.339     11.422
REMARK  Name = 
REMARK  6 active torsions:
REMARK  status: ('A' for Active; 'I' for Inactive)
REMARK    1  A    between atoms: C_1  and  C_2
REMARK    2  A    between atoms: C_4  and  C_5
REMARK    3  A    between atoms: N_8  and  S_9
REMARK    4  A    between atoms: S_9  and  C_12
REMARK    5  A    between atoms: C_15  and  N_16
REMARK    6  A    between atoms: C_17  and  C_18
REMARK                            x       y       z     vdW  Elec       q    Type
REMARK                         _______ _______ _______ _____ _____    ______ ____
ROOT
ATOM      1  C   UNL     1      -0.588  11.161  21.874  0.00  0.00    +0.000 A 
ATOM      2  C   UNL     1       0.008  11.081  20.618  0.00  0.00    +0.000 A 
ATOM      3  C   UNL     1       0.704   9.902  20.242  0.00  0.00    +0.000 A 
ATOM      4  C   UNL     1       0.843   8.806  21.121  0.00  0.00    +0.000 A 
ATOM      5  C   UNL     1       0.265   8.947  22.388  0.00  0.00    +0.000 A 
ATOM      6  C   UNL     1      -0.437  10.103  22.774  0.00  0.00    +0.000 A 
ENDROOT
BRANCH   1   7
ATOM      7  S   UNL     1      -1.357  12.699  22.423  0.00  0.00    +0.000 S 
ATOM      8  O   UNL     1      -1.737  13.432  21.236  0.00  0.00    +0.000 OA
ATOM      9  O   UNL     1      -0.437  13.297  23.376  0.00  0.00    +0.000 OA
BRANCH   7  17
ATOM     10  C   UNL     1      -5.902  15.814  24.074  0.00  0.00    +0.000 C 
ATOM     11  C   UNL     1      -5.462  14.593  23.328  0.00  0.00    +0.000 A 
ATOM     12  C   UNL     1      -6.298  14.002  22.401  0.00  0.00    +0.000 A 
ATOM     13  C   UNL     1      -5.833  12.861  21.769  0.00  0.00    +0.000 A 
ATOM     14  C   UNL     1      -6.672  12.144  20.749  0.00  0.00    +0.000 C 
ATOM     15  N   UNL     1      -4.627  12.331  22.041  0.00  0.00    +0.000 NA
ATOM     16  C   UNL     1      -3.877  12.994  22.936  0.00  0.00    +0.000 A 
ATOM     17  N   UNL     1      -2.722  12.323  23.295  0.00  0.00    +0.000 N 
ATOM     18  N   UNL     1      -4.238  14.093  23.601  0.00  0.00    +0.000 NA
ATOM     19  H   UNL     1      -2.862  11.329  23.373  0.00  0.00    +0.000 HD
ENDBRANCH   7  17
ENDBRANCH   1   7
BRANCH   4  20
ATOM     20  N   UNL     1       1.446   7.553  20.755  0.00  0.00    +0.000 NA
ATOM     21  C   UNL     1       2.059   7.474  19.615  0.00  0.00    +0.000 C 
BRANCH  21  22
ATOM     22  C   UNL     1       2.564   6.243  18.994  0.00  0.00    +0.000 A 
ATOM     23  C   UNL     1       3.833   6.275  18.422  0.00  0.00    +0.000 A 
ATOM     24  N   UNL     1       3.777   5.355  17.419  0.00  0.00    +0.000 N 
ATOM     25  C   UNL     1       3.071   4.289  17.898  0.00  0.00    +0.000 A 
ATOM     26  C   UNL     1       3.149   2.934  17.538  0.00  0.00    +0.000 A 
ATOM     27  C   UNL     1       2.296   2.066  18.205  0.00  0.00    +0.000 A 
ATOM     28  C   UNL     1       1.355   2.558  19.105  0.00  0.00    +0.000 A 
ATOM     29  C   UNL     1       1.253   3.943  19.402  0.00  0.00    +0.000 A 
ATOM     30  C   UNL     1       2.185   4.842  18.838  0.00  0.00    +0.000 A 
ATOM     31  H   UNL     1       4.264   5.396  16.534  0.00  0.00    +0.000 HD
ENDBRANCH  21  22
ENDBRANCH   4  20
TORSDOF 4
ENDMDL
MODEL 6
REMARK VINA RESULT:      -8.5      6.068      8.805
REMARK  Name = 
REMARK  6 active torsions:
REMARK  status: ('A' for Active; 'I' for Inactive)
REMARK    1  A    between atoms: C_1  and  C_2
REMARK    2  A    between atoms: C_4  and  C_5
REMARK    3  A    between atoms: N_8  and  S_9
REMARK    4  A    between atoms: S_9  and  C_12
REMARK    5  A    between atoms: C_15  and  N_16
REMARK    6  A    between atoms: C_17  and  C_18
REMARK                            x       y       z     vdW  Elec       q    Type
REMARK                         _______ _______ _______ _____ _____    ______ ____
ROOT
ATOM      1  C   UNL     1       4.126   5.494  18.093  0.00  0.00    +0.000 A 
ATOM      2  C   UNL     1       3.569   6.723  17.750  0.00  0.00    +0.000 A 
ATOM      3  C   UNL     1       2.677   7.369  18.645  0.00  0.00    +0.000 A 
ATOM      4  C   UNL     1       2.304   6.785  19.875  0.00  0.00    +0.000 A 
ATOM      5  C   UNL     1       2.853   5.530  20.161  0.00  0.00    +0.000 A 
ATOM      6  C   UNL     1       3.747   4.881  19.291  0.00  0.00    +0.000 A 
ENDROOT
BRANCH   1   7
ATOM      7  S   UNL     1       5.151   4.593  16.913  0.00  0.00    +0.000 S 
ATOM      8  O   UNL     1       4.622   3.250  16.828  0.00  0.00    +0.000 OA
ATOM      9  O   UNL     1       6.529   4.801  17.328  0.00  0.00    +0.000 OA
BRANCH   7  17
ATOM     10  C   UNL     1       9.002   5.854  12.829  0.00  0.00    +0.000 C 
ATOM     11  C   UNL     1       7.721   5.137  13.123  0.00  0.00    +0.000 A 
ATOM     12  C   UNL     1       7.278   4.129  12.290  0.00  0.00    +0.000 A 
ATOM     13  C   UNL     1       6.072   3.529  12.611  0.00  0.00    +0.000 A 
ATOM     14  C   UNL     1       5.505   2.427  11.761  0.00  0.00    +0.000 C 
ATOM     15  N   UNL     1       5.345   3.905  13.678  0.00  0.00    +0.000 NA
ATOM     16  C   UNL     1       5.874   4.874  14.443  0.00  0.00    +0.000 A 
ATOM     17  N   UNL     1       5.017   5.330  15.428  0.00  0.00    +0.000 N 
ATOM     18  N   UNL     1       7.021   5.516  14.214  0.00  0.00    +0.000 NA
ATOM     19  H   UNL     1       4.061   5.383  15.114  0.00  0.00    +0.000 HD
ENDBRANCH   7  17
ENDBRANCH   1   7
BRANCH   4  20
ATOM     20  N   UNL     1       1.489   7.441  20.862  0.00  0.00    +0.000 NA
ATOM     21  C   UNL     1       0.967   8.590  20.564  0.00  0.00    +0.000 C 
BRANCH  21  22
ATOM     22  C   UNL     1       0.273   9.486  21.498  0.00  0.00    +0.000 A 
ATOM     23  C   UNL     1       0.498   9.308  22.860  0.00  0.00    +0.000 A 
ATOM     24  N   UNL     1      -0.656   9.725  23.453  0.00  0.00    +0.000 N 
ATOM     25  C   UNL     1      -1.063  10.842  22.783  0.00  0.00    +0.000 A 
ATOM     26  C   UNL     1      -1.824  11.930  23.243  0.00  0.00    +0.000 A 
ATOM     27  C   UNL     1      -2.086  12.935  22.323  0.00  0.00    +0.000 A 
ATOM     28  C   UNL     1      -1.689  12.796  20.997  0.00  0.00    +0.000 A 
ATOM     29  C   UNL     1      -0.977  11.655  20.542  0.00  0.00    +0.000 A 
ATOM     30  C   UNL     1      -0.583  10.669  21.474  0.00  0.00    +0.000 A 
ATOM     31  H   UNL     1      -1.068   9.355  24.299  0.00  0.00    +0.000 HD
ENDBRANCH  21  22
ENDBRANCH   4  20
TORSDOF 4
ENDMDL
MODEL 7
REMARK VINA RESULT:      -8.5      1.012      1.889
REMARK  Name = 
REMARK  6 active torsions:
REMARK  status: ('A' for Active; 'I' for Inactive)
REMARK    1  A    between atoms: C_1  and  C_2
REMARK    2  A    between atoms: C_4  and  C_5
REMARK    3  A    between atoms: N_8  and  S_9
REMARK    4  A    between atoms: S_9  and  C_12
REMARK    5  A    between atoms: C_15  and  N_16
REMARK    6  A    between atoms: C_17  and  C_18
REMARK                            x       y       z     vdW  Elec       q    Type
REMARK                         _______ _______ _______ _____ _____    ______ ____
ROOT
ATOM      1  C   UNL     1       6.335   5.740  17.583  0.00  0.00    +0.000 A 
ATOM      2  C   UNL     1       5.768   6.856  16.973  0.00  0.00    +0.000 A 
ATOM      3  C   UNL     1       6.425   8.112  17.051  0.00  0.00    +0.000 A 
ATOM      4  C   UNL     1       7.633   8.279  17.761  0.00  0.00    +0.000 A 
ATOM      5  C   UNL     1       8.145   7.141  18.394  0.00  0.00    +0.000 A 
ATOM      6  C   UNL     1       7.514   5.886  18.319  0.00  0.00    +0.000 A 
ENDROOT
BRANCH   1   7
ATOM      7  S   UNL     1       5.450   4.168  17.614  0.00  0.00    +0.000 S 
ATOM      8  O   UNL     1       5.658   3.589  18.923  0.00  0.00    +0.000 OA
ATOM      9  O   UNL     1       5.871   3.440  16.428  0.00  0.00    +0.000 OA
BRANCH   7  17
ATOM     10  C   UNL     1       0.802   2.883  20.750  0.00  0.00    +0.000 C 
ATOM     11  C   UNL     1       1.582   3.993  20.118  0.00  0.00    +0.000 A 
ATOM     12  C   UNL     1       1.426   5.293  20.556  0.00  0.00    +0.000 A 
ATOM     13  C   UNL     1       2.162   6.270  19.907  0.00  0.00    +0.000 A 
ATOM     14  C   UNL     1       2.055   7.715  20.308  0.00  0.00    +0.000 C 
ATOM     15  N   UNL     1       2.989   5.986  18.885  0.00  0.00    +0.000 NA
ATOM     16  C   UNL     1       3.095   4.689  18.552  0.00  0.00    +0.000 A 
ATOM     17  N   UNL     1       3.829   4.471  17.401  0.00  0.00    +0.000 N 
ATOM     18  N   UNL     1       2.425   3.679  19.110  0.00  0.00    +0.000 NA
ATOM     19  H   UNL     1       3.662   5.174  16.699  0.00  0.00    +0.000 HD
ENDBRANCH   7  17
ENDBRANCH   1   7
BRANCH   4  20
ATOM     20  N   UNL     1       8.391   9.501  17.783  0.00  0.00    +0.000 NA
ATOM     21  C   UNL     1       8.951   9.858  18.897  0.00  0.00    +0.000 C 
BRANCH  21  22
ATOM     22  C   UNL     1       9.596  11.151  19.159  0.00  0.00    +0.000 A 
ATOM     23  C   UNL     1      10.293  11.754  18.115  0.00  0.00    +0.000 A 
ATOM     24  N   UNL     1      11.267  12.480  18.732  0.00  0.00    +0.000 N 
ATOM     25  C   UNL     1      10.699  13.049  19.834  0.00  0.00    +0.000 A 
ATOM     26  C   UNL     1      11.038  14.240  20.498  0.00  0.00    +0.000 A 
ATOM     27  C   UNL     1      10.271  14.571  21.606  0.00  0.00    +0.000 A 
ATOM     28  C   UNL     1       9.291  13.699  22.070  0.00  0.00    +0.000 A 
ATOM     29  C   UNL     1       9.012  12.468  21.417  0.00  0.00    +0.000 A 
ATOM     30  C   UNL     1       9.684  12.154  20.216  0.00  0.00    +0.000 A 
ATOM     31  H   UNL     1      12.198  12.662  18.381  0.00  0.00    +0.000 HD
ENDBRANCH  21  22
ENDBRANCH   4  20
TORSDOF 4
ENDMDL
MODEL 8
REMARK VINA RESULT:      -8.4      5.261      7.228
REMARK  Name = 
REMARK  6 active torsions:
REMARK  status: ('A' for Active; 'I' for Inactive)
REMARK    1  A    between atoms: C_1  and  C_2
REMARK    2  A    between atoms: C_4  and  C_5
REMARK    3  A    between atoms: N_8  and  S_9
REMARK    4  A    between atoms: S_9  and  C_12
REMARK    5  A    between atoms: C_15  and  N_16
REMARK    6  A    between atoms: C_17  and  C_18
REMARK                            x       y       z     vdW  Elec       q    Type
REMARK                         _______ _______ _______ _____ _____    ______ ____
ROOT
ATOM      1  C   UNL     1       2.444   4.575  19.215  0.00  0.00    +0.000 A 
ATOM      2  C   UNL     1       2.537   5.437  20.303  0.00  0.00    +0.000 A 
ATOM      3  C   UNL     1       2.398   6.836  20.109  0.00  0.00    +0.000 A 
ATOM      4  C   UNL     1       2.198   7.394  18.828  0.00  0.00    +0.000 A 
ATOM      5  C   UNL     1       2.154   6.495  17.757  0.00  0.00    +0.000 A 
ATOM      6  C   UNL     1       2.278   5.105  17.932  0.00  0.00    +0.000 A 
ENDROOT
BRANCH   1   7
ATOM      7  S   UNL     1       2.754   2.809  19.419  0.00  0.00    +0.000 S 
ATOM      8  O   UNL     1       1.728   2.108  18.678  0.00  0.00    +0.000 OA
ATOM      9  O   UNL     1       2.894   2.583  20.848  0.00  0.00    +0.000 OA
BRANCH   7  17
ATOM     10  C   UNL     1       5.589   4.877  14.862  0.00  0.00    +0.000 C 
ATOM     11  C   UNL     1       5.652   4.645  16.339  0.00  0.00    +0.000 A 
ATOM     12  C   UNL     1       6.539   5.358  17.120  0.00  0.00    +0.000 A 
ATOM     13  C   UNL     1       6.559   5.072  18.475  0.00  0.00    +0.000 A 
ATOM     14  C   UNL     1       7.493   5.792  19.406  0.00  0.00    +0.000 C 
ATOM     15  N   UNL     1       5.764   4.134  19.022  0.00  0.00    +0.000 NA
ATOM     16  C   UNL     1       4.916   3.515  18.184  0.00  0.00    +0.000 A 
ATOM     17  N   UNL     1       4.241   2.456  18.764  0.00  0.00    +0.000 N 
ATOM     18  N   UNL     1       4.828   3.715  16.868  0.00  0.00    +0.000 NA
ATOM     19  H   UNL     1       4.821   1.929  19.396  0.00  0.00    +0.000 HD
ENDBRANCH   7  17
ENDBRANCH   1   7
BRANCH   4  20
ATOM     20  N   UNL     1       1.948   8.790  18.589  0.00  0.00    +0.000 NA
ATOM     21  C   UNL     1       1.037   9.383  19.297  0.00  0.00    +0.000 C 
BRANCH  21  22
ATOM     22  C   UNL     1       0.517  10.737  19.068  0.00  0.00    +0.000 A 
ATOM     23  C   UNL     1      -0.802  10.862  18.636  0.00  0.00    +0.000 A 
ATOM     24  N   UNL     1      -0.810  12.012  17.904  0.00  0.00    +0.000 N 
ATOM     25  C   UNL     1      -0.029  12.911  18.570  0.00  0.00    +0.000 A 
ATOM     26  C   UNL     1      -0.097  14.314  18.581  0.00  0.00    +0.000 A 
ATOM     27  C   UNL     1       0.842  14.973  19.362  0.00  0.00    +0.000 A 
ATOM     28  C   UNL     1       1.847  14.258  20.007  0.00  0.00    +0.000 A 
ATOM     29  C   UNL     1       1.932  12.843  19.925  0.00  0.00    +0.000 A 
ATOM     30  C   UNL     1       0.924  12.128  19.243  0.00  0.00    +0.000 A 
ATOM     31  H   UNL     1      -1.379  12.205  17.091  0.00  0.00    +0.000 HD
ENDBRANCH  21  22
ENDBRANCH   4  20
TORSDOF 4
ENDMDL
MODEL 9
REMARK VINA RESULT:      -8.4      7.498     11.096
REMARK  Name = 
REMARK  6 active torsions:
REMARK  status: ('A' for Active; 'I' for Inactive)
REMARK    1  A    between atoms: C_1  and  C_2
REMARK    2  A    between atoms: C_4  and  C_5
REMARK    3  A    between atoms: N_8  and  S_9
REMARK    4  A    between atoms: S_9  and  C_12
REMARK    5  A    between atoms: C_15  and  N_16
REMARK    6  A    between atoms: C_17  and  C_18
REMARK                            x       y       z     vdW  Elec       q    Type
REMARK                         _______ _______ _______ _____ _____    ______ ____
ROOT
ATOM      1  C   UNL     1      -1.007  11.353  22.185  0.00  0.00    +0.000 A 
ATOM      2  C   UNL     1      -0.641  11.165  20.855  0.00  0.00    +0.000 A 
ATOM      3  C   UNL     1       0.051   9.986  20.474  0.00  0.00    +0.000 A 
ATOM      4  C   UNL     1       0.415   8.999  21.415  0.00  0.00    +0.000 A 
ATOM      5  C   UNL     1       0.066   9.249  22.747  0.00  0.00    +0.000 A 
ATOM      6  C   UNL     1      -0.629  10.406  23.141  0.00  0.00    +0.000 A 
ENDROOT
BRANCH   1   7
ATOM      7  S   UNL     1      -1.763  12.904  22.713  0.00  0.00    +0.000 S 
ATOM      8  O   UNL     1      -2.112  13.637  21.516  0.00  0.00    +0.000 OA
ATOM      9  O   UNL     1      -0.851  13.494  23.680  0.00  0.00    +0.000 OA
BRANCH   7  17
ATOM     10  C   UNL     1      -6.532  15.928  23.809  0.00  0.00    +0.000 C 
ATOM     11  C   UNL     1      -5.997  14.658  23.224  0.00  0.00    +0.000 A 
ATOM     12  C   UNL     1      -6.756  13.925  22.335  0.00  0.00    +0.000 A 
ATOM     13  C   UNL     1      -6.205  12.749  21.855  0.00  0.00    +0.000 A 
ATOM     14  C   UNL     1      -6.957  11.879  20.887  0.00  0.00    +0.000 C 
ATOM     15  N   UNL     1      -4.989  12.318  22.236  0.00  0.00    +0.000 NA
ATOM     16  C   UNL     1      -4.317  13.116  23.082  0.00  0.00    +0.000 A 
ATOM     17  N   UNL     1      -3.148  12.552  23.563  0.00  0.00    +0.000 N 
ATOM     18  N   UNL     1      -4.764  14.259  23.604  0.00  0.00    +0.000 NA
ATOM     19  H   UNL     1      -3.243  11.566  23.746  0.00  0.00    +0.000 HD
ENDBRANCH   7  17
ENDBRANCH   1   7
BRANCH   4  20
ATOM     20  N   UNL     1       1.023   7.742  21.068  0.00  0.00    +0.000 NA
ATOM     21  C   UNL     1       1.957   7.737  20.169  0.00  0.00    +0.000 C 
BRANCH  21  22
ATOM     22  C   UNL     1       2.553   6.543  19.555  0.00  0.00    +0.000 A 
ATOM     23  C   UNL     1       2.077   5.298  19.959  0.00  0.00    +0.000 A 
ATOM     24  N   UNL     1       3.142   4.462  19.803  0.00  0.00    +0.000 N 
ATOM     25  C   UNL     1       3.757   4.816  18.638  0.00  0.00    +0.000 A 
ATOM     26  C   UNL     1       4.518   4.030  17.757  0.00  0.00    +0.000 A 
ATOM     27  C   UNL     1       5.024   4.672  16.635  0.00  0.00    +0.000 A 
ATOM     28  C   UNL     1       4.855   6.044  16.473  0.00  0.00    +0.000 A 
ATOM     29  C   UNL     1       4.137   6.828  17.414  0.00  0.00    +0.000 A 
ATOM     30  C   UNL     1       3.501   6.191  18.502  0.00  0.00    +0.000 A 
ATOM     31  H   UNL     1       3.365   3.657  20.373  0.00  0.00    +0.000 HD
ENDBRANCH  21  22
ENDBRANCH   4  20
TORSDOF 4
ENDMDL
