MODEL 1
REMARK VINA RESULT:      -7.9      0.000      0.000
REMARK  Name = 
REMARK  2 active torsions:
REMARK  status: ('A' for Active; 'I' for Inactive)
REMARK    1  A    between atoms: C_9  and  C_10
REMARK    2  A    between atoms: C_12  and  C_13
REMARK                            x       y       z     vdW  Elec       q    Type
REMARK                         _______ _______ _______ _____ _____    ______ ____
ROOT
ATOM      1  C   UNL     1       5.760   4.640  16.195  0.00  0.00    +0.000 C 
ATOM      2  C   UNL     1       4.619   5.645  16.451  0.00  0.00    +0.000 C 
ATOM      3  C   UNL     1       4.204   5.621  17.944  0.00  0.00    +0.000 C 
ATOM      4  N   UNL     1       5.372   5.857  18.786  0.00  0.00    +0.000 N 
ATOM      5  C   UNL     1       6.576   5.339  18.447  0.00  0.00    +0.000 A 
ATOM      6  N   UNL     1       7.651   5.136  19.167  0.00  0.00    +0.000 NA
ATOM      7  N   UNL     1       8.520   4.427  18.364  0.00  0.00    +0.000 NA
ATOM      8  N   UNL     1       7.987   4.187  17.172  0.00  0.00    +0.000 NA
ATOM      9  N   UNL     1       6.801   4.810  17.203  0.00  0.00    +0.000 N 
ATOM     10  H   UNL     1       5.189   5.995  19.778  0.00  0.00    +0.000 HD
ENDROOT
BRANCH   1  19
ATOM     11  F   UNL     1       7.866   6.383  15.273  0.00  0.00    +0.000 F 
ATOM     12  C   UNL     1       7.373   5.488  14.407  0.00  0.00    +0.000 A 
ATOM     13  C   UNL     1       7.940   5.407  13.134  0.00  0.00    +0.000 A 
ATOM     14  C   UNL     1       7.459   4.475  12.213  0.00  0.00    +0.000 A 
ATOM     15  C   UNL     1       6.399   3.645  12.572  0.00  0.00    +0.000 A 
ATOM     16 BR   UNL     1       5.736   2.383  11.329  0.00  0.00    +0.000 Br
ATOM     17  C   UNL     1       5.834   3.742  13.847  0.00  0.00    +0.000 A 
ATOM     18  F   UNL     1       4.809   2.945  14.182  0.00  0.00    +0.000 F 
ATOM     19  C   UNL     1       6.322   4.655  14.792  0.00  0.00    +0.000 A 
ENDBRANCH   1  19
BRANCH   3  20
ATOM     20  C   UNL     1       3.453   4.343  18.308  0.00  0.00    +0.000 A 
ATOM     21  C   UNL     1       3.024   3.406  17.351  0.00  0.00    +0.000 A 
ATOM     22  C   UNL     1       2.175   2.351  17.698  0.00  0.00    +0.000 A 
ATOM     23  C   UNL     1       1.776   2.184  19.020  0.00  0.00    +0.000 A 
ATOM     24  C   UNL     1       2.250   3.059  19.992  0.00  0.00    +0.000 A 
ATOM     25 BR   UNL     1       1.748   2.807  21.798  0.00  0.00    +0.000 Br
ATOM     26  C   UNL     1       3.076   4.132  19.646  0.00  0.00    +0.000 A 
ENDBRANCH   3  20
TORSDOF 2
ENDMDL
MODEL 2
REMARK VINA RESULT:      -7.7      8.540     10.281
REMARK  Name = 
REMARK  2 active torsions:
REMARK  status: ('A' for Active; 'I' for Inactive)
REMARK    1  A    between atoms: C_9  and  C_10
REMARK    2  A    between atoms: C_12  and  C_13
REMARK                            x       y       z     vdW  Elec       q    Type
REMARK                         _______ _______ _______ _____ _____    ______ ____
ROOT
ATOM      1  C   UNL     1      -0.280  10.744  19.400  0.00  0.00    +0.000 C 
ATOM      2  C   UNL     1      -1.231  10.534  18.204  0.00  0.00    +0.000 C 
ATOM      3  C   UNL     1      -1.980  11.849  17.872  0.00  0.00    +0.000 C 
ATOM      4  N   UNL     1      -1.018  12.925  17.654  0.00  0.00    +0.000 N 
ATOM      5  C   UNL     1       0.106  12.999  18.404  0.00  0.00    +0.000 A 
ATOM      6  N   UNL     1       0.922  14.000  18.621  0.00  0.00    +0.000 NA
ATOM      7  N   UNL     1       1.800  13.573  19.596  0.00  0.00    +0.000 NA
ATOM      8  N   UNL     1       1.524  12.333  19.982  0.00  0.00    +0.000 NA
ATOM      9  N   UNL     1       0.509  11.954  19.194  0.00  0.00    +0.000 N 
ATOM     10  H   UNL     1      -1.398  13.799  17.299  0.00  0.00    +0.000 HD
ENDROOT
BRANCH   1  19
ATOM     11  F   UNL     1      -0.340   9.322  21.909  0.00  0.00    +0.000 F 
ATOM     12  C   UNL     1       0.488   8.872  20.957  0.00  0.00    +0.000 A 
ATOM     13  C   UNL     1       1.228   7.715  21.206  0.00  0.00    +0.000 A 
ATOM     14  C   UNL     1       2.089   7.212  20.229  0.00  0.00    +0.000 A 
ATOM     15  C   UNL     1       2.214   7.888  19.017  0.00  0.00    +0.000 A 
ATOM     16 BR   UNL     1       3.383   7.218  17.689  0.00  0.00    +0.000 Br
ATOM     17  C   UNL     1       1.474   9.051  18.783  0.00  0.00    +0.000 A 
ATOM     18  F   UNL     1       1.605   9.699  17.617  0.00  0.00    +0.000 F 
ATOM     19  C   UNL     1       0.586   9.554  19.744  0.00  0.00    +0.000 A 
ENDBRANCH   1  19
BRANCH   3  20
ATOM     20  C   UNL     1      -3.030  12.190  18.927  0.00  0.00    +0.000 A 
ATOM     21  C   UNL     1      -2.709  12.749  20.177  0.00  0.00    +0.000 A 
ATOM     22  C   UNL     1      -3.667  12.868  21.186  0.00  0.00    +0.000 A 
ATOM     23  C   UNL     1      -4.980  12.472  20.951  0.00  0.00    +0.000 A 
ATOM     24  C   UNL     1      -5.332  11.984  19.696  0.00  0.00    +0.000 A 
ATOM     25 BR   UNL     1      -7.125  11.490  19.357  0.00  0.00    +0.000 Br
ATOM     26  C   UNL     1      -4.370  11.837  18.692  0.00  0.00    +0.000 A 
ENDBRANCH   3  20
TORSDOF 2
ENDMDL
MODEL 3
REMARK VINA RESULT:      -7.6      8.580     10.253
REMARK  Name = 
REMARK  2 active torsions:
REMARK  status: ('A' for Active; 'I' for Inactive)
REMARK    1  A    between atoms: C_9  and  C_10
REMARK    2  A    between atoms: C_12  and  C_13
REMARK                            x       y       z     vdW  Elec       q    Type
REMARK                         _______ _______ _______ _____ _____    ______ ____
ROOT
ATOM      1  C   UNL     1      -0.553  10.498  19.163  0.00  0.00    +0.000 C 
ATOM      2  C   UNL     1      -1.261  10.239  17.818  0.00  0.00    +0.000 C 
ATOM      3  C   UNL     1      -2.152  11.449  17.436  0.00  0.00    +0.000 C 
ATOM      4  N   UNL     1      -1.354  12.670  17.434  0.00  0.00    +0.000 N 
ATOM      5  C   UNL     1      -0.386  12.855  18.361  0.00  0.00    +0.000 A 
ATOM      6  N   UNL     1       0.215  13.949  18.761  0.00  0.00    +0.000 NA
ATOM      7  N   UNL     1       0.989  13.585  19.844  0.00  0.00    +0.000 NA
ATOM      8  N   UNL     1       0.860  12.292  20.115  0.00  0.00    +0.000 NA
ATOM      9  N   UNL     1       0.054  11.825  19.152  0.00  0.00    +0.000 N 
ATOM     10  H   UNL     1      -1.811  13.502  17.067  0.00  0.00    +0.000 HD
ENDROOT
BRANCH   1  19
ATOM     11  F   UNL     1      -0.501   9.218  21.748  0.00  0.00    +0.000 F 
ATOM     12  C   UNL     1       0.385   8.809  20.832  0.00  0.00    +0.000 A 
ATOM     13  C   UNL     1       1.241   7.753  21.154  0.00  0.00    +0.000 A 
ATOM     14  C   UNL     1       2.167   7.294  20.216  0.00  0.00    +0.000 A 
ATOM     15  C   UNL     1       2.239   7.912  18.969  0.00  0.00    +0.000 A 
ATOM     16 BR   UNL     1       3.496   7.300  17.693  0.00  0.00    +0.000 Br
ATOM     17  C   UNL     1       1.384   8.973  18.662  0.00  0.00    +0.000 A 
ATOM     18  F   UNL     1       1.464   9.567  17.462  0.00  0.00    +0.000 F 
ATOM     19  C   UNL     1       0.431   9.430  19.583  0.00  0.00    +0.000 A 
ENDBRANCH   1  19
BRANCH   3  20
ATOM     20  C   UNL     1      -3.393  11.545  18.320  0.00  0.00    +0.000 A 
ATOM     21  C   UNL     1      -4.609  10.911  18.008  0.00  0.00    +0.000 A 
ATOM     22  C   UNL     1      -5.773  11.177  18.733  0.00  0.00    +0.000 A 
ATOM     23  C   UNL     1      -5.735  12.050  19.816  0.00  0.00    +0.000 A 
ATOM     24  C   UNL     1      -4.525  12.631  20.183  0.00  0.00    +0.000 A 
ATOM     25 BR   UNL     1      -4.460  13.780  21.683  0.00  0.00    +0.000 Br
ATOM     26  C   UNL     1      -3.364  12.390  19.444  0.00  0.00    +0.000 A 
ENDBRANCH   3  20
TORSDOF 2
ENDMDL
MODEL 4
REMARK VINA RESULT:      -7.6      8.253     10.449
REMARK  Name = 
REMARK  2 active torsions:
REMARK  status: ('A' for Active; 'I' for Inactive)
REMARK    1  A    between atoms: C_9  and  C_10
REMARK    2  A    between atoms: C_12  and  C_13
REMARK                            x       y       z     vdW  Elec       q    Type
REMARK                         _______ _______ _______ _____ _____    ______ ____
ROOT
ATOM      1  C   UNL     1      -1.008  10.924  18.832  0.00  0.00    +0.000 C 
ATOM      2  C   UNL     1      -0.987  10.063  20.111  0.00  0.00    +0.000 C 
ATOM      3  C   UNL     1       0.456   9.955  20.666  0.00  0.00    +0.000 C 
ATOM      4  N   UNL     1       1.009  11.289  20.868  0.00  0.00    +0.000 N 
ATOM      5  C   UNL     1       0.732  12.285  19.994  0.00  0.00    +0.000 A 
ATOM      6  N   UNL     1       1.340  13.425  19.778  0.00  0.00    +0.000 NA
ATOM      7  N   UNL     1       0.740  13.971  18.662  0.00  0.00    +0.000 NA
ATOM      8  N   UNL     1      -0.214  13.177  18.190  0.00  0.00    +0.000 NA
ATOM      9  N   UNL     1      -0.262  12.158  19.058  0.00  0.00    +0.000 N 
ATOM     10  H   UNL     1       1.902  11.334  21.355  0.00  0.00    +0.000 HD
ENDROOT
BRANCH   1  19
ATOM     11  F   UNL     1      -1.902  10.115  16.211  0.00  0.00    +0.000 F 
ATOM     12  C   UNL     1      -2.782  10.738  17.005  0.00  0.00    +0.000 A 
ATOM     13  C   UNL     1      -4.090  10.909  16.549  0.00  0.00    +0.000 A 
ATOM     14  C   UNL     1      -5.035  11.543  17.358  0.00  0.00    +0.000 A 
ATOM     15  C   UNL     1      -4.652  12.016  18.611  0.00  0.00    +0.000 A 
ATOM     16 BR   UNL     1      -5.924  12.881  19.713  0.00  0.00    +0.000 Br
ATOM     17  C   UNL     1      -3.337  11.847  19.053  0.00  0.00    +0.000 A 
ATOM     18  F   UNL     1      -2.975  12.312  20.258  0.00  0.00    +0.000 F 
ATOM     19  C   UNL     1      -2.383  11.191  18.263  0.00  0.00    +0.000 A 
ENDBRANCH   1  19
BRANCH   3  20
ATOM     20  C   UNL     1       1.338   9.067  19.792  0.00  0.00    +0.000 A 
ATOM     21  C   UNL     1       1.718   9.413  18.482  0.00  0.00    +0.000 A 
ATOM     22  C   UNL     1       2.360   8.497  17.647  0.00  0.00    +0.000 A 
ATOM     23  C   UNL     1       2.679   7.228  18.119  0.00  0.00    +0.000 A 
ATOM     24  C   UNL     1       2.376   6.892  19.435  0.00  0.00    +0.000 A 
ATOM     25 BR   UNL     1       2.851   5.186  20.096  0.00  0.00    +0.000 Br
ATOM     26  C   UNL     1       1.708   7.796  20.267  0.00  0.00    +0.000 A 
ENDBRANCH   3  20
TORSDOF 2
ENDMDL
MODEL 5
REMARK VINA RESULT:      -7.6      7.875      9.740
REMARK  Name = 
REMARK  2 active torsions:
REMARK  status: ('A' for Active; 'I' for Inactive)
REMARK    1  A    between atoms: C_9  and  C_10
REMARK    2  A    between atoms: C_12  and  C_13
REMARK                            x       y       z     vdW  Elec       q    Type
REMARK                         _______ _______ _______ _____ _____    ______ ____
ROOT
ATOM      1  C   UNL     1      -0.808  10.598  18.807  0.00  0.00    +0.000 C 
ATOM      2  C   UNL     1      -0.875   9.712  20.067  0.00  0.00    +0.000 C 
ATOM      3  C   UNL     1       0.525   9.592  20.719  0.00  0.00    +0.000 C 
ATOM      4  N   UNL     1       1.064  10.922  20.984  0.00  0.00    +0.000 N 
ATOM      5  C   UNL     1       0.848  11.934  20.112  0.00  0.00    +0.000 A 
ATOM      6  N   UNL     1       1.469  13.077  19.960  0.00  0.00    +0.000 NA
ATOM      7  N   UNL     1       0.948  13.645  18.816  0.00  0.00    +0.000 NA
ATOM      8  N   UNL     1       0.029  12.862  18.264  0.00  0.00    +0.000 NA
ATOM      9  N   UNL     1      -0.079  11.826  19.107  0.00  0.00    +0.000 N 
ATOM     10  H   UNL     1       1.920  10.956  21.533  0.00  0.00    +0.000 HD
ENDROOT
BRANCH   1  19
ATOM     11  F   UNL     1      -2.955  12.118  19.991  0.00  0.00    +0.000 F 
ATOM     12  C   UNL     1      -3.130  11.657  18.746  0.00  0.00    +0.000 A 
ATOM     13  C   UNL     1      -4.308  11.983  18.071  0.00  0.00    +0.000 A 
ATOM     14  C   UNL     1      -4.515  11.530  16.768  0.00  0.00    +0.000 A 
ATOM     15  C   UNL     1      -3.545  10.735  16.160  0.00  0.00    +0.000 A 
ATOM     16 BR   UNL     1      -3.819  10.111  14.395  0.00  0.00    +0.000 Br
ATOM     17  C   UNL     1      -2.374  10.408  16.848  0.00  0.00    +0.000 A 
ATOM     18  F   UNL     1      -1.449   9.638  16.259  0.00  0.00    +0.000 F 
ATOM     19  C   UNL     1      -2.139  10.877  18.149  0.00  0.00    +0.000 A 
ENDBRANCH   1  19
BRANCH   3  20
ATOM     20  C   UNL     1       1.467   8.720  19.891  0.00  0.00    +0.000 A 
ATOM     21  C   UNL     1       1.961   9.104  18.631  0.00  0.00    +0.000 A 
ATOM     22  C   UNL     1       2.659   8.206  17.821  0.00  0.00    +0.000 A 
ATOM     23  C   UNL     1       2.920   6.916  18.274  0.00  0.00    +0.000 A 
ATOM     24  C   UNL     1       2.501   6.542  19.547  0.00  0.00    +0.000 A 
ATOM     25 BR   UNL     1       2.895   4.806  20.185  0.00  0.00    +0.000 Br
ATOM     26  C   UNL     1       1.777   7.427  20.350  0.00  0.00    +0.000 A 
ENDBRANCH   3  20
TORSDOF 2
ENDMDL
MODEL 6
REMARK VINA RESULT:      -7.2      1.287      1.723
REMARK  Name = 
REMARK  2 active torsions:
REMARK  status: ('A' for Active; 'I' for Inactive)
REMARK    1  A    between atoms: C_9  and  C_10
REMARK    2  A    between atoms: C_12  and  C_13
REMARK                            x       y       z     vdW  Elec       q    Type
REMARK                         _______ _______ _______ _____ _____    ______ ____
ROOT
ATOM      1  C   UNL     1       5.861   5.249  15.833  0.00  0.00    +0.000 C 
ATOM      2  C   UNL     1       5.211   6.639  15.989  0.00  0.00    +0.000 C 
ATOM      3  C   UNL     1       4.910   6.929  17.481  0.00  0.00    +0.000 C 
ATOM      4  N   UNL     1       6.127   6.777  18.270  0.00  0.00    +0.000 N 
ATOM      5  C   UNL     1       7.016   5.800  17.975  0.00  0.00    +0.000 A 
ATOM      6  N   UNL     1       7.972   5.270  18.696  0.00  0.00    +0.000 NA
ATOM      7  N   UNL     1       8.453   4.202  17.967  0.00  0.00    +0.000 NA
ATOM      8  N   UNL     1       7.797   4.068  16.820  0.00  0.00    +0.000 NA
ATOM      9  N   UNL     1       6.946   5.102  16.797  0.00  0.00    +0.000 N 
ATOM     10  H   UNL     1       6.070   7.075  19.242  0.00  0.00    +0.000 HD
ENDROOT
BRANCH   1  19
ATOM     11  F   UNL     1       8.279   6.192  14.574  0.00  0.00    +0.000 F 
ATOM     12  C   UNL     1       7.503   5.349  13.881  0.00  0.00    +0.000 A 
ATOM     13  C   UNL     1       7.932   4.929  12.620  0.00  0.00    +0.000 A 
ATOM     14  C   UNL     1       7.153   4.039  11.878  0.00  0.00    +0.000 A 
ATOM     15  C   UNL     1       5.940   3.595  12.401  0.00  0.00    +0.000 A 
ATOM     16 BR   UNL     1       4.874   2.394  11.400  0.00  0.00    +0.000 Br
ATOM     17  C   UNL     1       5.518   4.030  13.660  0.00  0.00    +0.000 A 
ATOM     18  F   UNL     1       4.346   3.603  14.153  0.00  0.00    +0.000 F 
ATOM     19  C   UNL     1       6.300   4.903  14.429  0.00  0.00    +0.000 A 
ENDBRANCH   1  19
BRANCH   3  20
ATOM     20  C   UNL     1       3.749   6.086  18.003  0.00  0.00    +0.000 A 
ATOM     21  C   UNL     1       2.810   6.566  18.936  0.00  0.00    +0.000 A 
ATOM     22  C   UNL     1       1.882   5.712  19.535  0.00  0.00    +0.000 A 
ATOM     23  C   UNL     1       1.840   4.367  19.179  0.00  0.00    +0.000 A 
ATOM     24  C   UNL     1       2.713   3.891  18.205  0.00  0.00    +0.000 A 
ATOM     25 BR   UNL     1       2.628   2.075  17.685  0.00  0.00    +0.000 Br
ATOM     26  C   UNL     1       3.663   4.735  17.624  0.00  0.00    +0.000 A 
ENDBRANCH   3  20
TORSDOF 2
ENDMDL
MODEL 7
REMARK VINA RESULT:      -7.2      3.726      4.983
REMARK  Name = 
REMARK  2 active torsions:
REMARK  status: ('A' for Active; 'I' for Inactive)
REMARK    1  A    between atoms: C_9  and  C_10
REMARK    2  A    between atoms: C_12  and  C_13
REMARK                            x       y       z     vdW  Elec       q    Type
REMARK                         _______ _______ _______ _____ _____    ______ ____
ROOT
ATOM      1  C   UNL     1       4.003   5.700  18.225  0.00  0.00    +0.000 C 
ATOM      2  C   UNL     1       4.051   6.253  19.663  0.00  0.00    +0.000 C 
ATOM      3  C   UNL     1       2.616   6.477  20.204  0.00  0.00    +0.000 C 
ATOM      4  N   UNL     1       1.848   5.242  20.094  0.00  0.00    +0.000 N 
ATOM      5  C   UNL     1       2.010   4.429  19.024  0.00  0.00    +0.000 A 
ATOM      6  N   UNL     1       1.241   3.481  18.549  0.00  0.00    +0.000 NA
ATOM      7  N   UNL     1       1.805   3.097  17.349  0.00  0.00    +0.000 NA
ATOM      8  N   UNL     1       2.896   3.804  17.083  0.00  0.00    +0.000 NA
ATOM      9  N   UNL     1       3.059   4.589  18.157  0.00  0.00    +0.000 N 
ATOM     10  H   UNL     1       0.935   5.242  20.544  0.00  0.00    +0.000 HD
ENDROOT
BRANCH   1  19
ATOM     11  F   UNL     1       6.337   4.952  19.748  0.00  0.00    +0.000 F 
ATOM     12  C   UNL     1       6.433   4.939  18.412  0.00  0.00    +0.000 A 
ATOM     13  C   UNL     1       7.629   4.512  17.832  0.00  0.00    +0.000 A 
ATOM     14  C   UNL     1       7.757   4.473  16.443  0.00  0.00    +0.000 A 
ATOM     15  C   UNL     1       6.689   4.883  15.648  0.00  0.00    +0.000 A 
ATOM     16 BR   UNL     1       6.854   4.840  13.763  0.00  0.00    +0.000 Br
ATOM     17  C   UNL     1       5.500   5.317  16.240  0.00  0.00    +0.000 A 
ATOM     18  F   UNL     1       4.479   5.716  15.468  0.00  0.00    +0.000 F 
ATOM     19  C   UNL     1       5.346   5.338  17.633  0.00  0.00    +0.000 A 
ENDBRANCH   1  19
BRANCH   3  20
ATOM     20  C   UNL     1       1.934   7.668  19.535  0.00  0.00    +0.000 A 
ATOM     21  C   UNL     1       2.131   8.007  18.184  0.00  0.00    +0.000 A 
ATOM     22  C   UNL     1       1.647   9.208  17.660  0.00  0.00    +0.000 A 
ATOM     23  C   UNL     1       0.913  10.074  18.464  0.00  0.00    +0.000 A 
ATOM     24  C   UNL     1       0.646   9.721  19.783  0.00  0.00    +0.000 A 
ATOM     25 BR   UNL     1      -0.391  10.872  20.865  0.00  0.00    +0.000 Br
ATOM     26  C   UNL     1       1.153   8.534  20.321  0.00  0.00    +0.000 A 
ENDBRANCH   3  20
TORSDOF 2
ENDMDL
MODEL 8
REMARK VINA RESULT:      -7.1     12.505     14.974
REMARK  Name = 
REMARK  2 active torsions:
REMARK  status: ('A' for Active; 'I' for Inactive)
REMARK    1  A    between atoms: C_9  and  C_10
REMARK    2  A    between atoms: C_12  and  C_13
REMARK                            x       y       z     vdW  Elec       q    Type
REMARK                         _______ _______ _______ _____ _____    ______ ____
ROOT
ATOM      1  C   UNL     1      -5.547  12.561  20.012  0.00  0.00    +0.000 C 
ATOM      2  C   UNL     1      -5.578  13.197  18.608  0.00  0.00    +0.000 C 
ATOM      3  C   UNL     1      -5.489  12.100  17.516  0.00  0.00    +0.000 C 
ATOM      4  N   UNL     1      -6.546  11.114  17.719  0.00  0.00    +0.000 N 
ATOM      5  C   UNL     1      -6.906  10.745  18.970  0.00  0.00    +0.000 A 
ATOM      6  N   UNL     1      -7.559   9.692  19.395  0.00  0.00    +0.000 NA
ATOM      7  N   UNL     1      -7.496   9.734  20.773  0.00  0.00    +0.000 NA
ATOM      8  N   UNL     1      -6.806  10.787  21.191  0.00  0.00    +0.000 NA
ATOM      9  N   UNL     1      -6.494  11.452  20.071  0.00  0.00    +0.000 N 
ATOM     10  H   UNL     1      -6.661  10.424  16.980  0.00  0.00    +0.000 HD
ENDROOT
BRANCH   1  19
ATOM     11  F   UNL     1      -7.915  14.146  20.463  0.00  0.00    +0.000 F 
ATOM     12  C   UNL     1      -6.922  14.240  21.357  0.00  0.00    +0.000 A 
ATOM     13  C   UNL     1      -7.108  15.048  22.480  0.00  0.00    +0.000 A 
ATOM     14  C   UNL     1      -6.097  15.157  23.437  0.00  0.00    +0.000 A 
ATOM     15  C   UNL     1      -4.901  14.468  23.248  0.00  0.00    +0.000 A 
ATOM     16 BR   UNL     1      -3.524  14.613  24.536  0.00  0.00    +0.000 Br
ATOM     17  C   UNL     1      -4.724  13.669  22.115  0.00  0.00    +0.000 A 
ATOM     18  F   UNL     1      -3.568  13.014  21.936  0.00  0.00    +0.000 F 
ATOM     19  C   UNL     1      -5.738  13.529  21.157  0.00  0.00    +0.000 A 
ENDBRANCH   1  19
BRANCH   3  20
ATOM     20  C   UNL     1      -4.097  11.479  17.443  0.00  0.00    +0.000 A 
ATOM     21  C   UNL     1      -3.699  10.605  16.415  0.00  0.00    +0.000 A 
ATOM     22  C   UNL     1      -2.491   9.907  16.483  0.00  0.00    +0.000 A 
ATOM     23  C   UNL     1      -1.632  10.103  17.559  0.00  0.00    +0.000 A 
ATOM     24  C   UNL     1      -1.977  11.018  18.550  0.00  0.00    +0.000 A 
ATOM     25 BR   UNL     1      -0.790  11.324  19.990  0.00  0.00    +0.000 Br
ATOM     26  C   UNL     1      -3.197  11.698  18.501  0.00  0.00    +0.000 A 
ENDBRANCH   3  20
TORSDOF 2
ENDMDL
MODEL 9
REMARK VINA RESULT:      -7.0      8.815     10.933
REMARK  Name = 
REMARK  2 active torsions:
REMARK  status: ('A' for Active; 'I' for Inactive)
REMARK    1  A    between atoms: C_9  and  C_10
REMARK    2  A    between atoms: C_12  and  C_13
REMARK                            x       y       z     vdW  Elec       q    Type
REMARK                         _______ _______ _______ _____ _____    ______ ____
ROOT
ATOM      1  C   UNL     1       0.189  11.136  19.423  0.00  0.00    +0.000 C 
ATOM      2  C   UNL     1      -0.056  12.015  20.666  0.00  0.00    +0.000 C 
ATOM      3  C   UNL     1      -0.837  13.295  20.276  0.00  0.00    +0.000 C 
ATOM      4  N   UNL     1      -2.069  12.931  19.584  0.00  0.00    +0.000 N 
ATOM      5  C   UNL     1      -2.089  11.883  18.728  0.00  0.00    +0.000 A 
ATOM      6  N   UNL     1      -2.936  11.572  17.779  0.00  0.00    +0.000 NA
ATOM      7  N   UNL     1      -2.382  10.500  17.109  0.00  0.00    +0.000 NA
ATOM      8  N   UNL     1      -1.208  10.163  17.628  0.00  0.00    +0.000 NA
ATOM      9  N   UNL     1      -1.056  10.983  18.676  0.00  0.00    +0.000 N 
ATOM     10  H   UNL     1      -2.722  13.691  19.403  0.00  0.00    +0.000 HD
ENDROOT
BRANCH   1  19
ATOM     11  F   UNL     1      -0.267   9.520  21.769  0.00  0.00    +0.000 F 
ATOM     12  C   UNL     1       0.560   9.039  20.832  0.00  0.00    +0.000 A 
ATOM     13  C   UNL     1       1.106   7.767  21.011  0.00  0.00    +0.000 A 
ATOM     14  C   UNL     1       1.960   7.231  20.046  0.00  0.00    +0.000 A 
ATOM     15  C   UNL     1       2.274   7.987  18.918  0.00  0.00    +0.000 A 
ATOM     16 BR   UNL     1       3.436   7.272  17.607  0.00  0.00    +0.000 Br
ATOM     17  C   UNL     1       1.728   9.263  18.754  0.00  0.00    +0.000 A 
ATOM     18  F   UNL     1       2.040   9.986  17.669  0.00  0.00    +0.000 F 
ATOM     19  C   UNL     1       0.848   9.804  19.702  0.00  0.00    +0.000 A 
ENDBRANCH   1  19
BRANCH   3  20
ATOM     20  C   UNL     1       0.027  14.273  19.484  0.00  0.00    +0.000 A 
ATOM     21  C   UNL     1       1.416  14.114  19.323  0.00  0.00    +0.000 A 
ATOM     22  C   UNL     1       2.201  15.124  18.761  0.00  0.00    +0.000 A 
ATOM     23  C   UNL     1       1.607  16.296  18.304  0.00  0.00    +0.000 A 
ATOM     24  C   UNL     1       0.226  16.440  18.389  0.00  0.00    +0.000 A 
ATOM     25 BR   UNL     1      -0.590  18.011  17.726  0.00  0.00    +0.000 Br
ATOM     26  C   UNL     1      -0.561  15.446  18.977  0.00  0.00    +0.000 A 
ENDBRANCH   3  20
TORSDOF 2
ENDMDL
