MODEL 1
REMARK VINA RESULT:      -8.1      0.000      0.000
REMARK  Name = 
REMARK  12 active torsions:
REMARK  status: ('A' for Active; 'I' for Inactive)
REMARK    1  A    between atoms: C_1  and  C_2
REMARK    2  A    between atoms: C_2  and  C_3
REMARK    3  A    between atoms: C_3  and  C_4
REMARK    4  A    between atoms: C_4  and  C_5
REMARK    5  A    between atoms: C_5  and  C_6
REMARK    6  A    between atoms: C_6  and  C_7
REMARK    7  A    between atoms: C_7  and  O_8
REMARK    8  A    between atoms: C_7  and  C_9
REMARK    9  A    between atoms: C_7  and  C_15
REMARK   10  A    between atoms: C_15  and  C_16
REMARK   11  A    between atoms: C_15  and  C_23
REMARK   12  A    between atoms: C_16  and  N_17
REMARK                            x       y       z     vdW  Elec       q    Type
REMARK                         _______ _______ _______ _____ _____    ______ ____
ROOT
ATOM      1  C   UNL     1       5.247   4.891  17.243  0.00  0.00    +0.000 C 
ENDROOT
BRANCH   1   2
ATOM      2  C   UNL     1       6.381   5.823  17.651  0.00  0.00    +0.000 A 
ATOM      3  C   UNL     1       7.171   5.533  18.775  0.00  0.00    +0.000 A 
ATOM      4  C   UNL     1       8.145   6.393  19.230  0.00  0.00    +0.000 A 
ATOM      5  C   UNL     1       8.312   7.620  18.593  0.00  0.00    +0.000 A 
ATOM      6  C   UNL     1       7.514   7.961  17.507  0.00  0.00    +0.000 A 
ATOM      7  C   UNL     1       6.571   7.058  17.023  0.00  0.00    +0.000 A 
ENDBRANCH   1   2
BRANCH   1   8
ATOM      8  O   UNL     1       5.704   3.520  17.274  0.00  0.00    +0.000 OA
ATOM      9  H   UNL     1       6.651   3.527  17.544  0.00  0.00    +0.000 HD
ENDBRANCH   1   8
BRANCH   1  10
ATOM     10  C   UNL     1       4.994   5.176  15.720  0.00  0.00    +0.000 C 
BRANCH  10  11
ATOM     11  C   UNL     1       5.340   4.126  14.641  0.00  0.00    +0.000 C 
BRANCH  11  12
ATOM     12  C   UNL     1       6.680   4.524  13.982  0.00  0.00    +0.000 C 
BRANCH  12  13
ATOM     13  C   UNL     1       6.769   3.946  12.580  0.00  0.00    +0.000 C 
BRANCH  13  15
ATOM     14  C   UNL     1       5.796   1.959  11.462  0.00  0.00    +0.000 C 
ATOM     15  C   UNL     1       5.470   3.284  12.129  0.00  0.00    +0.000 C 
ENDBRANCH  13  15
ENDBRANCH  12  13
ENDBRANCH  11  12
ENDBRANCH  10  11
ENDBRANCH   1  10
BRANCH   1  16
ATOM     16  C   UNL     1       3.910   4.942  18.215  0.00  0.00    +0.000 C 
BRANCH  16  17
ATOM     17  C   UNL     1       3.158   6.288  18.421  0.00  0.00    +0.000 A 
ATOM     18  C   UNL     1       3.035   7.266  17.424  0.00  0.00    +0.000 A 
ATOM     19  C   UNL     1       2.532   8.548  17.622  0.00  0.00    +0.000 A 
ATOM     20  C   UNL     1       1.961   8.855  18.830  0.00  0.00    +0.000 A 
ATOM     21  C   UNL     1       1.921   7.880  19.820  0.00  0.00    +0.000 A 
ATOM     22  C   UNL     1       2.522   6.624  19.626  0.00  0.00    +0.000 A 
ENDBRANCH  16  17
BRANCH  16  23
ATOM     23  C   UNL     1       3.983   4.035  19.565  0.00  0.00    +0.000 C 
BRANCH  23  24
ATOM     24  N   UNL     1       3.510   2.613  19.699  0.00  0.00    +0.000 NA
ATOM     25  C   UNL     1       2.205   2.343  19.059  0.00  0.00    +0.000 C 
ATOM     26  C   UNL     1       1.027   3.128  19.671  0.00  0.00    +0.000 C 
ATOM     27  O   UNL     1       0.904   2.900  21.087  0.00  0.00    +0.000 OA
ATOM     28  C   UNL     1       2.154   3.123  21.761  0.00  0.00    +0.000 C 
ATOM     29  C   UNL     1       3.256   2.253  21.128  0.00  0.00    +0.000 C 
ENDBRANCH  23  24
ENDBRANCH  16  23
ENDBRANCH   1  16
TORSDOF 11
ENDMDL
MODEL 2
REMARK VINA RESULT:      -8.0      0.391      1.332
REMARK  Name = 
REMARK  12 active torsions:
REMARK  status: ('A' for Active; 'I' for Inactive)
REMARK    1  A    between atoms: C_1  and  C_2
REMARK    2  A    between atoms: C_2  and  C_3
REMARK    3  A    between atoms: C_3  and  C_4
REMARK    4  A    between atoms: C_4  and  C_5
REMARK    5  A    between atoms: C_5  and  C_6
REMARK    6  A    between atoms: C_6  and  C_7
REMARK    7  A    between atoms: C_7  and  O_8
REMARK    8  A    between atoms: C_7  and  C_9
REMARK    9  A    between atoms: C_7  and  C_15
REMARK   10  A    between atoms: C_15  and  C_16
REMARK   11  A    between atoms: C_15  and  C_23
REMARK   12  A    between atoms: C_16  and  N_17
REMARK                            x       y       z     vdW  Elec       q    Type
REMARK                         _______ _______ _______ _____ _____    ______ ____
ROOT
ATOM      1  C   UNL     1       5.306   5.136  17.178  0.00  0.00    +0.000 C 
ENDROOT
BRANCH   1   2
ATOM      2  C   UNL     1       6.359   6.084  17.738  0.00  0.00    +0.000 A 
ATOM      3  C   UNL     1       6.641   7.298  17.091  0.00  0.00    +0.000 A 
ATOM      4  C   UNL     1       7.647   8.138  17.512  0.00  0.00    +0.000 A 
ATOM      5  C   UNL     1       8.453   7.744  18.576  0.00  0.00    +0.000 A 
ATOM      6  C   UNL     1       8.234   6.527  19.210  0.00  0.00    +0.000 A 
ATOM      7  C   UNL     1       7.177   5.712  18.810  0.00  0.00    +0.000 A 
ENDBRANCH   1   2
BRANCH   1   8
ATOM      8  O   UNL     1       5.799   3.778  17.217  0.00  0.00    +0.000 OA
ATOM      9  H   UNL     1       5.074   3.188  16.905  0.00  0.00    +0.000 HD
ENDBRANCH   1   8
BRANCH   1  10
ATOM     10  C   UNL     1       5.213   5.467  15.646  0.00  0.00    +0.000 C 
BRANCH  10  11
ATOM     11  C   UNL     1       5.412   4.368  14.577  0.00  0.00    +0.000 C 
BRANCH  11  12
ATOM     12  C   UNL     1       6.773   4.599  13.885  0.00  0.00    +0.000 C 
BRANCH  12  13
ATOM     13  C   UNL     1       6.796   3.915  12.528  0.00  0.00    +0.000 C 
BRANCH  13  15
ATOM     14  C   UNL     1       5.699   1.962  11.466  0.00  0.00    +0.000 C 
ATOM     15  C   UNL     1       5.453   3.292  12.156  0.00  0.00    +0.000 C 
ENDBRANCH  13  15
ENDBRANCH  12  13
ENDBRANCH  11  12
ENDBRANCH  10  11
ENDBRANCH   1  10
BRANCH   1  16
ATOM     16  C   UNL     1       3.869   5.117  17.997  0.00  0.00    +0.000 C 
BRANCH  16  17
ATOM     17  C   UNL     1       3.166   6.459  18.349  0.00  0.00    +0.000 A 
ATOM     18  C   UNL     1       2.628   6.743  19.612  0.00  0.00    +0.000 A 
ATOM     19  C   UNL     1       1.838   7.848  19.912  0.00  0.00    +0.000 A 
ATOM     20  C   UNL     1       1.688   8.830  18.968  0.00  0.00    +0.000 A 
ATOM     21  C   UNL     1       2.316   8.678  17.736  0.00  0.00    +0.000 A 
ATOM     22  C   UNL     1       3.028   7.507  17.426  0.00  0.00    +0.000 A 
ENDBRANCH  16  17
BRANCH  16  23
ATOM     23  C   UNL     1       3.740   3.997  19.171  0.00  0.00    +0.000 C 
BRANCH  23  24
ATOM     24  N   UNL     1       2.953   2.717  19.088  0.00  0.00    +0.000 NA
ATOM     25  C   UNL     1       1.503   2.909  18.875  0.00  0.00    +0.000 C 
ATOM     26  C   UNL     1       0.788   3.647  20.025  0.00  0.00    +0.000 C 
ATOM     27  O   UNL     1       0.987   2.994  21.293  0.00  0.00    +0.000 OA
ATOM     28  C   UNL     1       2.383   2.759  21.543  0.00  0.00    +0.000 C 
ATOM     29  C   UNL     1       2.999   1.961  20.378  0.00  0.00    +0.000 C 
ENDBRANCH  23  24
ENDBRANCH  16  23
ENDBRANCH   1  16
TORSDOF 11
ENDMDL
MODEL 3
REMARK VINA RESULT:      -7.9      0.578      1.085
REMARK  Name = 
REMARK  12 active torsions:
REMARK  status: ('A' for Active; 'I' for Inactive)
REMARK    1  A    between atoms: C_1  and  C_2
REMARK    2  A    between atoms: C_2  and  C_3
REMARK    3  A    between atoms: C_3  and  C_4
REMARK    4  A    between atoms: C_4  and  C_5
REMARK    5  A    between atoms: C_5  and  C_6
REMARK    6  A    between atoms: C_6  and  C_7
REMARK    7  A    between atoms: C_7  and  O_8
REMARK    8  A    between atoms: C_7  and  C_9
REMARK    9  A    between atoms: C_7  and  C_15
REMARK   10  A    between atoms: C_15  and  C_16
REMARK   11  A    between atoms: C_15  and  C_23
REMARK   12  A    between atoms: C_16  and  N_17
REMARK                            x       y       z     vdW  Elec       q    Type
REMARK                         _______ _______ _______ _____ _____    ______ ____
ROOT
ATOM      1  C   UNL     1       5.205   4.774  17.427  0.00  0.00    +0.000 C 
ENDROOT
BRANCH   1   2
ATOM      2  C   UNL     1       6.342   5.740  17.737  0.00  0.00    +0.000 A 
ATOM      3  C   UNL     1       7.164   5.535  18.857  0.00  0.00    +0.000 A 
ATOM      4  C   UNL     1       8.143   6.431  19.222  0.00  0.00    +0.000 A 
ATOM      5  C   UNL     1       8.282   7.611  18.496  0.00  0.00    +0.000 A 
ATOM      6  C   UNL     1       7.453   7.870  17.411  0.00  0.00    +0.000 A 
ATOM      7  C   UNL     1       6.504   6.928  17.018  0.00  0.00    +0.000 A 
ENDBRANCH   1   2
BRANCH   1   8
ATOM      8  O   UNL     1       5.640   3.415  17.656  0.00  0.00    +0.000 OA
ATOM      9  H   UNL     1       5.016   2.818  17.183  0.00  0.00    +0.000 HD
ENDBRANCH   1   8
BRANCH   1  10
ATOM     10  C   UNL     1       4.995   4.853  15.874  0.00  0.00    +0.000 C 
BRANCH  10  11
ATOM     11  C   UNL     1       5.926   4.092  14.901  0.00  0.00    +0.000 C 
BRANCH  11  12
ATOM     12  C   UNL     1       5.341   4.203  13.476  0.00  0.00    +0.000 C 
BRANCH  12  13
ATOM     13  C   UNL     1       6.211   3.443  12.489  0.00  0.00    +0.000 C 
BRANCH  13  15
ATOM     14  C   UNL     1       6.388   1.342  11.185  0.00  0.00    +0.000 C 
ATOM     15  C   UNL     1       5.429   2.406  11.688  0.00  0.00    +0.000 C 
ENDBRANCH  13  15
ENDBRANCH  12  13
ENDBRANCH  11  12
ENDBRANCH  10  11
ENDBRANCH   1  10
BRANCH   1  16
ATOM     16  C   UNL     1       3.844   4.972  18.346  0.00  0.00    +0.000 C 
BRANCH  16  17
ATOM     17  C   UNL     1       3.198   6.380  18.473  0.00  0.00    +0.000 A 
ATOM     18  C   UNL     1       2.540   6.830  19.626  0.00  0.00    +0.000 A 
ATOM     19  C   UNL     1       1.798   8.004  19.715  0.00  0.00    +0.000 A 
ATOM     20  C   UNL     1       1.824   8.884  18.665  0.00  0.00    +0.000 A 
ATOM     21  C   UNL     1       2.577   8.564  17.540  0.00  0.00    +0.000 A 
ATOM     22  C   UNL     1       3.239   7.328  17.439  0.00  0.00    +0.000 A 
ENDBRANCH  16  17
BRANCH  16  23
ATOM     23  C   UNL     1       3.796   4.117  19.731  0.00  0.00    +0.000 C 
BRANCH  23  24
ATOM     24  N   UNL     1       3.417   2.666  19.860  0.00  0.00    +0.000 NA
ATOM     25  C   UNL     1       2.576   2.157  18.756  0.00  0.00    +0.000 C 
ATOM     26  C   UNL     1       1.196   2.836  18.649  0.00  0.00    +0.000 C 
ATOM     27  O   UNL     1       0.452   2.745  19.878  0.00  0.00    +0.000 OA
ATOM     28  C   UNL     1       1.232   3.205  20.994  0.00  0.00    +0.000 C 
ATOM     29  C   UNL     1       2.561   2.429  21.063  0.00  0.00    +0.000 C 
ENDBRANCH  23  24
ENDBRANCH  16  23
ENDBRANCH   1  16
TORSDOF 11
ENDMDL
MODEL 4
REMARK VINA RESULT:      -7.7      0.907      1.308
REMARK  Name = 
REMARK  12 active torsions:
REMARK  status: ('A' for Active; 'I' for Inactive)
REMARK    1  A    between atoms: C_1  and  C_2
REMARK    2  A    between atoms: C_2  and  C_3
REMARK    3  A    between atoms: C_3  and  C_4
REMARK    4  A    between atoms: C_4  and  C_5
REMARK    5  A    between atoms: C_5  and  C_6
REMARK    6  A    between atoms: C_6  and  C_7
REMARK    7  A    between atoms: C_7  and  O_8
REMARK    8  A    between atoms: C_7  and  C_9
REMARK    9  A    between atoms: C_7  and  C_15
REMARK   10  A    between atoms: C_15  and  C_16
REMARK   11  A    between atoms: C_15  and  C_23
REMARK   12  A    between atoms: C_16  and  N_17
REMARK                            x       y       z     vdW  Elec       q    Type
REMARK                         _______ _______ _______ _____ _____    ______ ____
ROOT
ATOM      1  C   UNL     1       5.766   4.983  16.873  0.00  0.00    +0.000 C 
ENDROOT
BRANCH   1   2
ATOM      2  C   UNL     1       6.752   5.996  17.439  0.00  0.00    +0.000 A 
ATOM      3  C   UNL     1       7.455   5.721  18.623  0.00  0.00    +0.000 A 
ATOM      4  C   UNL     1       8.286   6.645  19.216  0.00  0.00    +0.000 A 
ATOM      5  C   UNL     1       8.385   7.917  18.659  0.00  0.00    +0.000 A 
ATOM      6  C   UNL     1       7.666   8.241  17.515  0.00  0.00    +0.000 A 
ATOM      7  C   UNL     1       6.873   7.278  16.893  0.00  0.00    +0.000 A 
ENDBRANCH   1   2
BRANCH   1   8
ATOM      8  O   UNL     1       6.356   3.664  16.887  0.00  0.00    +0.000 OA
ATOM      9  H   UNL     1       5.786   3.087  17.446  0.00  0.00    +0.000 HD
ENDBRANCH   1   8
BRANCH   1  10
ATOM     10  C   UNL     1       5.636   5.327  15.347  0.00  0.00    +0.000 C 
BRANCH  10  11
ATOM     11  C   UNL     1       5.122   4.282  14.331  0.00  0.00    +0.000 C 
BRANCH  11  12
ATOM     12  C   UNL     1       6.277   3.923  13.370  0.00  0.00    +0.000 C 
BRANCH  12  13
ATOM     13  C   UNL     1       5.745   3.161  12.168  0.00  0.00    +0.000 C 
BRANCH  13  15
ATOM     14  C   UNL     1       3.591   2.911  10.968  0.00  0.00    +0.000 C 
ATOM     15  C   UNL     1       4.634   3.910  11.438  0.00  0.00    +0.000 C 
ENDBRANCH  13  15
ENDBRANCH  12  13
ENDBRANCH  11  12
ENDBRANCH  10  11
ENDBRANCH   1  10
BRANCH   1  16
ATOM     16  C   UNL     1       4.341   4.847  17.703  0.00  0.00    +0.000 C 
BRANCH  16  17
ATOM     17  C   UNL     1       3.584   6.131  18.146  0.00  0.00    +0.000 A 
ATOM     18  C   UNL     1       3.013   6.293  19.416  0.00  0.00    +0.000 A 
ATOM     19  C   UNL     1       2.179   7.343  19.788  0.00  0.00    +0.000 A 
ATOM     20  C   UNL     1       2.010   8.392  18.922  0.00  0.00    +0.000 A 
ATOM     21  C   UNL     1       2.665   8.361  17.695  0.00  0.00    +0.000 A 
ATOM     22  C   UNL     1       3.425   7.245  17.307  0.00  0.00    +0.000 A 
ENDBRANCH  16  17
BRANCH  16  23
ATOM     23  C   UNL     1       4.277   3.651  18.804  0.00  0.00    +0.000 C 
BRANCH  23  24
ATOM     24  N   UNL     1       3.565   2.335  18.638  0.00  0.00    +0.000 NA
ATOM     25  C   UNL     1       2.368   2.397  17.773  0.00  0.00    +0.000 C 
ATOM     26  C   UNL     1       1.242   3.299  18.318  0.00  0.00    +0.000 C 
ATOM     27  O   UNL     1       0.836   2.916  19.645  0.00  0.00    +0.000 OA
ATOM     28  C   UNL     1       1.966   2.814  20.526  0.00  0.00    +0.000 C 
ATOM     29  C   UNL     1       3.009   1.845  19.936  0.00  0.00    +0.000 C 
ENDBRANCH  23  24
ENDBRANCH  16  23
ENDBRANCH   1  16
TORSDOF 11
ENDMDL
MODEL 5
REMARK VINA RESULT:      -7.6      0.680      1.151
REMARK  Name = 
REMARK  12 active torsions:
REMARK  status: ('A' for Active; 'I' for Inactive)
REMARK    1  A    between atoms: C_1  and  C_2
REMARK    2  A    between atoms: C_2  and  C_3
REMARK    3  A    between atoms: C_3  and  C_4
REMARK    4  A    between atoms: C_4  and  C_5
REMARK    5  A    between atoms: C_5  and  C_6
REMARK    6  A    between atoms: C_6  and  C_7
REMARK    7  A    between atoms: C_7  and  O_8
REMARK    8  A    between atoms: C_7  and  C_9
REMARK    9  A    between atoms: C_7  and  C_15
REMARK   10  A    between atoms: C_15  and  C_16
REMARK   11  A    between atoms: C_15  and  C_23
REMARK   12  A    between atoms: C_16  and  N_17
REMARK                            x       y       z     vdW  Elec       q    Type
REMARK                         _______ _______ _______ _____ _____    ______ ____
ROOT
ATOM      1  C   UNL     1       5.174   5.023  17.460  0.00  0.00    +0.000 C 
ENDROOT
BRANCH   1   2
ATOM      2  C   UNL     1       6.248   6.020  17.878  0.00  0.00    +0.000 A 
ATOM      3  C   UNL     1       6.405   7.230  17.183  0.00  0.00    +0.000 A 
ATOM      4  C   UNL     1       7.419   8.115  17.471  0.00  0.00    +0.000 A 
ATOM      5  C   UNL     1       8.359   7.772  18.439  0.00  0.00    +0.000 A 
ATOM      6  C   UNL     1       8.263   6.560  19.113  0.00  0.00    +0.000 A 
ATOM      7  C   UNL     1       7.199   5.699  18.852  0.00  0.00    +0.000 A 
ENDBRANCH   1   2
BRANCH   1   8
ATOM      8  O   UNL     1       5.692   3.677  17.554  0.00  0.00    +0.000 OA
ATOM      9  H   UNL     1       5.048   3.077  17.110  0.00  0.00    +0.000 HD
ENDBRANCH   1   8
BRANCH   1  10
ATOM     10  C   UNL     1       4.967   5.246  15.920  0.00  0.00    +0.000 C 
BRANCH  10  11
ATOM     11  C   UNL     1       6.154   5.171  14.934  0.00  0.00    +0.000 C 
BRANCH  11  12
ATOM     12  C   UNL     1       6.295   3.712  14.448  0.00  0.00    +0.000 C 
BRANCH  12  13
ATOM     13  C   UNL     1       6.142   3.642  12.937  0.00  0.00    +0.000 C 
BRANCH  13  15
ATOM     14  C   UNL     1       4.520   2.940  11.200  0.00  0.00    +0.000 C 
ATOM     15  C   UNL     1       4.688   3.731  12.485  0.00  0.00    +0.000 C 
ENDBRANCH  13  15
ENDBRANCH  12  13
ENDBRANCH  11  12
ENDBRANCH  10  11
ENDBRANCH   1  10
BRANCH   1  16
ATOM     16  C   UNL     1       3.799   5.042  18.380  0.00  0.00    +0.000 C 
BRANCH  16  17
ATOM     17  C   UNL     1       3.020   6.374  18.571  0.00  0.00    +0.000 A 
ATOM     18  C   UNL     1       2.854   7.327  17.556  0.00  0.00    +0.000 A 
ATOM     19  C   UNL     1       2.324   8.601  17.737  0.00  0.00    +0.000 A 
ATOM     20  C   UNL     1       1.769   8.921  18.949  0.00  0.00    +0.000 A 
ATOM     21  C   UNL     1       1.772   7.966  19.961  0.00  0.00    +0.000 A 
ATOM     22  C   UNL     1       2.400   6.722  19.781  0.00  0.00    +0.000 A 
ENDBRANCH  16  17
BRANCH  16  23
ATOM     23  C   UNL     1       3.834   4.120  19.721  0.00  0.00    +0.000 C 
BRANCH  23  24
ATOM     24  N   UNL     1       3.432   2.672  19.807  0.00  0.00    +0.000 NA
ATOM     25  C   UNL     1       2.617   2.199  18.668  0.00  0.00    +0.000 C 
ATOM     26  C   UNL     1       1.250   2.899  18.536  0.00  0.00    +0.000 C 
ATOM     27  O   UNL     1       0.469   2.792  19.741  0.00  0.00    +0.000 OA
ATOM     28  C   UNL     1       1.222   3.216  20.889  0.00  0.00    +0.000 C 
ATOM     29  C   UNL     1       2.538   2.420  20.979  0.00  0.00    +0.000 C 
ENDBRANCH  23  24
ENDBRANCH  16  23
ENDBRANCH   1  16
TORSDOF 11
ENDMDL
MODEL 6
REMARK VINA RESULT:      -7.6      0.546      1.322
REMARK  Name = 
REMARK  12 active torsions:
REMARK  status: ('A' for Active; 'I' for Inactive)
REMARK    1  A    between atoms: C_1  and  C_2
REMARK    2  A    between atoms: C_2  and  C_3
REMARK    3  A    between atoms: C_3  and  C_4
REMARK    4  A    between atoms: C_4  and  C_5
REMARK    5  A    between atoms: C_5  and  C_6
REMARK    6  A    between atoms: C_6  and  C_7
REMARK    7  A    between atoms: C_7  and  O_8
REMARK    8  A    between atoms: C_7  and  C_9
REMARK    9  A    between atoms: C_7  and  C_15
REMARK   10  A    between atoms: C_15  and  C_16
REMARK   11  A    between atoms: C_15  and  C_23
REMARK   12  A    between atoms: C_16  and  N_17
REMARK                            x       y       z     vdW  Elec       q    Type
REMARK                         _______ _______ _______ _____ _____    ______ ____
ROOT
ATOM      1  C   UNL     1       5.301   5.150  17.348  0.00  0.00    +0.000 C 
ENDROOT
BRANCH   1   2
ATOM      2  C   UNL     1       6.360   6.135  17.828  0.00  0.00    +0.000 A 
ATOM      3  C   UNL     1       6.554   7.354  17.158  0.00  0.00    +0.000 A 
ATOM      4  C   UNL     1       7.559   8.229  17.503  0.00  0.00    +0.000 A 
ATOM      5  C   UNL     1       8.452   7.868  18.508  0.00  0.00    +0.000 A 
ATOM      6  C   UNL     1       8.320   6.648  19.160  0.00  0.00    +0.000 A 
ATOM      7  C   UNL     1       7.264   5.796  18.839  0.00  0.00    +0.000 A 
ENDBRANCH   1   2
BRANCH   1   8
ATOM      8  O   UNL     1       5.837   3.808  17.368  0.00  0.00    +0.000 OA
ATOM      9  H   UNL     1       6.790   3.870  17.606  0.00  0.00    +0.000 HD
ENDBRANCH   1   8
BRANCH   1  10
ATOM     10  C   UNL     1       5.098   5.459  15.823  0.00  0.00    +0.000 C 
BRANCH  10  11
ATOM     11  C   UNL     1       5.027   4.322  14.778  0.00  0.00    +0.000 C 
BRANCH  11  12
ATOM     12  C   UNL     1       6.453   4.054  14.249  0.00  0.00    +0.000 C 
BRANCH  12  13
ATOM     13  C   UNL     1       6.404   3.646  12.786  0.00  0.00    +0.000 C 
BRANCH  13  15
ATOM     14  C   UNL     1       8.075   5.477  12.732  0.00  0.00    +0.000 C 
ATOM     15  C   UNL     1       7.172   4.604  11.879  0.00  0.00    +0.000 C 
ENDBRANCH  13  15
ENDBRANCH  12  13
ENDBRANCH  11  12
ENDBRANCH  10  11
ENDBRANCH   1  10
BRANCH   1  16
ATOM     16  C   UNL     1       3.923   5.098  18.261  0.00  0.00    +0.000 C 
BRANCH  16  17
ATOM     17  C   UNL     1       3.095   6.396  18.479  0.00  0.00    +0.000 A 
ATOM     18  C   UNL     1       2.895   7.364  17.484  0.00  0.00    +0.000 A 
ATOM     19  C   UNL     1       2.319   8.613  17.690  0.00  0.00    +0.000 A 
ATOM     20  C   UNL     1       1.752   8.887  18.908  0.00  0.00    +0.000 A 
ATOM     21  C   UNL     1       1.789   7.913  19.899  0.00  0.00    +0.000 A 
ATOM     22  C   UNL     1       2.461   6.696  19.695  0.00  0.00    +0.000 A 
ENDBRANCH  16  17
BRANCH  16  23
ATOM     23  C   UNL     1       3.984   4.146  19.580  0.00  0.00    +0.000 C 
BRANCH  23  24
ATOM     24  N   UNL     1       3.535   2.712  19.655  0.00  0.00    +0.000 NA
ATOM     25  C   UNL     1       2.258   2.438  18.964  0.00  0.00    +0.000 C 
ATOM     26  C   UNL     1       1.045   3.182  19.560  0.00  0.00    +0.000 C 
ATOM     27  O   UNL     1       0.879   2.908  20.963  0.00  0.00    +0.000 OA
ATOM     28  C   UNL     1       2.102   3.134  21.685  0.00  0.00    +0.000 C 
ATOM     29  C   UNL     1       3.241   2.304  21.064  0.00  0.00    +0.000 C 
ENDBRANCH  23  24
ENDBRANCH  16  23
ENDBRANCH   1  16
TORSDOF 11
ENDMDL
MODEL 7
REMARK VINA RESULT:      -7.6      0.535      1.294
REMARK  Name = 
REMARK  12 active torsions:
REMARK  status: ('A' for Active; 'I' for Inactive)
REMARK    1  A    between atoms: C_1  and  C_2
REMARK    2  A    between atoms: C_2  and  C_3
REMARK    3  A    between atoms: C_3  and  C_4
REMARK    4  A    between atoms: C_4  and  C_5
REMARK    5  A    between atoms: C_5  and  C_6
REMARK    6  A    between atoms: C_6  and  C_7
REMARK    7  A    between atoms: C_7  and  O_8
REMARK    8  A    between atoms: C_7  and  C_9
REMARK    9  A    between atoms: C_7  and  C_15
REMARK   10  A    between atoms: C_15  and  C_16
REMARK   11  A    between atoms: C_15  and  C_23
REMARK   12  A    between atoms: C_16  and  N_17
REMARK                            x       y       z     vdW  Elec       q    Type
REMARK                         _______ _______ _______ _____ _____    ______ ____
ROOT
ATOM      1  C   UNL     1       5.282   5.088  17.255  0.00  0.00    +0.000 C 
ENDROOT
BRANCH   1   2
ATOM      2  C   UNL     1       6.429   5.999  17.677  0.00  0.00    +0.000 A 
ATOM      3  C   UNL     1       7.221   5.677  18.791  0.00  0.00    +0.000 A 
ATOM      4  C   UNL     1       8.206   6.517  19.258  0.00  0.00    +0.000 A 
ATOM      5  C   UNL     1       8.383   7.755  18.646  0.00  0.00    +0.000 A 
ATOM      6  C   UNL     1       7.584   8.128  17.571  0.00  0.00    +0.000 A 
ATOM      7  C   UNL     1       6.629   7.244  17.073  0.00  0.00    +0.000 A 
ENDBRANCH   1   2
BRANCH   1   8
ATOM      8  O   UNL     1       5.726   3.713  17.250  0.00  0.00    +0.000 OA
ATOM      9  H   UNL     1       5.068   3.188  16.738  0.00  0.00    +0.000 HD
ENDBRANCH   1   8
BRANCH   1  10
ATOM     10  C   UNL     1       5.021   5.412  15.742  0.00  0.00    +0.000 C 
BRANCH  10  11
ATOM     11  C   UNL     1       4.907   4.285  14.691  0.00  0.00    +0.000 C 
BRANCH  11  12
ATOM     12  C   UNL     1       6.318   3.988  14.136  0.00  0.00    +0.000 C 
BRANCH  12  13
ATOM     13  C   UNL     1       6.233   3.564  12.679  0.00  0.00    +0.000 C 
BRANCH  13  15
ATOM     14  C   UNL     1       7.911   5.387  12.609  0.00  0.00    +0.000 C 
ATOM     15  C   UNL     1       7.208   4.324  11.784  0.00  0.00    +0.000 C 
ENDBRANCH  13  15
ENDBRANCH  12  13
ENDBRANCH  11  12
ENDBRANCH  10  11
ENDBRANCH   1  10
BRANCH   1  16
ATOM     16  C   UNL     1       3.953   5.129  18.239  0.00  0.00    +0.000 C 
BRANCH  16  17
ATOM     17  C   UNL     1       3.216   6.476  18.482  0.00  0.00    +0.000 A 
ATOM     18  C   UNL     1       2.590   6.808  19.692  0.00  0.00    +0.000 A 
ATOM     19  C   UNL     1       1.772   7.917  19.888  0.00  0.00    +0.000 A 
ATOM     20  C   UNL     1       1.680   8.856  18.894  0.00  0.00    +0.000 A 
ATOM     21  C   UNL     1       2.393   8.657  17.716  0.00  0.00    +0.000 A 
ATOM     22  C   UNL     1       3.135   7.482  17.508  0.00  0.00    +0.000 A 
ENDBRANCH  16  17
BRANCH  16  23
ATOM     23  C   UNL     1       4.027   4.188  19.566  0.00  0.00    +0.000 C 
BRANCH  23  24
ATOM     24  N   UNL     1       3.536   2.770  19.671  0.00  0.00    +0.000 NA
ATOM     25  C   UNL     1       2.359   2.470  18.828  0.00  0.00    +0.000 C 
ATOM     26  C   UNL     1       1.095   3.272  19.200  0.00  0.00    +0.000 C 
ATOM     27  O   UNL     1       0.732   3.096  20.582  0.00  0.00    +0.000 OA
ATOM     28  C   UNL     1       1.848   3.351  21.450  0.00  0.00    +0.000 C 
ATOM     29  C   UNL     1       3.041   2.462  21.048  0.00  0.00    +0.000 C 
ENDBRANCH  23  24
ENDBRANCH  16  23
ENDBRANCH   1  16
TORSDOF 11
ENDMDL
MODEL 8
REMARK VINA RESULT:      -7.4      1.179      1.714
REMARK  Name = 
REMARK  12 active torsions:
REMARK  status: ('A' for Active; 'I' for Inactive)
REMARK    1  A    between atoms: C_1  and  C_2
REMARK    2  A    between atoms: C_2  and  C_3
REMARK    3  A    between atoms: C_3  and  C_4
REMARK    4  A    between atoms: C_4  and  C_5
REMARK    5  A    between atoms: C_5  and  C_6
REMARK    6  A    between atoms: C_6  and  C_7
REMARK    7  A    between atoms: C_7  and  O_8
REMARK    8  A    between atoms: C_7  and  C_9
REMARK    9  A    between atoms: C_7  and  C_15
REMARK   10  A    between atoms: C_15  and  C_16
REMARK   11  A    between atoms: C_15  and  C_23
REMARK   12  A    between atoms: C_16  and  N_17
REMARK                            x       y       z     vdW  Elec       q    Type
REMARK                         _______ _______ _______ _____ _____    ______ ____
ROOT
ATOM      1  C   UNL     1       5.633   4.792  16.341  0.00  0.00    +0.000 C 
ENDROOT
BRANCH   1   2
ATOM      2  C   UNL     1       6.598   5.622  17.178  0.00  0.00    +0.000 A 
ATOM      3  C   UNL     1       7.054   5.148  18.419  0.00  0.00    +0.000 A 
ATOM      4  C   UNL     1       7.853   5.904  19.245  0.00  0.00    +0.000 A 
ATOM      5  C   UNL     1       8.170   7.207  18.869  0.00  0.00    +0.000 A 
ATOM      6  C   UNL     1       7.696   7.727  17.670  0.00  0.00    +0.000 A 
ATOM      7  C   UNL     1       6.935   6.931  16.817  0.00  0.00    +0.000 A 
ENDBRANCH   1   2
BRANCH   1   8
ATOM      8  O   UNL     1       5.990   3.394  16.424  0.00  0.00    +0.000 OA
ATOM      9  H   UNL     1       5.180   2.867  16.231  0.00  0.00    +0.000 HD
ENDBRANCH   1   8
BRANCH   1  10
ATOM     10  C   UNL     1       5.931   5.175  14.848  0.00  0.00    +0.000 C 
BRANCH  10  11
ATOM     11  C   UNL     1       6.200   4.089  13.782  0.00  0.00    +0.000 C 
BRANCH  11  12
ATOM     12  C   UNL     1       4.850   3.669  13.160  0.00  0.00    +0.000 C 
BRANCH  12  13
ATOM     13  C   UNL     1       5.031   3.327  11.690  0.00  0.00    +0.000 C 
BRANCH  13  15
ATOM     14  C   UNL     1       3.277   4.021  10.082  0.00  0.00    +0.000 C 
ATOM     15  C   UNL     1       3.727   2.911  11.015  0.00  0.00    +0.000 C 
ENDBRANCH  13  15
ENDBRANCH  12  13
ENDBRANCH  11  12
ENDBRANCH  10  11
ENDBRANCH   1  10
BRANCH   1  16
ATOM     16  C   UNL     1       4.047   4.880  16.801  0.00  0.00    +0.000 C 
BRANCH  16  17
ATOM     17  C   UNL     1       3.530   6.145  17.544  0.00  0.00    +0.000 A 
ATOM     18  C   UNL     1       3.091   6.136  18.875  0.00  0.00    +0.000 A 
ATOM     19  C   UNL     1       2.456   7.197  19.513  0.00  0.00    +0.000 A 
ATOM     20  C   UNL     1       2.383   8.407  18.872  0.00  0.00    +0.000 A 
ATOM     21  C   UNL     1       2.930   8.524  17.598  0.00  0.00    +0.000 A 
ATOM     22  C   UNL     1       3.479   7.410  16.939  0.00  0.00    +0.000 A 
ENDBRANCH  16  17
BRANCH  16  23
ATOM     23  C   UNL     1       3.395   3.497  17.359  0.00  0.00    +0.000 C 
BRANCH  23  24
ATOM     24  N   UNL     1       4.068   2.511  18.276  0.00  0.00    +0.000 NA
ATOM     25  C   UNL     1       3.260   1.310  18.574  0.00  0.00    +0.000 C 
ATOM     26  C   UNL     1       1.949   1.603  19.333  0.00  0.00    +0.000 C 
ATOM     27  O   UNL     1       2.183   2.321  20.559  0.00  0.00    +0.000 OA
ATOM     28  C   UNL     1       2.989   3.489  20.332  0.00  0.00    +0.000 C 
ATOM     29  C   UNL     1       4.303   3.095  19.632  0.00  0.00    +0.000 C 
ENDBRANCH  23  24
ENDBRANCH  16  23
ENDBRANCH   1  16
TORSDOF 11
ENDMDL
MODEL 9
REMARK VINA RESULT:      -7.4      0.882      1.662
REMARK  Name = 
REMARK  12 active torsions:
REMARK  status: ('A' for Active; 'I' for Inactive)
REMARK    1  A    between atoms: C_1  and  C_2
REMARK    2  A    between atoms: C_2  and  C_3
REMARK    3  A    between atoms: C_3  and  C_4
REMARK    4  A    between atoms: C_4  and  C_5
REMARK    5  A    between atoms: C_5  and  C_6
REMARK    6  A    between atoms: C_6  and  C_7
REMARK    7  A    between atoms: C_7  and  O_8
REMARK    8  A    between atoms: C_7  and  C_9
REMARK    9  A    between atoms: C_7  and  C_15
REMARK   10  A    between atoms: C_15  and  C_16
REMARK   11  A    between atoms: C_15  and  C_23
REMARK   12  A    between atoms: C_16  and  N_17
REMARK                            x       y       z     vdW  Elec       q    Type
REMARK                         _______ _______ _______ _____ _____    ______ ____
ROOT
ATOM      1  C   UNL     1       5.480   4.998  16.537  0.00  0.00    +0.000 C 
ENDROOT
BRANCH   1   2
ATOM      2  C   UNL     1       6.408   5.852  17.392  0.00  0.00    +0.000 A 
ATOM      3  C   UNL     1       6.752   7.152  16.987  0.00  0.00    +0.000 A 
ATOM      4  C   UNL     1       7.657   7.922  17.682  0.00  0.00    +0.000 A 
ATOM      5  C   UNL     1       8.300   7.373  18.788  0.00  0.00    +0.000 A 
ATOM      6  C   UNL     1       8.020   6.072  19.189  0.00  0.00    +0.000 A 
ATOM      7  C   UNL     1       7.061   5.324  18.510  0.00  0.00    +0.000 A 
ENDBRANCH   1   2
BRANCH   1   8
ATOM      8  O   UNL     1       5.863   3.608  16.638  0.00  0.00    +0.000 OA
ATOM      9  H   UNL     1       5.692   3.317  17.563  0.00  0.00    +0.000 HD
ENDBRANCH   1   8
BRANCH   1  10
ATOM     10  C   UNL     1       5.806   5.378  15.050  0.00  0.00    +0.000 C 
BRANCH  10  11
ATOM     11  C   UNL     1       6.962   4.695  14.284  0.00  0.00    +0.000 C 
BRANCH  11  12
ATOM     12  C   UNL     1       6.480   4.375  12.852  0.00  0.00    +0.000 C 
BRANCH  12  13
ATOM     13  C   UNL     1       5.310   3.405  12.894  0.00  0.00    +0.000 C 
BRANCH  13  15
ATOM     14  C   UNL     1       6.126   1.650  11.346  0.00  0.00    +0.000 C 
ATOM     15  C   UNL     1       5.065   2.716  11.555  0.00  0.00    +0.000 C 
ENDBRANCH  13  15
ENDBRANCH  12  13
ENDBRANCH  11  12
ENDBRANCH  10  11
ENDBRANCH   1  10
BRANCH   1  16
ATOM     16  C   UNL     1       3.881   5.056  16.959  0.00  0.00    +0.000 C 
BRANCH  16  17
ATOM     17  C   UNL     1       3.329   6.297  17.714  0.00  0.00    +0.000 A 
ATOM     18  C   UNL     1       2.929   6.272  19.058  0.00  0.00    +0.000 A 
ATOM     19  C   UNL     1       2.266   7.305  19.712  0.00  0.00    +0.000 A 
ATOM     20  C   UNL     1       2.120   8.509  19.071  0.00  0.00    +0.000 A 
ATOM     21  C   UNL     1       2.624   8.647  17.782  0.00  0.00    +0.000 A 
ATOM     22  C   UNL     1       3.204   7.558  17.110  0.00  0.00    +0.000 A 
ENDBRANCH  16  17
BRANCH  16  23
ATOM     23  C   UNL     1       3.235   3.652  17.472  0.00  0.00    +0.000 C 
BRANCH  23  24
ATOM     24  N   UNL     1       3.904   2.648  18.371  0.00  0.00    +0.000 NA
ATOM     25  C   UNL     1       3.101   1.434  18.630  0.00  0.00    +0.000 C 
ATOM     26  C   UNL     1       1.780   1.700  19.379  0.00  0.00    +0.000 C 
ATOM     27  O   UNL     1       1.994   2.388  20.626  0.00  0.00    +0.000 OA
ATOM     28  C   UNL     1       2.794   3.567  20.438  0.00  0.00    +0.000 C 
ATOM     29  C   UNL     1       4.119   3.200  19.744  0.00  0.00    +0.000 C 
ENDBRANCH  23  24
ENDBRANCH  16  23
ENDBRANCH   1  16
TORSDOF 11
ENDMDL
