MODEL 1
REMARK VINA RESULT:      -7.7      0.000      0.000
REMARK  Name = 
REMARK  9 active torsions:
REMARK  status: ('A' for Active; 'I' for Inactive)
REMARK    1  A    between atoms: C_1  and  O_2
REMARK    2  A    between atoms: O_2  and  C_3
REMARK    3  A    between atoms: C_5  and  C_6
REMARK    4  A    between atoms: N_7  and  N_8
REMARK    5  A    between atoms: C_9  and  C_11
REMARK    6  A    between atoms: C_25  and  O_26
REMARK    7  A    between atoms: O_26  and  C_27
REMARK    8  A    between atoms: C_28  and  O_29
REMARK    9  A    between atoms: O_29  and  C_30
REMARK                            x       y       z     vdW  Elec       q    Type
REMARK                         _______ _______ _______ _____ _____    ______ ____
ROOT
ATOM      1  N   UNL     1       1.857   9.723  18.427  0.00  0.00    +0.000 N 
ATOM      2  C   UNL     1       2.060   8.415  18.882  0.00  0.00    +0.000 C 
ATOM      3  O   UNL     1       2.073   8.078  20.070  0.00  0.00    +0.000 OA
ATOM      4  H   UNL     1       2.040   9.907  17.449  0.00  0.00    +0.000 HD
ENDROOT
BRANCH   2   5
ATOM      5  C   UNL     1       2.360   7.408  17.762  0.00  0.00    +0.000 C 
ATOM      6  C   UNL     1       1.449   6.165  17.993  0.00  0.00    +0.000 C 
ATOM      7  C   UNL     1       2.261   4.924  18.099  0.00  0.00    +0.000 A 
ATOM      8  C   UNL     1       3.570   4.873  17.678  0.00  0.00    +0.000 A 
ATOM      9  N   UNL     1       4.163   3.799  18.292  0.00  0.00    +0.000 N 
ATOM     10  C   UNL     1       3.318   3.376  19.307  0.00  0.00    +0.000 A 
ATOM     11  C   UNL     1       3.578   2.710  20.505  0.00  0.00    +0.000 A 
ATOM     12  C   UNL     1       2.515   2.617  21.415  0.00  0.00    +0.000 A 
ATOM     13  C   UNL     1       1.218   3.004  21.075  0.00  0.00    +0.000 A 
ATOM     14  C   UNL     1       0.956   3.577  19.838  0.00  0.00    +0.000 A 
ATOM     15  C   UNL     1       2.050   3.876  19.014  0.00  0.00    +0.000 A 
ATOM     16  C   UNL     1       4.255   5.994  17.000  0.00  0.00    +0.000 C 
ATOM     17  N   UNL     1       3.852   7.206  17.721  0.00  0.00    +0.000 NA
ATOM     18  H   UNL     1       5.146   3.573  18.249  0.00  0.00    +0.000 HD
ATOM     19  H   UNL     1       4.268   8.026  17.285  0.00  0.00    +0.000 HD
ENDBRANCH   2   5
BRANCH   1  21
ATOM     20  C   UNL     1       0.556  11.374  19.425  0.00  0.00    +0.000 C 
ATOM     21  N   UNL     1       1.670  10.723  19.316  0.00  0.00    +0.000 NA
BRANCH  20  24
ATOM     22  C   UNL     1      -2.426  10.214  17.329  0.00  0.00    +0.000 A 
ATOM     23  C   UNL     1      -1.095  10.388  17.754  0.00  0.00    +0.000 A 
ATOM     24  C   UNL     1      -0.787  11.243  18.803  0.00  0.00    +0.000 A 
ATOM     25  C   UNL     1      -1.829  11.954  19.409  0.00  0.00    +0.000 A 
ATOM     26  C   UNL     1      -3.167  11.796  19.008  0.00  0.00    +0.000 A 
ATOM     27  C   UNL     1      -3.483  10.912  17.959  0.00  0.00    +0.000 A 
BRANCH  22  29
ATOM     28  C   UNL     1      -2.817  10.030  14.987  0.00  0.00    +0.000 C 
ATOM     29  O   UNL     1      -2.718   9.402  16.261  0.00  0.00    +0.000 OA
ENDBRANCH  22  29
BRANCH  26  30
ATOM     30  O   UNL     1      -4.012  12.580  19.753  0.00  0.00    +0.000 OA
ATOM     31  C   UNL     1      -3.735  12.778  21.132  0.00  0.00    +0.000 C 
ENDBRANCH  26  30
BRANCH  27  32
ATOM     32  O   UNL     1      -4.799  10.835  17.578  0.00  0.00    +0.000 OA
ATOM     33  C   UNL     1      -5.360  11.949  16.891  0.00  0.00    +0.000 C 
ENDBRANCH  27  32
ENDBRANCH  20  24
ENDBRANCH   1  21
TORSDOF 6
ENDMDL
MODEL 2
REMARK VINA RESULT:      -7.6      2.650      8.797
REMARK  Name = 
REMARK  9 active torsions:
REMARK  status: ('A' for Active; 'I' for Inactive)
REMARK    1  A    between atoms: C_1  and  O_2
REMARK    2  A    between atoms: O_2  and  C_3
REMARK    3  A    between atoms: C_5  and  C_6
REMARK    4  A    between atoms: N_7  and  N_8
REMARK    5  A    between atoms: C_9  and  C_11
REMARK    6  A    between atoms: C_25  and  O_26
REMARK    7  A    between atoms: O_26  and  C_27
REMARK    8  A    between atoms: C_28  and  O_29
REMARK    9  A    between atoms: O_29  and  C_30
REMARK                            x       y       z     vdW  Elec       q    Type
REMARK                         _______ _______ _______ _____ _____    ______ ____
ROOT
ATOM      1  N   UNL     1       0.196   9.658  20.033  0.00  0.00    +0.000 N 
ATOM      2  C   UNL     1      -0.663  10.764  20.016  0.00  0.00    +0.000 C 
ATOM      3  O   UNL     1      -1.062  11.359  21.022  0.00  0.00    +0.000 OA
ATOM      4  H   UNL     1       0.313   9.150  19.165  0.00  0.00    +0.000 HD
ENDROOT
BRANCH   2   5
ATOM      5  C   UNL     1      -1.157  11.144  18.613  0.00  0.00    +0.000 C 
ATOM      6  C   UNL     1      -2.258  12.234  18.784  0.00  0.00    +0.000 C 
ATOM      7  C   UNL     1      -3.529  11.811  18.136  0.00  0.00    +0.000 A 
ATOM      8  C   UNL     1      -3.571  10.784  17.221  0.00  0.00    +0.000 A 
ATOM      9  N   UNL     1      -4.869  10.343  17.151  0.00  0.00    +0.000 N 
ATOM     10  C   UNL     1      -5.555  10.885  18.227  0.00  0.00    +0.000 A 
ATOM     11  C   UNL     1      -6.678  10.438  18.923  0.00  0.00    +0.000 A 
ATOM     12  C   UNL     1      -6.996  11.120  20.107  0.00  0.00    +0.000 A 
ATOM     13  C   UNL     1      -6.341  12.294  20.479  0.00  0.00    +0.000 A 
ATOM     14  C   UNL     1      -5.286  12.783  19.720  0.00  0.00    +0.000 A 
ATOM     15  C   UNL     1      -4.821  11.988  18.664  0.00  0.00    +0.000 A 
ATOM     16  C   UNL     1      -2.370  10.081  16.723  0.00  0.00    +0.000 C 
ATOM     17  N   UNL     1      -1.514   9.869  17.897  0.00  0.00    +0.000 NA
ATOM     18  H   UNL     1      -5.182   9.534  16.635  0.00  0.00    +0.000 HD
ATOM     19  H   UNL     1      -0.649   9.411  17.619  0.00  0.00    +0.000 HD
ENDBRANCH   2   5
BRANCH   1  21
ATOM     20  C   UNL     1       1.295   8.056  21.312  0.00  0.00    +0.000 C 
ATOM     21  N   UNL     1       0.634   9.164  21.212  0.00  0.00    +0.000 NA
BRANCH  20  24
ATOM     22  C   UNL     1       3.132   6.457  18.362  0.00  0.00    +0.000 A 
ATOM     23  C   UNL     1       2.500   7.433  19.155  0.00  0.00    +0.000 A 
ATOM     24  C   UNL     1       1.851   7.086  20.331  0.00  0.00    +0.000 A 
ATOM     25  C   UNL     1       1.811   5.736  20.695  0.00  0.00    +0.000 A 
ATOM     26  C   UNL     1       2.437   4.741  19.925  0.00  0.00    +0.000 A 
ATOM     27  C   UNL     1       3.115   5.094  18.743  0.00  0.00    +0.000 A 
BRANCH  22  29
ATOM     28  C   UNL     1       5.152   6.927  17.190  0.00  0.00    +0.000 C 
ATOM     29  O   UNL     1       3.733   6.801  17.176  0.00  0.00    +0.000 OA
ENDBRANCH  22  29
BRANCH  26  30
ATOM     30  O   UNL     1       2.279   3.497  20.484  0.00  0.00    +0.000 OA
ATOM     31  C   UNL     1       1.083   2.774  20.232  0.00  0.00    +0.000 C 
ENDBRANCH  26  30
BRANCH  27  32
ATOM     32  O   UNL     1       3.665   4.075  18.006  0.00  0.00    +0.000 OA
ATOM     33  C   UNL     1       2.818   3.377  17.100  0.00  0.00    +0.000 C 
ENDBRANCH  27  32
ENDBRANCH  20  24
ENDBRANCH   1  21
TORSDOF 6
ENDMDL
MODEL 3
REMARK VINA RESULT:      -7.5      2.979      9.328
REMARK  Name = 
REMARK  9 active torsions:
REMARK  status: ('A' for Active; 'I' for Inactive)
REMARK    1  A    between atoms: C_1  and  O_2
REMARK    2  A    between atoms: O_2  and  C_3
REMARK    3  A    between atoms: C_5  and  C_6
REMARK    4  A    between atoms: N_7  and  N_8
REMARK    5  A    between atoms: C_9  and  C_11
REMARK    6  A    between atoms: C_25  and  O_26
REMARK    7  A    between atoms: O_26  and  C_27
REMARK    8  A    between atoms: C_28  and  O_29
REMARK    9  A    between atoms: O_29  and  C_30
REMARK                            x       y       z     vdW  Elec       q    Type
REMARK                         _______ _______ _______ _____ _____    ______ ____
ROOT
ATOM      1  N   UNL     1       1.466   8.838  18.381  0.00  0.00    +0.000 N 
ATOM      2  C   UNL     1       1.048  10.037  18.970  0.00  0.00    +0.000 C 
ATOM      3  O   UNL     1       1.583  11.135  18.785  0.00  0.00    +0.000 OA
ATOM      4  H   UNL     1       1.064   7.981  18.740  0.00  0.00    +0.000 HD
ENDROOT
BRANCH   2   5
ATOM      5  C   UNL     1      -0.113   9.870  19.960  0.00  0.00    +0.000 C 
ATOM      6  C   UNL     1      -1.104  11.050  19.724  0.00  0.00    +0.000 C 
ATOM      7  C   UNL     1      -1.328  11.815  20.980  0.00  0.00    +0.000 A 
ATOM      8  C   UNL     1      -0.990  11.304  22.212  0.00  0.00    +0.000 A 
ATOM      9  N   UNL     1      -0.889  12.359  23.086  0.00  0.00    +0.000 N 
ATOM     10  C   UNL     1      -0.866  13.524  22.336  0.00  0.00    +0.000 A 
ATOM     11  C   UNL     1      -0.312  14.777  22.598  0.00  0.00    +0.000 A 
ATOM     12  C   UNL     1      -0.282  15.687  21.531  0.00  0.00    +0.000 A 
ATOM     13  C   UNL     1      -0.932  15.427  20.324  0.00  0.00    +0.000 A 
ATOM     14  C   UNL     1      -1.565  14.209  20.112  0.00  0.00    +0.000 A 
ATOM     15  C   UNL     1      -1.407  13.216  21.088  0.00  0.00    +0.000 A 
ATOM     16  C   UNL     1      -0.478   9.933  22.417  0.00  0.00    +0.000 C 
ATOM     17  N   UNL     1       0.482   9.697  21.333  0.00  0.00    +0.000 NA
ATOM     18  H   UNL     1      -0.560  12.296  24.038  0.00  0.00    +0.000 HD
ATOM     19  H   UNL     1       0.855   8.753  21.397  0.00  0.00    +0.000 HD
ENDBRANCH   2   5
BRANCH   1  21
ATOM     20  C   UNL     1       3.356   7.832  17.471  0.00  0.00    +0.000 C 
ATOM     21  N   UNL     1       2.537   8.831  17.557  0.00  0.00    +0.000 NA
BRANCH  20  24
ATOM     22  C   UNL     1       2.418   4.337  18.710  0.00  0.00    +0.000 A 
ATOM     23  C   UNL     1       2.280   5.675  18.297  0.00  0.00    +0.000 A 
ATOM     24  C   UNL     1       3.394   6.467  18.059  0.00  0.00    +0.000 A 
ATOM     25  C   UNL     1       4.662   5.913  18.271  0.00  0.00    +0.000 A 
ATOM     26  C   UNL     1       4.829   4.578  18.679  0.00  0.00    +0.000 A 
ATOM     27  C   UNL     1       3.699   3.767  18.900  0.00  0.00    +0.000 A 
BRANCH  22  29
ATOM     28  C   UNL     1       0.829   3.607  20.328  0.00  0.00    +0.000 C 
ATOM     29  O   UNL     1       1.311   3.573  18.988  0.00  0.00    +0.000 OA
ENDBRANCH  22  29
BRANCH  26  30
ATOM     30  O   UNL     1       6.157   4.253  18.807  0.00  0.00    +0.000 OA
ATOM     31  C   UNL     1       7.079   4.726  17.837  0.00  0.00    +0.000 C 
ENDBRANCH  26  30
BRANCH  27  32
ATOM     32  O   UNL     1       3.922   2.488  19.344  0.00  0.00    +0.000 OA
ATOM     33  C   UNL     1       3.709   1.419  18.429  0.00  0.00    +0.000 C 
ENDBRANCH  27  32
ENDBRANCH  20  24
ENDBRANCH   1  21
TORSDOF 6
ENDMDL
MODEL 4
REMARK VINA RESULT:      -7.5      2.598      8.721
REMARK  Name = 
REMARK  9 active torsions:
REMARK  status: ('A' for Active; 'I' for Inactive)
REMARK    1  A    between atoms: C_1  and  O_2
REMARK    2  A    between atoms: O_2  and  C_3
REMARK    3  A    between atoms: C_5  and  C_6
REMARK    4  A    between atoms: N_7  and  N_8
REMARK    5  A    between atoms: C_9  and  C_11
REMARK    6  A    between atoms: C_25  and  O_26
REMARK    7  A    between atoms: O_26  and  C_27
REMARK    8  A    between atoms: C_28  and  O_29
REMARK    9  A    between atoms: O_29  and  C_30
REMARK                            x       y       z     vdW  Elec       q    Type
REMARK                         _______ _______ _______ _____ _____    ______ ____
ROOT
ATOM      1  N   UNL     1       0.398   9.510  20.142  0.00  0.00    +0.000 N 
ATOM      2  C   UNL     1      -0.437  10.634  20.135  0.00  0.00    +0.000 C 
ATOM      3  O   UNL     1      -0.840  11.216  21.147  0.00  0.00    +0.000 OA
ATOM      4  H   UNL     1       0.519   9.018  19.266  0.00  0.00    +0.000 HD
ENDROOT
BRANCH   2   5
ATOM      5  C   UNL     1      -0.900  11.054  18.733  0.00  0.00    +0.000 C 
ATOM      6  C   UNL     1      -1.981  12.164  18.909  0.00  0.00    +0.000 C 
ATOM      7  C   UNL     1      -3.249  11.782  18.232  0.00  0.00    +0.000 A 
ATOM      8  C   UNL     1      -3.298  10.775  17.295  0.00  0.00    +0.000 A 
ATOM      9  N   UNL     1      -4.604  10.364  17.195  0.00  0.00    +0.000 N 
ATOM     10  C   UNL     1      -5.296  10.899  18.271  0.00  0.00    +0.000 A 
ATOM     11  C   UNL     1      -6.439  10.461  18.940  0.00  0.00    +0.000 A 
ATOM     12  C   UNL     1      -6.762  11.124  20.133  0.00  0.00    +0.000 A 
ATOM     13  C   UNL     1      -6.089  12.277  20.540  0.00  0.00    +0.000 A 
ATOM     14  C   UNL     1      -5.011  12.758  19.808  0.00  0.00    +0.000 A 
ATOM     15  C   UNL     1      -4.546  11.975  18.743  0.00  0.00    +0.000 A 
ATOM     16  C   UNL     1      -2.104  10.057  16.802  0.00  0.00    +0.000 C 
ATOM     17  N   UNL     1      -1.273   9.802  17.984  0.00  0.00    +0.000 NA
ATOM     18  H   UNL     1      -4.925   9.573  16.657  0.00  0.00    +0.000 HD
ATOM     19  H   UNL     1      -0.413   9.332  17.710  0.00  0.00    +0.000 HD
ENDBRANCH   2   5
BRANCH   1  21
ATOM     20  C   UNL     1       1.332   7.804  21.418  0.00  0.00    +0.000 C 
ATOM     21  N   UNL     1       0.806   8.982  21.317  0.00  0.00    +0.000 NA
BRANCH  20  24
ATOM     22  C   UNL     1       1.629   4.559  19.413  0.00  0.00    +0.000 A 
ATOM     23  C   UNL     1       1.319   5.440  20.467  0.00  0.00    +0.000 A 
ATOM     24  C   UNL     1       1.740   6.762  20.439  0.00  0.00    +0.000 A 
ATOM     25  C   UNL     1       2.510   7.192  19.352  0.00  0.00    +0.000 A 
ATOM     26  C   UNL     1       2.830   6.336  18.284  0.00  0.00    +0.000 A 
ATOM     27  C   UNL     1       2.385   5.000  18.301  0.00  0.00    +0.000 A 
BRANCH  22  29
ATOM     28  C   UNL     1       1.769   2.470  20.548  0.00  0.00    +0.000 C 
ATOM     29  O   UNL     1       1.249   3.241  19.469  0.00  0.00    +0.000 OA
ENDBRANCH  22  29
BRANCH  26  30
ATOM     30  O   UNL     1       3.577   6.979  17.329  0.00  0.00    +0.000 OA
ATOM     31  C   UNL     1       4.990   6.848  17.354  0.00  0.00    +0.000 C 
ENDBRANCH  26  30
BRANCH  27  32
ATOM     32  O   UNL     1       2.769   4.198  17.257  0.00  0.00    +0.000 OA
ATOM     33  C   UNL     1       3.943   3.410  17.419  0.00  0.00    +0.000 C 
ENDBRANCH  27  32
ENDBRANCH  20  24
ENDBRANCH   1  21
TORSDOF 6
ENDMDL
MODEL 5
REMARK VINA RESULT:      -7.5      3.179      9.161
REMARK  Name = 
REMARK  9 active torsions:
REMARK  status: ('A' for Active; 'I' for Inactive)
REMARK    1  A    between atoms: C_1  and  O_2
REMARK    2  A    between atoms: O_2  and  C_3
REMARK    3  A    between atoms: C_5  and  C_6
REMARK    4  A    between atoms: N_7  and  N_8
REMARK    5  A    between atoms: C_9  and  C_11
REMARK    6  A    between atoms: C_25  and  O_26
REMARK    7  A    between atoms: O_26  and  C_27
REMARK    8  A    between atoms: C_28  and  O_29
REMARK    9  A    between atoms: O_29  and  C_30
REMARK                            x       y       z     vdW  Elec       q    Type
REMARK                         _______ _______ _______ _____ _____    ______ ____
ROOT
ATOM      1  N   UNL     1       1.141   8.432  20.253  0.00  0.00    +0.000 N 
ATOM      2  C   UNL     1       1.030   9.685  20.869  0.00  0.00    +0.000 C 
ATOM      3  O   UNL     1       1.118   9.881  22.085  0.00  0.00    +0.000 OA
ATOM      4  H   UNL     1       0.880   8.371  19.278  0.00  0.00    +0.000 HD
ENDROOT
BRANCH   2   5
ATOM      5  C   UNL     1       0.696  10.825  19.897  0.00  0.00    +0.000 C 
ATOM      6  C   UNL     1       0.406  12.098  20.750  0.00  0.00    +0.000 C 
ATOM      7  C   UNL     1      -0.942  12.647  20.442  0.00  0.00    +0.000 A 
ATOM      8  C   UNL     1      -1.635  12.282  19.311  0.00  0.00    +0.000 A 
ATOM      9  N   UNL     1      -2.960  12.575  19.523  0.00  0.00    +0.000 N 
ATOM     10  C   UNL     1      -3.121  12.834  20.875  0.00  0.00    +0.000 A 
ATOM     11  C   UNL     1      -4.230  12.703  21.712  0.00  0.00    +0.000 A 
ATOM     12  C   UNL     1      -3.999  12.851  23.088  0.00  0.00    +0.000 A 
ATOM     13  C   UNL     1      -2.771  13.287  23.586  0.00  0.00    +0.000 A 
ATOM     14  C   UNL     1      -1.701  13.509  22.727  0.00  0.00    +0.000 A 
ATOM     15  C   UNL     1      -1.861  13.148  21.383  0.00  0.00    +0.000 A 
ATOM     16  C   UNL     1      -1.080  11.405  18.259  0.00  0.00    +0.000 C 
ATOM     17  N   UNL     1      -0.377  10.327  18.964  0.00  0.00    +0.000 NA
ATOM     18  H   UNL     1      -3.717  12.325  18.903  0.00  0.00    +0.000 HD
ATOM     19  H   UNL     1       0.058   9.697  18.294  0.00  0.00    +0.000 HD
ENDBRANCH   2   5
BRANCH   1  21
ATOM     20  C   UNL     1       1.928   6.264  20.556  0.00  0.00    +0.000 C 
ATOM     21  N   UNL     1       1.346   7.329  21.006  0.00  0.00    +0.000 NA
BRANCH  20  24
ATOM     22  C   UNL     1       4.220   6.237  17.493  0.00  0.00    +0.000 A 
ATOM     23  C   UNL     1       3.515   6.715  18.614  0.00  0.00    +0.000 A 
ATOM     24  C   UNL     1       2.600   5.910  19.278  0.00  0.00    +0.000 A 
ATOM     25  C   UNL     1       2.369   4.620  18.787  0.00  0.00    +0.000 A 
ATOM     26  C   UNL     1       3.062   4.115  17.673  0.00  0.00    +0.000 A 
ATOM     27  C   UNL     1       4.007   4.923  17.012  0.00  0.00    +0.000 A 
BRANCH  22  29
ATOM     28  C   UNL     1       6.429   7.103  17.296  0.00  0.00    +0.000 C 
ATOM     29  O   UNL     1       5.090   7.053  16.814  0.00  0.00    +0.000 OA
ENDBRANCH  22  29
BRANCH  26  30
ATOM     30  O   UNL     1       2.682   2.828  17.385  0.00  0.00    +0.000 OA
ATOM     31  C   UNL     1       3.281   1.756  18.098  0.00  0.00    +0.000 C 
ENDBRANCH  26  30
BRANCH  27  32
ATOM     32  O   UNL     1       4.616   4.395  15.901  0.00  0.00    +0.000 OA
ATOM     33  C   UNL     1       5.860   3.728  16.078  0.00  0.00    +0.000 C 
ENDBRANCH  27  32
ENDBRANCH  20  24
ENDBRANCH   1  21
TORSDOF 6
ENDMDL
MODEL 6
REMARK VINA RESULT:      -7.4      6.412      8.846
REMARK  Name = 
REMARK  9 active torsions:
REMARK  status: ('A' for Active; 'I' for Inactive)
REMARK    1  A    between atoms: C_1  and  O_2
REMARK    2  A    between atoms: O_2  and  C_3
REMARK    3  A    between atoms: C_5  and  C_6
REMARK    4  A    between atoms: N_7  and  N_8
REMARK    5  A    between atoms: C_9  and  C_11
REMARK    6  A    between atoms: C_25  and  O_26
REMARK    7  A    between atoms: O_26  and  C_27
REMARK    8  A    between atoms: C_28  and  O_29
REMARK    9  A    between atoms: O_29  and  C_30
REMARK                            x       y       z     vdW  Elec       q    Type
REMARK                         _______ _______ _______ _____ _____    ______ ____
ROOT
ATOM      1  N   UNL     1       8.279   8.901  18.178  0.00  0.00    +0.000 N 
ATOM      2  C   UNL     1       7.826   7.579  18.083  0.00  0.00    +0.000 C 
ATOM      3  O   UNL     1       8.133   6.673  18.865  0.00  0.00    +0.000 OA
ATOM      4  H   UNL     1       8.102   9.508  17.388  0.00  0.00    +0.000 HD
ENDROOT
BRANCH   2   5
ATOM      5  C   UNL     1       6.956   7.309  16.847  0.00  0.00    +0.000 C 
ATOM      6  C   UNL     1       5.466   7.353  17.304  0.00  0.00    +0.000 C 
ATOM      7  C   UNL     1       4.768   6.085  16.960  0.00  0.00    +0.000 A 
ATOM      8  C   UNL     1       5.287   5.193  16.050  0.00  0.00    +0.000 A 
ATOM      9  N   UNL     1       4.691   3.977  16.274  0.00  0.00    +0.000 N 
ATOM     10  C   UNL     1       4.041   4.047  17.497  0.00  0.00    +0.000 A 
ATOM     11  C   UNL     1       3.714   3.056  18.423  0.00  0.00    +0.000 A 
ATOM     12  C   UNL     1       3.239   3.494  19.669  0.00  0.00    +0.000 A 
ATOM     13  C   UNL     1       2.935   4.834  19.911  0.00  0.00    +0.000 A 
ATOM     14  C   UNL     1       3.175   5.798  18.941  0.00  0.00    +0.000 A 
ATOM     15  C   UNL     1       3.855   5.399  17.782  0.00  0.00    +0.000 A 
ATOM     16  C   UNL     1       6.513   5.446  15.264  0.00  0.00    +0.000 C 
ATOM     17  N   UNL     1       7.471   6.051  16.197  0.00  0.00    +0.000 NA
ATOM     18  H   UNL     1       4.947   3.111  15.821  0.00  0.00    +0.000 HD
ATOM     19  H   UNL     1       8.334   6.280  15.710  0.00  0.00    +0.000 HD
ENDBRANCH   2   5
BRANCH   1  21
ATOM     20  C   UNL     1       9.565  10.459  19.330  0.00  0.00    +0.000 C 
ATOM     21  N   UNL     1       9.125   9.252  19.171  0.00  0.00    +0.000 NA
BRANCH  20  24
ATOM     22  C   UNL     1       7.831  13.494  17.776  0.00  0.00    +0.000 A 
ATOM     23  C   UNL     1       8.032  12.184  18.249  0.00  0.00    +0.000 A 
ATOM     24  C   UNL     1       9.285  11.762  18.670  0.00  0.00    +0.000 A 
ATOM     25  C   UNL     1      10.355  12.661  18.583  0.00  0.00    +0.000 A 
ATOM     26  C   UNL     1      10.182  13.976  18.118  0.00  0.00    +0.000 A 
ATOM     27  C   UNL     1       8.906  14.413  17.712  0.00  0.00    +0.000 A 
BRANCH  22  29
ATOM     28  C   UNL     1       5.770  14.594  18.239  0.00  0.00    +0.000 C 
ATOM     29  O   UNL     1       6.599  13.891  17.319  0.00  0.00    +0.000 OA
ENDBRANCH  22  29
BRANCH  26  30
ATOM     30  O   UNL     1      11.363  14.675  18.135  0.00  0.00    +0.000 OA
ATOM     31  C   UNL     1      12.333  14.416  17.132  0.00  0.00    +0.000 C 
ENDBRANCH  26  30
BRANCH  27  32
ATOM     32  O   UNL     1       8.807  15.690  17.222  0.00  0.00    +0.000 OA
ATOM     33  C   UNL     1       8.697  16.756  18.158  0.00  0.00    +0.000 C 
ENDBRANCH  27  32
ENDBRANCH  20  24
ENDBRANCH   1  21
TORSDOF 6
ENDMDL
MODEL 7
REMARK VINA RESULT:      -7.2      3.030      8.949
REMARK  Name = 
REMARK  9 active torsions:
REMARK  status: ('A' for Active; 'I' for Inactive)
REMARK    1  A    between atoms: C_1  and  O_2
REMARK    2  A    between atoms: O_2  and  C_3
REMARK    3  A    between atoms: C_5  and  C_6
REMARK    4  A    between atoms: N_7  and  N_8
REMARK    5  A    between atoms: C_9  and  C_11
REMARK    6  A    between atoms: C_25  and  O_26
REMARK    7  A    between atoms: O_26  and  C_27
REMARK    8  A    between atoms: C_28  and  O_29
REMARK    9  A    between atoms: O_29  and  C_30
REMARK                            x       y       z     vdW  Elec       q    Type
REMARK                         _______ _______ _______ _____ _____    ______ ____
ROOT
ATOM      1  N   UNL     1       0.439   9.399  20.559  0.00  0.00    +0.000 N 
ATOM      2  C   UNL     1       0.668  10.780  20.521  0.00  0.00    +0.000 C 
ATOM      3  O   UNL     1       1.296  11.412  21.375  0.00  0.00    +0.000 OA
ATOM      4  H   UNL     1      -0.232   9.022  19.902  0.00  0.00    +0.000 HD
ENDROOT
BRANCH   2   5
ATOM      5  C   UNL     1      -0.015  11.488  19.342  0.00  0.00    +0.000 C 
ATOM      6  C   UNL     1      -0.596  12.833  19.877  0.00  0.00    +0.000 C 
ATOM      7  C   UNL     1      -2.057  12.923  19.611  0.00  0.00    +0.000 A 
ATOM      8  C   UNL     1      -2.682  12.100  18.702  0.00  0.00    +0.000 A 
ATOM      9  N   UNL     1      -4.024  12.101  18.996  0.00  0.00    +0.000 N 
ATOM     10  C   UNL     1      -4.179  12.674  20.248  0.00  0.00    +0.000 A 
ATOM     11  C   UNL     1      -5.164  12.506  21.222  0.00  0.00    +0.000 A 
ATOM     12  C   UNL     1      -4.911  13.080  22.476  0.00  0.00    +0.000 A 
ATOM     13  C   UNL     1      -3.824  13.927  22.693  0.00  0.00    +0.000 A 
ATOM     14  C   UNL     1      -2.902  14.163  21.681  0.00  0.00    +0.000 A 
ATOM     15  C   UNL     1      -3.027  13.419  20.501  0.00  0.00    +0.000 A 
ATOM     16  C   UNL     1      -1.965  11.134  17.844  0.00  0.00    +0.000 C 
ATOM     17  N   UNL     1      -0.958  10.502  18.705  0.00  0.00    +0.000 NA
ATOM     18  H   UNL     1      -4.716  11.511  18.557  0.00  0.00    +0.000 HD
ATOM     19  H   UNL     1      -0.404   9.841  18.165  0.00  0.00    +0.000 HD
ENDBRANCH   2   5
BRANCH   1  21
ATOM     20  C   UNL     1       1.447   7.499  21.446  0.00  0.00    +0.000 C 
ATOM     21  N   UNL     1       0.910   8.667  21.593  0.00  0.00    +0.000 NA
BRANCH  20  24
ATOM     22  C   UNL     1       3.025   6.181  18.220  0.00  0.00    +0.000 A 
ATOM     23  C   UNL     1       2.604   7.085  19.214  0.00  0.00    +0.000 A 
ATOM     24  C   UNL     1       1.810   6.664  20.271  0.00  0.00    +0.000 A 
ATOM     25  C   UNL     1       1.408   5.323  20.309  0.00  0.00    +0.000 A 
ATOM     26  C   UNL     1       1.818   4.399  19.333  0.00  0.00    +0.000 A 
ATOM     27  C   UNL     1       2.642   4.820  18.272  0.00  0.00    +0.000 A 
BRANCH  22  29
ATOM     28  C   UNL     1       5.188   6.615  17.322  0.00  0.00    +0.000 C 
ATOM     29  O   UNL     1       3.773   6.614  17.153  0.00  0.00    +0.000 OA
ENDBRANCH  22  29
BRANCH  26  30
ATOM     30  O   UNL     1       1.316   3.146  19.584  0.00  0.00    +0.000 OA
ATOM     31  C   UNL     1       1.517   2.566  20.864  0.00  0.00    +0.000 C 
ENDBRANCH  26  30
BRANCH  27  32
ATOM     32  O   UNL     1       2.970   3.885  17.323  0.00  0.00    +0.000 OA
ATOM     33  C   UNL     1       4.074   3.026  17.586  0.00  0.00    +0.000 C 
ENDBRANCH  27  32
ENDBRANCH  20  24
ENDBRANCH   1  21
TORSDOF 6
ENDMDL
MODEL 8
REMARK VINA RESULT:      -7.2      2.796      8.662
REMARK  Name = 
REMARK  9 active torsions:
REMARK  status: ('A' for Active; 'I' for Inactive)
REMARK    1  A    between atoms: C_1  and  O_2
REMARK    2  A    between atoms: O_2  and  C_3
REMARK    3  A    between atoms: C_5  and  C_6
REMARK    4  A    between atoms: N_7  and  N_8
REMARK    5  A    between atoms: C_9  and  C_11
REMARK    6  A    between atoms: C_25  and  O_26
REMARK    7  A    between atoms: O_26  and  C_27
REMARK    8  A    between atoms: C_28  and  O_29
REMARK    9  A    between atoms: O_29  and  C_30
REMARK                            x       y       z     vdW  Elec       q    Type
REMARK                         _______ _______ _______ _____ _____    ______ ____
ROOT
ATOM      1  N   UNL     1      -0.275   9.572  20.706  0.00  0.00    +0.000 N 
ATOM      2  C   UNL     1      -0.854  10.842  20.822  0.00  0.00    +0.000 C 
ATOM      3  O   UNL     1      -1.126  11.395  21.892  0.00  0.00    +0.000 OA
ATOM      4  H   UNL     1      -0.259   9.153  19.785  0.00  0.00    +0.000 HD
ENDROOT
BRANCH   2   5
ATOM      5  C   UNL     1      -1.216  11.484  19.475  0.00  0.00    +0.000 C 
ATOM      6  C   UNL     1      -2.424  12.438  19.720  0.00  0.00    +0.000 C 
ATOM      7  C   UNL     1      -3.567  12.084  18.838  0.00  0.00    +0.000 A 
ATOM      8  C   UNL     1      -3.411  11.279  17.733  0.00  0.00    +0.000 A 
ATOM      9  N   UNL     1      -4.648  10.780  17.404  0.00  0.00    +0.000 N 
ATOM     10  C   UNL     1      -5.499  11.032  18.469  0.00  0.00    +0.000 A 
ATOM     11  C   UNL     1      -6.649  10.374  18.904  0.00  0.00    +0.000 A 
ATOM     12  C   UNL     1      -7.161  10.762  20.150  0.00  0.00    +0.000 A 
ATOM     13  C   UNL     1      -6.663  11.868  20.839  0.00  0.00    +0.000 A 
ATOM     14  C   UNL     1      -5.576  12.576  20.343  0.00  0.00    +0.000 A 
ATOM     15  C   UNL     1      -4.923  12.059  19.216  0.00  0.00    +0.000 A 
ATOM     16  C   UNL     1      -2.102  10.779  17.264  0.00  0.00    +0.000 C 
ATOM     17  N   UNL     1      -1.371  10.373  18.470  0.00  0.00    +0.000 NA
ATOM     18  H   UNL     1      -4.824  10.083  16.695  0.00  0.00    +0.000 HD
ATOM     19  H   UNL     1      -0.442  10.043  18.220  0.00  0.00    +0.000 HD
ENDBRANCH   2   5
BRANCH   1  21
ATOM     20  C   UNL     1       0.711   7.770  21.798  0.00  0.00    +0.000 C 
ATOM     21  N   UNL     1       0.011   8.859  21.817  0.00  0.00    +0.000 NA
BRANCH  20  24
ATOM     22  C   UNL     1       2.157   5.036  19.547  0.00  0.00    +0.000 A 
ATOM     23  C   UNL     1       1.562   5.654  20.664  0.00  0.00    +0.000 A 
ATOM     24  C   UNL     1       1.458   7.035  20.743  0.00  0.00    +0.000 A 
ATOM     25  C   UNL     1       1.987   7.804  19.701  0.00  0.00    +0.000 A 
ATOM     26  C   UNL     1       2.582   7.214  18.572  0.00  0.00    +0.000 A 
ATOM     27  C   UNL     1       2.669   5.812  18.479  0.00  0.00    +0.000 A 
BRANCH  22  29
ATOM     28  C   UNL     1       3.306   3.100  20.323  0.00  0.00    +0.000 C 
ATOM     29  O   UNL     1       2.298   3.671  19.495  0.00  0.00    +0.000 OA
ENDBRANCH  22  29
BRANCH  26  30
ATOM     30  O   UNL     1       3.013   8.161  17.677  0.00  0.00    +0.000 OA
ATOM     31  C   UNL     1       2.311   9.391  17.582  0.00  0.00    +0.000 C 
ENDBRANCH  26  30
BRANCH  27  32
ATOM     32  O   UNL     1       3.303   5.294  17.378  0.00  0.00    +0.000 OA
ATOM     33  C   UNL     1       4.712   5.104  17.449  0.00  0.00    +0.000 C 
ENDBRANCH  27  32
ENDBRANCH  20  24
ENDBRANCH   1  21
TORSDOF 6
ENDMDL
MODEL 9
REMARK VINA RESULT:      -7.2      2.402      4.412
REMARK  Name = 
REMARK  9 active torsions:
REMARK  status: ('A' for Active; 'I' for Inactive)
REMARK    1  A    between atoms: C_1  and  O_2
REMARK    2  A    between atoms: O_2  and  C_3
REMARK    3  A    between atoms: C_5  and  C_6
REMARK    4  A    between atoms: N_7  and  N_8
REMARK    5  A    between atoms: C_9  and  C_11
REMARK    6  A    between atoms: C_25  and  O_26
REMARK    7  A    between atoms: O_26  and  C_27
REMARK    8  A    between atoms: C_28  and  O_29
REMARK    9  A    between atoms: O_29  and  C_30
REMARK                            x       y       z     vdW  Elec       q    Type
REMARK                         _______ _______ _______ _____ _____    ______ ____
ROOT
ATOM      1  N   UNL     1      -1.058  10.849  18.509  0.00  0.00    +0.000 N 
ATOM      2  C   UNL     1      -0.116   9.874  18.160  0.00  0.00    +0.000 C 
ATOM      3  O   UNL     1      -0.184   9.160  17.155  0.00  0.00    +0.000 OA
ATOM      4  H   UNL     1      -0.990  11.248  19.437  0.00  0.00    +0.000 HD
ENDROOT
BRANCH   2   5
ATOM      5  C   UNL     1       1.003   9.694  19.196  0.00  0.00    +0.000 C 
ATOM      6  C   UNL     1       2.028   8.678  18.606  0.00  0.00    +0.000 C 
ATOM      7  C   UNL     1       2.220   7.524  19.525  0.00  0.00    +0.000 A 
ATOM      8  C   UNL     1       1.825   7.571  20.843  0.00  0.00    +0.000 A 
ATOM      9  N   UNL     1       1.714   6.277  21.289  0.00  0.00    +0.000 N 
ATOM     10  C   UNL     1       1.745   5.446  20.180  0.00  0.00    +0.000 A 
ATOM     11  C   UNL     1       1.209   4.176  19.966  0.00  0.00    +0.000 A 
ATOM     12  C   UNL     1       1.239   3.696  18.648  0.00  0.00    +0.000 A 
ATOM     13  C   UNL     1       1.928   4.365  17.636  0.00  0.00    +0.000 A 
ATOM     14  C   UNL     1       2.543   5.585  17.889  0.00  0.00    +0.000 A 
ATOM     15  C   UNL     1       2.326   6.174  19.142  0.00  0.00    +0.000 A 
ATOM     16  C   UNL     1       1.276   8.780  21.490  0.00  0.00    +0.000 C 
ATOM     17  N   UNL     1       0.352   9.373  20.515  0.00  0.00    +0.000 NA
ATOM     18  H   UNL     1       1.348   6.002  22.189  0.00  0.00    +0.000 HD
ATOM     19  H   UNL     1      -0.043  10.233  20.888  0.00  0.00    +0.000 HD
ENDBRANCH   2   5
BRANCH   1  21
ATOM     20  C   UNL     1      -3.249  11.554  18.170  0.00  0.00    +0.000 C 
ATOM     21  N   UNL     1      -2.143  11.047  17.728  0.00  0.00    +0.000 NA
BRANCH  20  24
ATOM     22  C   UNL     1      -5.294  12.611  21.225  0.00  0.00    +0.000 A 
ATOM     23  C   UNL     1      -4.992  12.188  19.917  0.00  0.00    +0.000 A 
ATOM     24  C   UNL     1      -3.679  12.133  19.470  0.00  0.00    +0.000 A 
ATOM     25  C   UNL     1      -2.662  12.540  20.340  0.00  0.00    +0.000 A 
ATOM     26  C   UNL     1      -2.934  12.962  21.653  0.00  0.00    +0.000 A 
ATOM     27  C   UNL     1      -4.263  12.997  22.116  0.00  0.00    +0.000 A 
BRANCH  22  29
ATOM     28  C   UNL     1      -7.484  11.676  21.221  0.00  0.00    +0.000 C 
ATOM     29  O   UNL     1      -6.597  12.707  21.646  0.00  0.00    +0.000 OA
ENDBRANCH  22  29
BRANCH  26  30
ATOM     30  O   UNL     1      -1.783  13.296  22.323  0.00  0.00    +0.000 OA
ATOM     31  C   UNL     1      -0.849  12.276  22.641  0.00  0.00    +0.000 C 
ENDBRANCH  26  30
BRANCH  27  32
ATOM     32  O   UNL     1      -4.473  13.465  23.389  0.00  0.00    +0.000 OA
ATOM     33  C   UNL     1      -4.403  12.531  24.461  0.00  0.00    +0.000 C 
ENDBRANCH  27  32
ENDBRANCH  20  24
ENDBRANCH   1  21
TORSDOF 6
ENDMDL
